data_image0
_chemical_formula_structural       Co12F4P8O52H8N8C8H4C4H4C8H4C4H4C12H4C4H4C8H4C4H4C12H4C4H4C8H4C4H4C12H4C4H4C8H4C4H4C12H4C4H4C8H4C4H4C12H4C4H4C8H4C4H4C8H4C4H4C8H4C4H4C8H4C4H4C4H4C4H4
_chemical_formula_sum              "Co12 F4 P8 O52 H136 N8 C208"
_cell_length_a       13.1378
_cell_length_b       26.3432
_cell_length_c       23.7446
_cell_angle_alpha    90
_cell_angle_beta     91.0539
_cell_angle_gamma    90

_space_group_name_H-M_alt    "P 1"
_space_group_IT_number       1

loop_
  _space_group_symop_operation_xyz
  'x, y, z'

loop_
  _atom_site_type_symbol
  _atom_site_label
  _atom_site_symmetry_multiplicity
  _atom_site_fract_x
  _atom_site_fract_y
  _atom_site_fract_z
  _atom_site_occupancy
  Co  Co1       1.0  0.38437  0.30988  0.24488  1.0000
  Co  Co2       1.0  0.11563  0.80988  0.25512  1.0000
  Co  Co3       1.0  0.61563  0.69012  0.75512  1.0000
  Co  Co4       1.0  0.88437  0.19012  0.74488  1.0000
  Co  Co5       1.0  0.47798  0.43071  0.25381  1.0000
  Co  Co6       1.0  0.02202  0.93071  0.24619  1.0000
  Co  Co7       1.0  0.52202  0.56929  0.74619  1.0000
  Co  Co8       1.0  0.97798  0.06929  0.75381  1.0000
  Co  Co9       1.0  0.35032  0.67215  0.74845  1.0000
  Co  Co10      1.0  0.14968  0.17215  0.75155  1.0000
  Co  Co11      1.0  0.64968  0.32785  0.25155  1.0000
  Co  Co12      1.0  0.85032  0.82785  0.24845  1.0000
  F   F1        1.0  0.50698  0.35596  0.24949  1.0000
  F   F2        1.0  0.99302  0.85596  0.25051  1.0000
  F   F3        1.0  0.49302  0.64404  0.75051  1.0000
  F   F4        1.0  0.00698  0.14404  0.74949  1.0000
  P   P1        1.0  0.04789  0.44089  0.53122  1.0000
  P   P2        1.0  0.45211  0.94089  0.96878  1.0000
  P   P3        1.0  0.95211  0.55911  0.46878  1.0000
  P   P4        1.0  0.54789  0.05911  0.03122  1.0000
  P   P5        1.0  0.04552  0.44509  0.96210  1.0000
  P   P6        1.0  0.45448  0.94509  0.53790  1.0000
  P   P7        1.0  0.95448  0.55491  0.03790  1.0000
  P   P8        1.0  0.54552  0.05491  0.46210  1.0000
  O   O1        1.0  0.31900  0.34048  0.31593  1.0000
  O   O2        1.0  0.18100  0.84048  0.18407  1.0000
  O   O3        1.0  0.68100  0.65952  0.68407  1.0000
  O   O4        1.0  0.81900  0.15952  0.81593  1.0000
  O   O5        1.0  0.35430  0.42338  0.30626  1.0000
  O   O6        1.0  0.14570  0.92338  0.19374  1.0000
  O   O7        1.0  0.64570  0.57662  0.69374  1.0000
  O   O8        1.0  0.85430  0.07662  0.80626  1.0000
  O   O9        1.0  0.42620  0.56383  0.67521  1.0000
  O   O10       1.0  0.07380  0.06383  0.82479  1.0000
  O   O11       1.0  0.57380  0.43617  0.32479  1.0000
  O   O12       1.0  0.92620  0.93617  0.17521  1.0000
  O   O13       1.0  0.29660  0.61767  0.69003  1.0000
  O   O14       1.0  0.20340  0.11767  0.80997  1.0000
  O   O15       1.0  0.70340  0.38233  0.30997  1.0000
  O   O16       1.0  0.79660  0.88233  0.19003  1.0000
  O   O17       1.0  0.11490  0.22984  0.69426  1.0000
  O   O18       1.0  0.38510  0.72984  0.80574  1.0000
  O   O19       1.0  0.88510  0.77016  0.30574  1.0000
  O   O20       1.0  0.61490  0.27016  0.19426  1.0000
  O   O21       1.0  0.94720  0.22464  0.67412  1.0000
  O   O22       1.0  0.55280  0.72464  0.82588  1.0000
  O   O23       1.0  0.05280  0.77536  0.32588  1.0000
  O   O24       1.0  0.44720  0.27536  0.17412  1.0000
  O   O25       1.0  0.38010  0.43029  0.18373  1.0000
  O   O26       1.0  0.11990  0.93029  0.31627  1.0000
  O   O27       1.0  0.61990  0.56971  0.81627  1.0000
  O   O28       1.0  0.88010  0.06971  0.68373  1.0000
  O   O29       1.0  0.29950  0.35550  0.19216  1.0000
  O   O30       1.0  0.20050  0.85550  0.30784  1.0000
  O   O31       1.0  0.70050  0.64450  0.80784  1.0000
  O   O32       1.0  0.79950  0.14450  0.69216  1.0000
  O   O33       1.0  0.12100  0.22278  0.81782  1.0000
  O   O34       1.0  0.37900  0.72278  0.68218  1.0000
  O   O35       1.0  0.87900  0.77722  0.18218  1.0000
  O   O36       1.0  0.62100  0.27722  0.31782  1.0000
  O   O37       1.0  0.96040  0.24302  0.79457  1.0000
  O   O38       1.0  0.53960  0.74302  0.70543  1.0000
  O   O39       1.0  0.03960  0.75698  0.20543  1.0000
  O   O40       1.0  0.46040  0.25698  0.29457  1.0000
  O   O41       1.0  0.40010  0.55360  0.79760  1.0000
  O   O42       1.0  0.09990  0.05360  0.70240  1.0000
  O   O43       1.0  0.59990  0.44640  0.20240  1.0000
  O   O44       1.0  0.90010  0.94640  0.29760  1.0000
  O   O45       1.0  0.30380  0.62269  0.81141  1.0000
  O   O46       1.0  0.19620  0.12269  0.68859  1.0000
  O   O47       1.0  0.69620  0.37731  0.18859  1.0000
  O   O48       1.0  0.80380  0.87731  0.31141  1.0000
  O   O49       1.0  0.19960  0.70090  0.74633  1.0000
  O   O50       1.0  0.30040  0.20090  0.75367  1.0000
  O   O51       1.0  0.80040  0.29910  0.25367  1.0000
  O   O52       1.0  0.69960  0.79910  0.24633  1.0000
  H   H1        1.0  0.16103  0.71618  0.71447  1.0000
  H   H2        1.0  0.33897  0.21618  0.78553  1.0000
  H   H3        1.0  0.83897  0.28382  0.28553  1.0000
  H   H4        1.0  0.66103  0.78382  0.21447  1.0000
  H   H5        1.0  0.15037  0.70212  0.77732  1.0000
  H   H6        1.0  0.34963  0.20212  0.72268  1.0000
  H   H7        1.0  0.84963  0.29788  0.22268  1.0000
  H   H8        1.0  0.65037  0.79788  0.27732  1.0000
  N   N1        1.0  0.04630  0.01049  0.24236  1.0000
  N   N2        1.0  0.45370  0.51049  0.25764  1.0000
  N   N3        1.0  0.95370  0.98951  0.75764  1.0000
  N   N4        1.0  0.54630  0.48951  0.74236  1.0000
  N   N5        1.0  0.26460  0.25492  0.24266  1.0000
  N   N6        1.0  0.23540  0.75492  0.25734  1.0000
  N   N7        1.0  0.73540  0.74508  0.75734  1.0000
  N   N8        1.0  0.76460  0.24508  0.74266  1.0000
  C   C1        1.0  0.12460  0.42236  0.47064  1.0000
  C   C2        1.0  0.37540  0.92236  0.02936  1.0000
  C   C3        1.0  0.87540  0.57764  0.52936  1.0000
  C   C4        1.0  0.62460  0.07764  0.97064  1.0000
  C   C5        1.0  0.14360  0.37221  0.45623  1.0000
  C   C6        1.0  0.35640  0.87221  0.04377  1.0000
  C   C7        1.0  0.85640  0.62779  0.54377  1.0000
  C   C8        1.0  0.64360  0.12779  0.95623  1.0000
  H   H9        1.0  0.11742  0.34561  0.47877  1.0000
  H   H10       1.0  0.38258  0.84561  0.02123  1.0000
  H   H11       1.0  0.88258  0.65439  0.52123  1.0000
  H   H12       1.0  0.61742  0.15439  0.97877  1.0000
  C   C9        1.0  0.20010  0.36057  0.40953  1.0000
  C   C10       1.0  0.29990  0.86057  0.09047  1.0000
  C   C11       1.0  0.79990  0.63943  0.59047  1.0000
  C   C12       1.0  0.70010  0.13943  0.90953  1.0000
  H   H13       1.0  0.21106  0.32607  0.39970  1.0000
  H   H14       1.0  0.28894  0.82607  0.10030  1.0000
  H   H15       1.0  0.78894  0.67393  0.60030  1.0000
  H   H16       1.0  0.71106  0.17393  0.89970  1.0000
  C   C13       1.0  0.24120  0.39888  0.37677  1.0000
  C   C14       1.0  0.25880  0.89888  0.12323  1.0000
  C   C15       1.0  0.75880  0.60112  0.62323  1.0000
  C   C16       1.0  0.74120  0.10112  0.87677  1.0000
  C   C17       1.0  0.22220  0.44884  0.39059  1.0000
  C   C18       1.0  0.27780  0.94884  0.10941  1.0000
  C   C19       1.0  0.77780  0.55116  0.60941  1.0000
  C   C20       1.0  0.72220  0.05116  0.89059  1.0000
  H   H17       1.0  0.24974  0.47529  0.36835  1.0000
  H   H18       1.0  0.25026  0.97529  0.13165  1.0000
  H   H19       1.0  0.75026  0.52471  0.63165  1.0000
  H   H20       1.0  0.74974  0.02471  0.86835  1.0000
  C   C21       1.0  0.16340  0.46079  0.43653  1.0000
  C   C22       1.0  0.33660  0.96079  0.06347  1.0000
  C   C23       1.0  0.83660  0.53921  0.56347  1.0000
  C   C24       1.0  0.66340  0.03921  0.93653  1.0000
  H   H21       1.0  0.14926  0.49531  0.44493  1.0000
  H   H22       1.0  0.35074  0.99531  0.05507  1.0000
  H   H23       1.0  0.85074  0.50469  0.55507  1.0000
  H   H24       1.0  0.64926  0.00469  0.94493  1.0000
  C   C25       1.0  0.31090  0.38622  0.32843  1.0000
  C   C26       1.0  0.18910  0.88622  0.17157  1.0000
  C   C27       1.0  0.68910  0.61378  0.67157  1.0000
  C   C28       1.0  0.81090  0.11378  0.82843  1.0000
  C   C29       1.0  0.13890  0.48072  0.57113  1.0000
  C   C30       1.0  0.36110  0.98072  0.92887  1.0000
  C   C31       1.0  0.86110  0.51928  0.42887  1.0000
  C   C32       1.0  0.63890  0.01928  0.07113  1.0000
  C   C33       1.0  0.24340  0.48016  0.56350  1.0000
  C   C34       1.0  0.25660  0.98016  0.93650  1.0000
  C   C35       1.0  0.75660  0.51984  0.43650  1.0000
  C   C36       1.0  0.74340  0.01984  0.06350  1.0000
  H   H25       1.0  0.27171  0.45832  0.53607  1.0000
  H   H26       1.0  0.22829  0.95832  0.96393  1.0000
  H   H27       1.0  0.72829  0.54168  0.46393  1.0000
  H   H28       1.0  0.77171  0.04168  0.03607  1.0000
  C   C37       1.0  0.30720  0.51143  0.59582  1.0000
  C   C38       1.0  0.19280  0.01143  0.90418  1.0000
  C   C39       1.0  0.69280  0.48857  0.40418  1.0000
  C   C40       1.0  0.80720  0.98857  0.09582  1.0000
  H   H29       1.0  0.37873  0.51022  0.59075  1.0000
  H   H30       1.0  0.12127  0.01022  0.90925  1.0000
  H   H31       1.0  0.62127  0.48978  0.40925  1.0000
  H   H32       1.0  0.87873  0.98978  0.09075  1.0000
  C   C41       1.0  0.26720  0.54418  0.63521  1.0000
  C   C42       1.0  0.23280  0.04418  0.86479  1.0000
  C   C43       1.0  0.73280  0.45582  0.36479  1.0000
  C   C44       1.0  0.76720  0.95582  0.13521  1.0000
  C   C45       1.0  0.16210  0.54498  0.64261  1.0000
  C   C46       1.0  0.33790  0.04498  0.85739  1.0000
  C   C47       1.0  0.83790  0.45502  0.35739  1.0000
  C   C48       1.0  0.66210  0.95502  0.14261  1.0000
  H   H33       1.0  0.13359  0.56727  0.66951  1.0000
  H   H34       1.0  0.36641  0.06727  0.83049  1.0000
  H   H35       1.0  0.86641  0.43273  0.33049  1.0000
  H   H36       1.0  0.63359  0.93273  0.16951  1.0000
  C   C49       1.0  0.09930  0.51341  0.61089  1.0000
  C   C50       1.0  0.40070  0.01341  0.88911  1.0000
  C   C51       1.0  0.90070  0.48659  0.38911  1.0000
  C   C52       1.0  0.59930  0.98659  0.11089  1.0000
  H   H37       1.0  0.02786  0.51416  0.61646  1.0000
  H   H38       1.0  0.47214  0.01416  0.88354  1.0000
  H   H39       1.0  0.97214  0.48584  0.38354  1.0000
  H   H40       1.0  0.52786  0.98584  0.11646  1.0000
  C   C53       1.0  0.33640  0.57803  0.67006  1.0000
  C   C54       1.0  0.16360  0.07803  0.82994  1.0000
  C   C55       1.0  0.66360  0.42197  0.32994  1.0000
  C   C56       1.0  0.83640  0.92197  0.17006  1.0000
  C   C57       1.0  0.04980  0.38221  0.57342  1.0000
  C   C58       1.0  0.45020  0.88221  0.92658  1.0000
  C   C59       1.0  0.95020  0.61779  0.42658  1.0000
  C   C60       1.0  0.54980  0.11779  0.07342  1.0000
  C   C61       1.0  0.13650  0.36176  0.59870  1.0000
  C   C62       1.0  0.36350  0.86176  0.90130  1.0000
  C   C63       1.0  0.86350  0.63824  0.40130  1.0000
  C   C64       1.0  0.63650  0.13824  0.09870  1.0000
  H   H41       1.0  0.20020  0.37828  0.59447  1.0000
  H   H42       1.0  0.29980  0.87828  0.90553  1.0000
  H   H43       1.0  0.79980  0.62172  0.40553  1.0000
  H   H44       1.0  0.70020  0.12172  0.09447  1.0000
  C   C65       1.0  0.13120  0.31764  0.62980  1.0000
  C   C66       1.0  0.36880  0.81764  0.87020  1.0000
  C   C67       1.0  0.86880  0.68236  0.37020  1.0000
  C   C68       1.0  0.63120  0.18236  0.12980  1.0000
  H   H45       1.0  0.19115  0.30436  0.64721  1.0000
  H   H46       1.0  0.30885  0.80436  0.85279  1.0000
  H   H47       1.0  0.80885  0.69564  0.35279  1.0000
  H   H48       1.0  0.69115  0.19564  0.14721  1.0000
  C   C69       1.0  0.03990  0.29257  0.63587  1.0000
  C   C70       1.0  0.46010  0.79257  0.86413  1.0000
  C   C71       1.0  0.96010  0.70743  0.36413  1.0000
  C   C72       1.0  0.53990  0.20743  0.13587  1.0000
  C   C73       1.0  0.95320  0.31240  0.60970  1.0000
  C   C74       1.0  0.54680  0.81240  0.89030  1.0000
  C   C75       1.0  0.04680  0.68760  0.39030  1.0000
  C   C76       1.0  0.45320  0.18760  0.10970  1.0000
  H   H49       1.0  0.88980  0.29545  0.61315  1.0000
  H   H50       1.0  0.61020  0.79545  0.88685  1.0000
  H   H51       1.0  0.11020  0.70455  0.38685  1.0000
  H   H52       1.0  0.38980  0.20455  0.11315  1.0000
  C   C77       1.0  0.95880  0.35700  0.57860  1.0000
  C   C78       1.0  0.54120  0.85700  0.92140  1.0000
  C   C79       1.0  0.04120  0.64300  0.42140  1.0000
  C   C80       1.0  0.45880  0.14300  0.07860  1.0000
  H   H53       1.0  0.89920  0.37025  0.56073  1.0000
  H   H54       1.0  0.60080  0.87025  0.93927  1.0000
  H   H55       1.0  0.10080  0.62975  0.43927  1.0000
  H   H56       1.0  0.39920  0.12975  0.06073  1.0000
  C   C81       1.0  0.03360  0.24462  0.67135  1.0000
  C   C82       1.0  0.46640  0.74462  0.82865  1.0000
  C   C83       1.0  0.96640  0.75538  0.32865  1.0000
  C   C84       1.0  0.53360  0.25538  0.17135  1.0000
  C   C85       1.0  0.12780  0.43173  0.02318  1.0000
  C   C86       1.0  0.37220  0.93173  0.47682  1.0000
  C   C87       1.0  0.87220  0.56827  0.97682  1.0000
  C   C88       1.0  0.62780  0.06827  0.52318  1.0000
  C   C89       1.0  0.11370  0.38731  0.05388  1.0000
  C   C90       1.0  0.38630  0.88731  0.44612  1.0000
  C   C91       1.0  0.88630  0.61269  0.94612  1.0000
  C   C92       1.0  0.61370  0.11269  0.55388  1.0000
  H   H57       1.0  0.06280  0.36377  0.04216  1.0000
  H   H58       1.0  0.43720  0.86377  0.45784  1.0000
  H   H59       1.0  0.93720  0.63623  0.95784  1.0000
  H   H60       1.0  0.56280  0.13623  0.54216  1.0000
  C   C93       1.0  0.17310  0.37711  0.10126  1.0000
  C   C94       1.0  0.32690  0.87711  0.39874  1.0000
  C   C95       1.0  0.82690  0.62289  0.89874  1.0000
  C   C96       1.0  0.67310  0.12289  0.60126  1.0000
  H   H61       1.0  0.16362  0.34618  0.12106  1.0000
  H   H62       1.0  0.33638  0.84618  0.37894  1.0000
  H   H63       1.0  0.83638  0.65382  0.87894  1.0000
  H   H64       1.0  0.66362  0.15382  0.62106  1.0000
  C   C97       1.0  0.24600  0.41109  0.12027  1.0000
  C   C98       1.0  0.25400  0.91109  0.37973  1.0000
  C   C99       1.0  0.75400  0.58891  0.87973  1.0000
  C   C100      1.0  0.74600  0.08891  0.62027  1.0000
  C   C101      1.0  0.25690  0.45662  0.09142  1.0000
  C   C102      1.0  0.24310  0.95662  0.40858  1.0000
  C   C103      1.0  0.74310  0.54338  0.90858  1.0000
  C   C104      1.0  0.75690  0.04338  0.59142  1.0000
  H   H65       1.0  0.30477  0.48111  0.10465  1.0000
  H   H66       1.0  0.19523  0.98111  0.39535  1.0000
  H   H67       1.0  0.69523  0.51889  0.89535  1.0000
  H   H68       1.0  0.80477  0.01889  0.60465  1.0000
  C   C105      1.0  0.19820  0.46661  0.04322  1.0000
  C   C106      1.0  0.30180  0.96661  0.45678  1.0000
  C   C107      1.0  0.80180  0.53339  0.95678  1.0000
  C   C108      1.0  0.69820  0.03339  0.54322  1.0000
  H   H69       1.0  0.20666  0.49784  0.02385  1.0000
  H   H70       1.0  0.29334  0.99784  0.47615  1.0000
  H   H71       1.0  0.79334  0.50216  0.97615  1.0000
  H   H72       1.0  0.70666  0.00216  0.52385  1.0000
  C   C109      1.0  0.31470  0.39806  0.16956  1.0000
  C   C110      1.0  0.18530  0.89806  0.33044  1.0000
  C   C111      1.0  0.68530  0.60194  0.83044  1.0000
  C   C112      1.0  0.81470  0.10194  0.66956  1.0000
  C   C113      1.0  0.05020  0.38460  0.92319  1.0000
  C   C114      1.0  0.44980  0.88460  0.57681  1.0000
  C   C115      1.0  0.94980  0.61540  0.07681  1.0000
  C   C116      1.0  0.55020  0.11540  0.42319  1.0000
  C   C117      1.0  0.12830  0.34819  0.92770  1.0000
  C   C118      1.0  0.37170  0.84819  0.57230  1.0000
  C   C119      1.0  0.87170  0.65181  0.07230  1.0000
  C   C120      1.0  0.62830  0.15181  0.42770  1.0000
  H   H73       1.0  0.18278  0.35320  0.95398  1.0000
  H   H74       1.0  0.31722  0.85320  0.54602  1.0000
  H   H75       1.0  0.81722  0.64680  0.04602  1.0000
  H   H76       1.0  0.68278  0.14680  0.45398  1.0000
  C   C121      1.0  0.12640  0.30551  0.89460  1.0000
  C   C122      1.0  0.37360  0.80551  0.60540  1.0000
  C   C123      1.0  0.87360  0.69449  0.10540  1.0000
  C   C124      1.0  0.62640  0.19449  0.39460  1.0000
  H   H77       1.0  0.18040  0.28161  0.89755  1.0000
  H   H78       1.0  0.31960  0.78161  0.60245  1.0000
  H   H79       1.0  0.81960  0.71839  0.10245  1.0000
  H   H80       1.0  0.68040  0.21839  0.39755  1.0000
  C   C125      1.0  0.04650  0.29695  0.85692  1.0000
  C   C126      1.0  0.45350  0.79695  0.64308  1.0000
  C   C127      1.0  0.95350  0.70305  0.14308  1.0000
  C   C128      1.0  0.54650  0.20305  0.35692  1.0000
  C   C129      1.0  0.96910  0.33252  0.85240  1.0000
  C   C130      1.0  0.53090  0.83252  0.64760  1.0000
  C   C131      1.0  0.03090  0.66748  0.14760  1.0000
  C   C132      1.0  0.46910  0.16748  0.35240  1.0000
  H   H81       1.0  0.91404  0.32717  0.82662  1.0000
  H   H82       1.0  0.58596  0.82717  0.67338  1.0000
  H   H83       1.0  0.08596  0.67283  0.17338  1.0000
  H   H84       1.0  0.41404  0.17283  0.32662  1.0000
  C   C133      1.0  0.97160  0.37560  0.88540  1.0000
  C   C134      1.0  0.52840  0.87560  0.61460  1.0000
  C   C135      1.0  0.02840  0.62440  0.11460  1.0000
  C   C136      1.0  0.47160  0.12440  0.38540  1.0000
  H   H85       1.0  0.91802  0.39970  0.88182  1.0000
  H   H86       1.0  0.58198  0.89970  0.61818  1.0000
  H   H87       1.0  0.08198  0.60030  0.11818  1.0000
  H   H88       1.0  0.41802  0.10030  0.38182  1.0000
  C   C137      1.0  0.04220  0.25006  0.81957  1.0000
  C   C138      1.0  0.45780  0.75006  0.68043  1.0000
  C   C139      1.0  0.95780  0.74994  0.18043  1.0000
  C   C140      1.0  0.54220  0.24994  0.31957  1.0000
  C   C141      1.0  0.13120  0.48383  0.91913  1.0000
  C   C142      1.0  0.36880  0.98383  0.58087  1.0000
  C   C143      1.0  0.86880  0.51617  0.08087  1.0000
  C   C144      1.0  0.63120  0.01617  0.41913  1.0000
  C   C145      1.0  0.09710  0.52976  0.89850  1.0000
  C   C146      1.0  0.40290  0.02976  0.60150  1.0000
  C   C147      1.0  0.90290  0.47024  0.10150  1.0000
  C   C148      1.0  0.59710  0.97024  0.39850  1.0000
  H   H89       1.0  0.03003  0.54075  0.90647  1.0000
  H   H90       1.0  0.46997  0.04075  0.59353  1.0000
  H   H91       1.0  0.96997  0.45925  0.09353  1.0000
  H   H92       1.0  0.53003  0.95925  0.40647  1.0000
  C   C149      1.0  0.15990  0.56025  0.86620  1.0000
  C   C150      1.0  0.34010  0.06025  0.63380  1.0000
  C   C151      1.0  0.84010  0.43975  0.13380  1.0000
  C   C152      1.0  0.65990  0.93975  0.36620  1.0000
  H   H93       1.0  0.13551  0.59206  0.85280  1.0000
  H   H94       1.0  0.36449  0.09206  0.64720  1.0000
  H   H95       1.0  0.86449  0.40794  0.14720  1.0000
  H   H96       1.0  0.63551  0.90794  0.35280  1.0000
  C   C153      1.0  0.25710  0.54477  0.85350  1.0000
  C   C154      1.0  0.24290  0.04477  0.64650  1.0000
  C   C155      1.0  0.74290  0.45523  0.14650  1.0000
  C   C156      1.0  0.75710  0.95523  0.35350  1.0000
  C   C157      1.0  0.28910  0.49740  0.87210  1.0000
  C   C158      1.0  0.21090  0.99740  0.62790  1.0000
  C   C159      1.0  0.71090  0.50260  0.12790  1.0000
  C   C160      1.0  0.78910  0.00260  0.37210  1.0000
  H   H97       1.0  0.35485  0.48549  0.86266  1.0000
  H   H98       1.0  0.14515  0.98549  0.63734  1.0000
  H   H99       1.0  0.64515  0.51451  0.13734  1.0000
  H   H100      1.0  0.85485  0.01451  0.36266  1.0000
  C   C161      1.0  0.22690  0.46730  0.90420  1.0000
  C   C162      1.0  0.27310  0.96730  0.59580  1.0000
  C   C163      1.0  0.77310  0.53270  0.09580  1.0000
  C   C164      1.0  0.72690  0.03270  0.40420  1.0000
  H   H101      1.0  0.25007  0.43480  0.91622  1.0000
  H   H102      1.0  0.24993  0.93480  0.58378  1.0000
  H   H103      1.0  0.74993  0.56520  0.08378  1.0000
  H   H104      1.0  0.75007  0.06520  0.41622  1.0000
  C   C165      1.0  0.32620  0.57639  0.81752  1.0000
  C   C166      1.0  0.17380  0.07639  0.68248  1.0000
  C   C167      1.0  0.67380  0.42361  0.18248  1.0000
  C   C168      1.0  0.82620  0.92361  0.31752  1.0000
  C   C169      1.0  0.05060  0.03787  0.28950  1.0000
  C   C170      1.0  0.44940  0.53787  0.21050  1.0000
  C   C171      1.0  0.94940  0.96213  0.71050  1.0000
  C   C172      1.0  0.55060  0.46213  0.78950  1.0000
  H   H105      1.0  0.03135  0.02227  0.32376  1.0000
  H   H106      1.0  0.46865  0.52227  0.17624  1.0000
  H   H107      1.0  0.96865  0.97773  0.67624  1.0000
  H   H108      1.0  0.53135  0.47773  0.82376  1.0000
  C   C173      1.0  0.08170  0.08788  0.29070  1.0000
  C   C174      1.0  0.41830  0.58788  0.20930  1.0000
  C   C175      1.0  0.91830  0.91212  0.70930  1.0000
  C   C176      1.0  0.58170  0.41212  0.79070  1.0000
  H   H109      1.0  0.08275  0.10604  0.32529  1.0000
  H   H110      1.0  0.41725  0.60604  0.17471  1.0000
  H   H111      1.0  0.91725  0.89396  0.67471  1.0000
  H   H112      1.0  0.58275  0.39396  0.82529  1.0000
  C   C177      1.0  0.11160  0.11183  0.24134  1.0000
  C   C178      1.0  0.38840  0.61183  0.25866  1.0000
  C   C179      1.0  0.88840  0.88817  0.75866  1.0000
  C   C180      1.0  0.61160  0.38817  0.74134  1.0000
  C   C181      1.0  0.10300  0.08355  0.19170  1.0000
  C   C182      1.0  0.39700  0.58355  0.30830  1.0000
  C   C183      1.0  0.89700  0.91645  0.80830  1.0000
  C   C184      1.0  0.60300  0.41645  0.69170  1.0000
  H   H113      1.0  0.11944  0.09847  0.15662  1.0000
  H   H114      1.0  0.38056  0.59847  0.34338  1.0000
  H   H115      1.0  0.88056  0.90153  0.84338  1.0000
  H   H116      1.0  0.61944  0.40153  0.65662  1.0000
  C   C185      1.0  0.07020  0.03353  0.19401  1.0000
  C   C186      1.0  0.42980  0.53353  0.30599  1.0000
  C   C187      1.0  0.92980  0.96647  0.80599  1.0000
  C   C188      1.0  0.57020  0.46647  0.69401  1.0000
  H   H117      1.0  0.06451  0.01481  0.15990  1.0000
  H   H118      1.0  0.43549  0.51481  0.34010  1.0000
  H   H119      1.0  0.93549  0.98519  0.84010  1.0000
  H   H120      1.0  0.56451  0.48519  0.65990  1.0000
  C   C189      1.0  0.15780  0.16311  0.24200  1.0000
  C   C190      1.0  0.34220  0.66311  0.25800  1.0000
  C   C191      1.0  0.84220  0.83689  0.75800  1.0000
  C   C192      1.0  0.65780  0.33689  0.74200  1.0000
  C   C193      1.0  0.18810  0.18634  0.29170  1.0000
  C   C194      1.0  0.31190  0.68634  0.20830  1.0000
  C   C195      1.0  0.81190  0.81366  0.70830  1.0000
  C   C196      1.0  0.68810  0.31366  0.79170  1.0000
  H   H121      1.0  0.17243  0.17116  0.32681  1.0000
  H   H122      1.0  0.32757  0.67116  0.17319  1.0000
  H   H123      1.0  0.82757  0.82884  0.67319  1.0000
  H   H124      1.0  0.67243  0.32884  0.82681  1.0000
  C   C197      1.0  0.24090  0.23128  0.29050  1.0000
  C   C198      1.0  0.25910  0.73128  0.20950  1.0000
  C   C199      1.0  0.75910  0.76872  0.70950  1.0000
  C   C200      1.0  0.74090  0.26872  0.79050  1.0000
  H   H125      1.0  0.26154  0.24629  0.32528  1.0000
  H   H126      1.0  0.23846  0.74629  0.17472  1.0000
  H   H127      1.0  0.73846  0.75371  0.67472  1.0000
  H   H128      1.0  0.76154  0.25371  0.82528  1.0000
  C   C201      1.0  0.23040  0.23478  0.19450  1.0000
  C   C202      1.0  0.26960  0.73478  0.30550  1.0000
  C   C203      1.0  0.76960  0.76522  0.80550  1.0000
  C   C204      1.0  0.73040  0.26522  0.69450  1.0000
  H   H129      1.0  0.24287  0.25241  0.16041  1.0000
  H   H130      1.0  0.25713  0.75241  0.33959  1.0000
  H   H131      1.0  0.75713  0.74759  0.83959  1.0000
  H   H132      1.0  0.74287  0.24759  0.66041  1.0000
  C   C205      1.0  0.17740  0.18925  0.19180  1.0000
  C   C206      1.0  0.32260  0.68925  0.30820  1.0000
  C   C207      1.0  0.82260  0.81075  0.80820  1.0000
  C   C208      1.0  0.67740  0.31075  0.69180  1.0000
  H   H133      1.0  0.15483  0.17597  0.15650  1.0000
  H   H134      1.0  0.34517  0.67597  0.34350  1.0000
  H   H135      1.0  0.84517  0.82403  0.84350  1.0000
  H   H136      1.0  0.65483  0.32403  0.65650  1.0000
