data_image0
_chemical_formula_structural       Mo2C2N2C2N2C2N2C2N2C2N2C2N2C2N2C2N2Mn2O4N4C4H2C2H2C4H2C4H2C2H2C2H4C2H4C2H4C2H4C2H2C2H2C4H2C4H2C2H2C2Br4
_chemical_formula_sum              "Mo2 C56 N20 Mn2 O4 H36 Br4"
_cell_length_a       10.7696
_cell_length_b       13.8437
_cell_length_c       24.4199
_cell_angle_alpha    89.154
_cell_angle_beta     89.071
_cell_angle_gamma    84.376

_space_group_name_H-M_alt    "P 1"
_space_group_IT_number       1

loop_
  _space_group_symop_operation_xyz
  'x, y, z'

loop_
  _atom_site_type_symbol
  _atom_site_label
  _atom_site_symmetry_multiplicity
  _atom_site_fract_x
  _atom_site_fract_y
  _atom_site_fract_z
  _atom_site_occupancy
  Mo  Mo1       1.0  0.45431  0.96317  0.25464  1.0000
  Mo  Mo2       1.0  0.54569  0.03683  0.74536  1.0000
  C   C1        1.0  0.26590  0.01610  0.23126  1.0000
  C   C2        1.0  0.73410  0.98390  0.76874  1.0000
  N   N1        1.0  0.16440  0.04200  0.22027  1.0000
  N   N2        1.0  0.83560  0.95800  0.77973  1.0000
  C   C3        1.0  0.33870  0.94460  0.32620  1.0000
  C   C4        1.0  0.66130  0.05540  0.67380  1.0000
  N   N3        1.0  0.27690  0.93610  0.36419  1.0000
  N   N4        1.0  0.72310  0.06390  0.63581  1.0000
  C   C5        1.0  0.35530  0.84120  0.23230  1.0000
  C   C6        1.0  0.64470  0.15880  0.76770  1.0000
  N   N5        1.0  0.30220  0.77650  0.22210  1.0000
  N   N6        1.0  0.69780  0.22350  0.77790  1.0000
  C   C7        1.0  0.57820  0.83140  0.25800  1.0000
  C   C8        1.0  0.42180  0.16860  0.74200  1.0000
  N   N7        1.0  0.64470  0.76250  0.26010  1.0000
  N   N8        1.0  0.35530  0.23750  0.73990  1.0000
  C   C9        1.0  0.55850  0.97800  0.32800  1.0000
  C   C10       1.0  0.44150  0.02200  0.67200  1.0000
  N   N9        1.0  0.61450  0.98660  0.36740  1.0000
  N   N10       1.0  0.38550  0.01340  0.63260  1.0000
  C   C11       1.0  0.45930  0.97980  0.16700  1.0000
  C   C12       1.0  0.54070  0.02020  0.83300  1.0000
  N   N11       1.0  0.45630  0.99300  0.12038  1.0000
  N   N12       1.0  0.54370  0.00700  0.87962  1.0000
  C   C13       1.0  0.43580  0.11910  0.26335  1.0000
  C   C14       1.0  0.56420  0.88090  0.73665  1.0000
  N   N13       1.0  0.42730  0.20140  0.26728  1.0000
  N   N14       1.0  0.57270  0.79860  0.73272  1.0000
  C   C15       1.0  0.63680  0.00610  0.23211  1.0000
  C   C16       1.0  0.36320  0.99390  0.76789  1.0000
  N   N15       1.0  0.73510  0.02850  0.22257  1.0000
  N   N16       1.0  0.26490  0.97150  0.77743  1.0000
  Mn  Mn1       1.0  0.94925  0.04425  0.21528  1.0000
  Mn  Mn2       1.0  0.05075  0.95575  0.78472  1.0000
  O   O1        1.0  0.93250  0.18100  0.21466  1.0000
  O   O2        1.0  0.06750  0.81900  0.78534  1.0000
  O   O3        1.0  0.94330  0.03700  0.13946  1.0000
  O   O4        1.0  0.05670  0.96300  0.86054  1.0000
  N   N17       1.0  0.95270  0.03930  0.29646  1.0000
  N   N18       1.0  0.04730  0.96070  0.70354  1.0000
  N   N19       1.0  0.97360  0.90050  0.22411  1.0000
  N   N20       1.0  0.02640  0.09950  0.77589  1.0000
  C   C17       1.0  0.97490  0.23530  0.25270  1.0000
  C   C18       1.0  0.02510  0.76470  0.74730  1.0000
  C   C19       1.0  0.98870  0.33410  0.23880  1.0000
  C   C20       1.0  0.01130  0.66590  0.76120  1.0000
  H   H1        1.0  0.97090  0.35690  0.20260  1.0000
  H   H2        1.0  0.02910  0.64310  0.79740  1.0000
  C   C21       1.0  0.02720  0.39680  0.27650  1.0000
  C   C22       1.0  0.97280  0.60320  0.72350  1.0000
  H   H3        1.0  0.03690  0.46220  0.26640  1.0000
  H   H4        1.0  0.96310  0.53780  0.73360  1.0000
  C   C23       1.0  0.05180  0.36400  0.32980  1.0000
  C   C24       1.0  0.94820  0.63600  0.67020  1.0000
  C   C25       1.0  0.03970  0.26980  0.34490  1.0000
  C   C26       1.0  0.96030  0.73020  0.65510  1.0000
  H   H5        1.0  0.05690  0.24870  0.38150  1.0000
  H   H6        1.0  0.94310  0.75130  0.61850  1.0000
  C   C27       1.0  0.00210  0.20460  0.30690  1.0000
  C   C28       1.0  0.99790  0.79540  0.69310  1.0000
  C   C29       1.0  0.98300  0.10740  0.32650  1.0000
  C   C30       1.0  0.01700  0.89260  0.67350  1.0000
  H   H7        1.0  0.99390  0.09370  0.36450  1.0000
  H   H8        1.0  0.00610  0.90630  0.63550  1.0000
  C   C31       1.0  0.92910  0.94130  0.31790  1.0000
  C   C32       1.0  0.07090  0.05870  0.68210  1.0000
  H   H9        1.0  0.83910  0.93320  0.31180  1.0000
  H   H10       1.0  0.16090  0.06680  0.68820  1.0000
  C   C33       1.0  0.95370  0.92280  0.37760  1.0000
  C   C34       1.0  0.04630  0.07720  0.62240  1.0000
  H   H11       1.0  0.89580  0.96690  0.39980  1.0000
  H   H12       1.0  0.10420  0.03310  0.60020  1.0000
  H   H13       1.0  0.04010  0.93610  0.38580  1.0000
  H   H14       1.0  0.95990  0.06390  0.61420  1.0000
  C   C35       1.0  0.93580  0.81720  0.39260  1.0000
  C   C36       1.0  0.06420  0.18280  0.60740  1.0000
  H   H15       1.0  0.95930  0.80440  0.43120  1.0000
  H   H16       1.0  0.04070  0.19560  0.56880  1.0000
  H   H17       1.0  0.84670  0.80680  0.38910  1.0000
  H   H18       1.0  0.15330  0.19320  0.61090  1.0000
  C   C37       1.0  0.01280  0.74730  0.35660  1.0000
  C   C38       1.0  0.98720  0.25270  0.64340  1.0000
  H   H19       1.0  0.99600  0.68030  0.36670  1.0000
  H   H20       1.0  0.00400  0.31970  0.63330  1.0000
  H   H21       1.0  0.10230  0.75320  0.36290  1.0000
  H   H22       1.0  0.89770  0.24680  0.63710  1.0000
  C   C39       1.0  0.98500  0.76550  0.29620  1.0000
  C   C40       1.0  0.01500  0.23450  0.70380  1.0000
  H   H23       1.0  0.89760  0.75370  0.28900  1.0000
  H   H24       1.0  0.10240  0.24630  0.71100  1.0000
  H   H25       1.0  0.04070  0.72030  0.27370  1.0000
  H   H26       1.0  0.95930  0.27970  0.72630  1.0000
  C   C41       1.0  0.00550  0.87010  0.28110  1.0000
  C   C42       1.0  0.99450  0.12990  0.71890  1.0000
  H   H27       1.0  0.09560  0.87840  0.28650  1.0000
  H   H28       1.0  0.90440  0.12160  0.71350  1.0000
  C   C43       1.0  0.96250  0.83950  0.18560  1.0000
  C   C44       1.0  0.03750  0.16050  0.81440  1.0000
  H   H29       1.0  0.97130  0.77250  0.19530  1.0000
  H   H30       1.0  0.02870  0.22750  0.80470  1.0000
  C   C45       1.0  0.93830  0.86350  0.12960  1.0000
  C   C46       1.0  0.06170  0.13650  0.87040  1.0000
  C   C47       1.0  0.92880  0.78620  0.09320  1.0000
  C   C48       1.0  0.07120  0.21380  0.90680  1.0000
  H   H31       1.0  0.93440  0.72120  0.10660  1.0000
  H   H32       1.0  0.06560  0.27880  0.89340  1.0000
  C   C49       1.0  0.91170  0.80540  0.03900  1.0000
  C   C50       1.0  0.08830  0.19460  0.96100  1.0000
  C   C51       1.0  0.89830  0.90010  0.01880  1.0000
  C   C52       1.0  0.10170  0.09990  0.98120  1.0000
  H   H33       1.0  0.88340  0.91210  0.98100  1.0000
  H   H34       1.0  0.11660  0.08790  0.01900  1.0000
  C   C53       1.0  0.90650  0.97610  0.05340  1.0000
  C   C54       1.0  0.09350  0.02390  0.94660  1.0000
  H   H35       1.0  0.89630  0.04060  0.03920  1.0000
  H   H36       1.0  0.10370  0.95940  0.96080  1.0000
  C   C55       1.0  0.92960  0.96070  0.10930  1.0000
  C   C56       1.0  0.07040  0.03930  0.89070  1.0000
  Br  Br1       1.0  0.09938  0.45340  0.38204  1.0000
  Br  Br2       1.0  0.90062  0.54660  0.61796  1.0000
  Br  Br3       1.0  0.90250  0.70239  0.98917  1.0000
  Br  Br4       1.0  0.09750  0.29761  0.01083  1.0000
