data_image0
_chemical_formula_structural       Mo2C2N2C2N2C2N2C2N2C2N2C2N2C2N2C2N2Mn2O4N4C4H2C2H2C4H2C4H2C2H2C2H4C2H4C2H4C2H4C2H2C2H2C4H2C4H2C2H2C2Br4
_chemical_formula_sum              "Mo2 C56 N20 Mn2 O4 H36 Br4"
_cell_length_a       10.7993
_cell_length_b       14.0068
_cell_length_c       24.4363
_cell_angle_alpha    90
_cell_angle_beta     90
_cell_angle_gamma    94.227

_space_group_name_H-M_alt    "P 1"
_space_group_IT_number       1

loop_
  _space_group_symop_operation_xyz
  'x, y, z'

loop_
  _atom_site_type_symbol
  _atom_site_label
  _atom_site_symmetry_multiplicity
  _atom_site_fract_x
  _atom_site_fract_y
  _atom_site_fract_z
  _atom_site_occupancy
  Mo  Mo1       1.0  0.05676  0.95882  0.25305  1.0000
  Mo  Mo2       1.0  0.94324  0.04118  0.74695  1.0000
  C   C1        1.0  0.24510  0.01130  0.23250  1.0000
  C   C2        1.0  0.75490  0.98870  0.76750  1.0000
  N   N1        1.0  0.34510  0.03910  0.22210  1.0000
  N   N2        1.0  0.65490  0.96090  0.77790  1.0000
  C   C3        1.0  0.95400  0.98450  0.32750  1.0000
  C   C4        1.0  0.04600  0.01550  0.67250  1.0000
  N   N3        1.0  0.90170  0.00000  0.36670  1.0000
  N   N4        1.0  0.09830  0.00000  0.63330  1.0000
  C   C5        1.0  0.07170  0.11360  0.26020  1.0000
  C   C6        1.0  0.92830  0.88640  0.73980  1.0000
  N   N5        1.0  0.07490  0.19410  0.26270  1.0000
  N   N6        1.0  0.92510  0.80590  0.73730  1.0000
  C   C7        1.0  0.16770  0.92960  0.32590  1.0000
  C   C8        1.0  0.83230  0.07040  0.67410  1.0000
  N   N7        1.0  0.22620  0.91520  0.36290  1.0000
  N   N8        1.0  0.77380  0.08480  0.63710  1.0000
  C   C9        1.0  0.15710  0.83790  0.22750  1.0000
  C   C10       1.0  0.84290  0.16210  0.77250  1.0000
  N   N9        1.0  0.21030  0.77270  0.21540  1.0000
  N   N10       1.0  0.78970  0.22730  0.78460  1.0000
  C   C11       1.0  0.05650  0.97760  0.16350  1.0000
  C   C12       1.0  0.94350  0.02240  0.83650  1.0000
  N   N11       1.0  0.05980  0.98740  0.11910  1.0000
  N   N12       1.0  0.94020  0.01260  0.88090  1.0000
  C   C13       1.0  0.93730  0.83070  0.25970  1.0000
  C   C14       1.0  0.06270  0.16930  0.74030  1.0000
  N   N13       1.0  0.87240  0.76050  0.26510  1.0000
  N   N14       1.0  0.12760  0.23950  0.73490  1.0000
  C   C15       1.0  0.87280  0.99960  0.23050  1.0000
  C   C16       1.0  0.12720  0.00040  0.76950  1.0000
  N   N15       1.0  0.77310  0.01990  0.21990  1.0000
  N   N16       1.0  0.22690  0.98010  0.78010  1.0000
  Mn  Mn1       1.0  0.56031  0.03977  0.21504  1.0000
  Mn  Mn2       1.0  0.43969  0.96023  0.78496  1.0000
  O   O1        1.0  0.57550  0.17470  0.21400  1.0000
  O   O2        1.0  0.42450  0.82530  0.78600  1.0000
  O   O3        1.0  0.56110  0.02980  0.13910  1.0000
  O   O4        1.0  0.43890  0.97020  0.86090  1.0000
  N   N17       1.0  0.56070  0.04170  0.29400  1.0000
  N   N18       1.0  0.43930  0.95830  0.70600  1.0000
  N   N19       1.0  0.53920  0.89810  0.22590  1.0000
  N   N20       1.0  0.46080  0.10190  0.77410  1.0000
  C   C17       1.0  0.53060  0.23050  0.25150  1.0000
  C   C18       1.0  0.46940  0.76950  0.74850  1.0000
  C   C19       1.0  0.51500  0.32590  0.23400  1.0000
  C   C20       1.0  0.48500  0.67410  0.76600  1.0000
  H   H1        1.0  0.53300  0.34510  0.19740  1.0000
  H   H2        1.0  0.46700  0.65490  0.80260  1.0000
  C   C21       1.0  0.47240  0.39080  0.27200  1.0000
  C   C22       1.0  0.52760  0.60920  0.72800  1.0000
  H   H3        1.0  0.46010  0.45460  0.26120  1.0000
  H   H4        1.0  0.53990  0.54540  0.73880  1.0000
  C   C23       1.0  0.44830  0.36210  0.32530  1.0000
  C   C24       1.0  0.55170  0.63790  0.67470  1.0000
  C   C25       1.0  0.46430  0.27140  0.34280  1.0000
  C   C26       1.0  0.53570  0.72860  0.65720  1.0000
  H   H5        1.0  0.44800  0.25370  0.37980  1.0000
  H   H6        1.0  0.55200  0.74630  0.62020  1.0000
  C   C27       1.0  0.50570  0.20380  0.30480  1.0000
  C   C28       1.0  0.49430  0.79620  0.69520  1.0000
  C   C29       1.0  0.52600  0.10830  0.32600  1.0000
  C   C30       1.0  0.47400  0.89170  0.67400  1.0000
  H   H7        1.0  0.51360  0.09510  0.36380  1.0000
  H   H8        1.0  0.48640  0.90490  0.63620  1.0000
  C   C31       1.0  0.58600  0.94620  0.31940  1.0000
  C   C32       1.0  0.41400  0.05380  0.68060  1.0000
  H   H9        1.0  0.67590  0.93690  0.31310  1.0000
  H   H10       1.0  0.32410  0.06310  0.68690  1.0000
  C   C33       1.0  0.56250  0.93140  0.37800  1.0000
  C   C34       1.0  0.43750  0.06860  0.62200  1.0000
  H   H11       1.0  0.47620  0.94560  0.38660  1.0000
  H   H12       1.0  0.52380  0.05440  0.61340  1.0000
  H   H13       1.0  0.61930  0.97570  0.39950  1.0000
  H   H14       1.0  0.38070  0.02430  0.60050  1.0000
  C   C35       1.0  0.58260  0.82660  0.39410  1.0000
  C   C36       1.0  0.41740  0.17340  0.60590  1.0000
  H   H15       1.0  0.67160  0.81560  0.39000  1.0000
  H   H16       1.0  0.32840  0.18440  0.61000  1.0000
  H   H17       1.0  0.56020  0.81660  0.43310  1.0000
  H   H18       1.0  0.43980  0.18340  0.56690  1.0000
  C   C37       1.0  0.50570  0.75410  0.35930  1.0000
  C   C38       1.0  0.49430  0.24590  0.64070  1.0000
  H   H19       1.0  0.41620  0.76030  0.36600  1.0000
  H   H20       1.0  0.58380  0.23970  0.63400  1.0000
  H   H21       1.0  0.52490  0.68850  0.36960  1.0000
  H   H22       1.0  0.47510  0.31150  0.63040  1.0000
  C   C39       1.0  0.53460  0.77120  0.29890  1.0000
  C   C40       1.0  0.46540  0.22880  0.70110  1.0000
  H   H23       1.0  0.62270  0.76040  0.29180  1.0000
  H   H24       1.0  0.37730  0.23960  0.70820  1.0000
  H   H25       1.0  0.48250  0.72510  0.27650  1.0000
  H   H26       1.0  0.51750  0.27490  0.72350  1.0000
  C   C41       1.0  0.51010  0.87190  0.28260  1.0000
  C   C42       1.0  0.48990  0.12810  0.71740  1.0000
  H   H27       1.0  0.42000  0.88000  0.28870  1.0000
  H   H28       1.0  0.58000  0.12000  0.71130  1.0000
  C   C43       1.0  0.54470  0.83550  0.18680  1.0000
  C   C44       1.0  0.45530  0.16450  0.81320  1.0000
  H   H29       1.0  0.53540  0.76980  0.19670  1.0000
  H   H30       1.0  0.46460  0.23020  0.80330  1.0000
  C   C45       1.0  0.56390  0.85830  0.12980  1.0000
  C   C46       1.0  0.43610  0.14170  0.87020  1.0000
  C   C47       1.0  0.57200  0.77750  0.09350  1.0000
  C   C48       1.0  0.42800  0.22250  0.90650  1.0000
  H   H31       1.0  0.56970  0.71430  0.10770  1.0000
  H   H32       1.0  0.43030  0.28570  0.89230  1.0000
  C   C49       1.0  0.58260  0.79300  0.03980  1.0000
  C   C50       1.0  0.41740  0.20700  0.96020  1.0000
  C   C51       1.0  0.59450  0.88850  0.01680  1.0000
  C   C52       1.0  0.40550  0.11150  0.98320  1.0000
  H   H33       1.0  0.60590  0.89880  0.97860  1.0000
  H   H34       1.0  0.39410  0.10120  0.02140  1.0000
  C   C53       1.0  0.58850  0.96420  0.05280  1.0000
  C   C54       1.0  0.41150  0.03580  0.94720  1.0000
  H   H35       1.0  0.59630  0.02750  0.03870  1.0000
  H   H36       1.0  0.40370  0.97250  0.96130  1.0000
  C   C55       1.0  0.57160  0.95160  0.10900  1.0000
  C   C56       1.0  0.42840  0.04840  0.89100  1.0000
  Br  Br1       1.0  0.39816  0.45756  0.37525  1.0000
  Br  Br2       1.0  0.60184  0.54244  0.62475  1.0000
  Br  Br3       1.0  0.59254  0.69019  0.98992  1.0000
  Br  Br4       1.0  0.40746  0.30981  0.01008  1.0000
