data_image0
_chemical_formula_structural       C32Cu24N32S4
_chemical_formula_sum              "C32 Cu24 N32 S4"
_cell_length_a       13.5915
_cell_length_b       13.8687
_cell_length_c       21.2892
_cell_angle_alpha    90
_cell_angle_beta     90
_cell_angle_gamma    90

_space_group_name_H-M_alt    "P 1"
_space_group_IT_number       1

loop_
  _space_group_symop_operation_xyz
  'x, y, z'

loop_
  _atom_site_type_symbol
  _atom_site_label
  _atom_site_symmetry_multiplicity
  _atom_site_fract_x
  _atom_site_fract_y
  _atom_site_fract_z
  _atom_site_occupancy
  C   C1        1.0  0.37200  0.73360  0.28640  1.0000
  C   C2        1.0  0.12800  0.26640  0.78640  1.0000
  C   C3        1.0  0.62800  0.23360  0.21360  1.0000
  C   C4        1.0  0.87200  0.76640  0.71360  1.0000
  C   C5        1.0  0.57040  0.57220  0.17400  1.0000
  C   C6        1.0  0.92960  0.42780  0.67400  1.0000
  C   C7        1.0  0.42960  0.07220  0.32600  1.0000
  C   C8        1.0  0.07040  0.92780  0.82600  1.0000
  C   C9        1.0  0.71710  0.02900  0.27140  1.0000
  C   C10       1.0  0.78290  0.97100  0.77140  1.0000
  C   C11       1.0  0.28290  0.52900  0.22860  1.0000
  C   C12       1.0  0.21710  0.47100  0.72860  1.0000
  C   C13       1.0  0.88040  0.71700  0.18410  1.0000
  C   C14       1.0  0.61960  0.28300  0.68410  1.0000
  C   C15       1.0  0.11960  0.21700  0.31590  1.0000
  C   C16       1.0  0.38040  0.78300  0.81590  1.0000
  C   C17       1.0  0.85830  0.60610  0.03280  1.0000
  C   C18       1.0  0.64170  0.39390  0.53280  1.0000
  C   C19       1.0  0.14170  0.10610  0.46720  1.0000
  C   C20       1.0  0.35830  0.89390  0.96720  1.0000
  C   C21       1.0  0.73950  0.50100  0.27510  1.0000
  C   C22       1.0  0.76050  0.49900  0.77510  1.0000
  C   C23       1.0  0.26050  0.00100  0.22490  1.0000
  C   C24       1.0  0.23950  0.99900  0.72490  1.0000
  C   C25       1.0  0.71500  0.40960  0.96860  1.0000
  C   C26       1.0  0.78500  0.59040  0.46860  1.0000
  C   C27       1.0  0.28500  0.90960  0.53140  1.0000
  C   C28       1.0  0.21500  0.09040  0.03140  1.0000
  C   C29       1.0  0.90830  0.45540  0.17480  1.0000
  C   C30       1.0  0.59170  0.54460  0.67480  1.0000
  C   C31       1.0  0.09170  0.95540  0.32520  1.0000
  C   C32       1.0  0.40830  0.04460  0.82520  1.0000
  Cu  Cu1       1.0  0.38201  0.61956  0.23999  1.0000
  Cu  Cu2       1.0  0.11799  0.38044  0.73999  1.0000
  Cu  Cu3       1.0  0.61799  0.11956  0.26001  1.0000
  Cu  Cu4       1.0  0.88201  0.88044  0.76001  1.0000
  Cu  Cu5       1.0  0.89271  0.88982  0.27451  1.0000
  Cu  Cu6       1.0  0.60729  0.11018  0.77451  1.0000
  Cu  Cu7       1.0  0.10729  0.38982  0.22549  1.0000
  Cu  Cu8       1.0  0.39271  0.61018  0.72549  1.0000
  Cu  Cu9       1.0  0.86869  0.63780  0.11647  1.0000
  Cu  Cu10      1.0  0.63131  0.36220  0.61647  1.0000
  Cu  Cu11      1.0  0.13131  0.13780  0.38353  1.0000
  Cu  Cu12      1.0  0.36869  0.86220  0.88353  1.0000
  Cu  Cu13      1.0  0.78208  0.50211  0.91833  1.0000
  Cu  Cu14      1.0  0.71792  0.49789  0.41833  1.0000
  Cu  Cu15      1.0  0.21792  0.00211  0.58167  1.0000
  Cu  Cu16      1.0  0.28208  0.99789  0.08167  1.0000
  Cu  Cu17      1.0  0.77513  0.49969  0.19158  1.0000
  Cu  Cu18      1.0  0.72487  0.50031  0.69158  1.0000
  Cu  Cu19      1.0  0.22487  0.99969  0.30842  1.0000
  Cu  Cu20      1.0  0.27513  0.00031  0.80842  1.0000
  Cu  Cu21      1.0  0.66751  0.37074  0.10681  1.0000
  Cu  Cu22      1.0  0.83249  0.62926  0.60681  1.0000
  Cu  Cu23      1.0  0.33249  0.87074  0.39319  1.0000
  Cu  Cu24      1.0  0.16751  0.12926  0.89319  1.0000
  N   N1        1.0  0.35800  0.79110  0.32320  1.0000
  N   N2        1.0  0.14200  0.20890  0.82320  1.0000
  N   N3        1.0  0.64200  0.29110  0.17680  1.0000
  N   N4        1.0  0.85800  0.70890  0.67680  1.0000
  N   N5        1.0  0.50410  0.59370  0.20150  1.0000
  N   N6        1.0  0.99590  0.40630  0.70150  1.0000
  N   N7        1.0  0.49590  0.09370  0.29850  1.0000
  N   N8        1.0  0.00410  0.90630  0.79850  1.0000
  N   N9        1.0  0.78050  0.97900  0.27520  1.0000
  N   N10       1.0  0.71950  0.02100  0.77520  1.0000
  N   N11       1.0  0.21950  0.47900  0.22480  1.0000
  N   N12       1.0  0.28050  0.52100  0.72480  1.0000
  N   N13       1.0  0.88760  0.78000  0.22250  1.0000
  N   N14       1.0  0.61240  0.22000  0.72250  1.0000
  N   N15       1.0  0.11240  0.28000  0.27750  1.0000
  N   N16       1.0  0.38760  0.72000  0.77750  1.0000
  N   N17       1.0  0.84390  0.57760  0.98190  1.0000
  N   N18       1.0  0.65610  0.42240  0.48190  1.0000
  N   N19       1.0  0.15610  0.07760  0.51810  1.0000
  N   N20       1.0  0.34390  0.92240  0.01810  1.0000
  N   N21       1.0  0.73020  0.49900  0.32840  1.0000
  N   N22       1.0  0.76980  0.50100  0.82840  1.0000
  N   N23       1.0  0.26980  0.99900  0.17160  1.0000
  N   N24       1.0  0.23020  0.00100  0.67160  1.0000
  N   N25       1.0  0.69620  0.38800  0.01880  1.0000
  N   N26       1.0  0.80380  0.61200  0.51880  1.0000
  N   N27       1.0  0.30380  0.88800  0.48120  1.0000
  N   N28       1.0  0.19620  0.11200  0.98120  1.0000
  N   N29       1.0  0.98530  0.42450  0.18060  1.0000
  N   N30       1.0  0.51470  0.57550  0.68060  1.0000
  N   N31       1.0  0.01470  0.92450  0.31940  1.0000
  N   N32       1.0  0.48530  0.07550  0.81940  1.0000
  S   S1        1.0  0.66420  0.55370  0.12410  1.0000
  S   S2        1.0  0.83580  0.44630  0.62410  1.0000
  S   S3        1.0  0.33580  0.05370  0.37590  1.0000
  S   S4        1.0  0.16420  0.94630  0.87590  1.0000
