data_image0
_chemical_formula_structural       Tb4O36H8O4H8O4H8O4H8O4H8C16H4C8H4C16
_chemical_formula_sum              "Tb4 O52 H48 C40"
_cell_length_a       13.0587
_cell_length_b       11.2253
_cell_length_c       17.2297
_cell_angle_alpha    90
_cell_angle_beta     120.987
_cell_angle_gamma    90

_space_group_name_H-M_alt    "P 1"
_space_group_IT_number       1

loop_
  _space_group_symop_operation_xyz
  'x, y, z'

loop_
  _atom_site_type_symbol
  _atom_site_label
  _atom_site_symmetry_multiplicity
  _atom_site_fract_x
  _atom_site_fract_y
  _atom_site_fract_z
  _atom_site_occupancy
  Tb  Tb1       1.0  0.24385  0.88109  0.75146  1.0000
  Tb  Tb2       1.0  0.75615  0.38109  0.74854  1.0000
  Tb  Tb3       1.0  0.75615  0.11891  0.24854  1.0000
  Tb  Tb4       1.0  0.24385  0.61891  0.25146  1.0000
  O   O1        1.0  0.38090  0.71313  0.81110  1.0000
  O   O2        1.0  0.61910  0.21313  0.68890  1.0000
  O   O3        1.0  0.61910  0.28687  0.18890  1.0000
  O   O4        1.0  0.38090  0.78687  0.31110  1.0000
  O   O5        1.0  0.29161  0.74940  0.88686  1.0000
  O   O6        1.0  0.70839  0.24940  0.61314  1.0000
  O   O7        1.0  0.70839  0.25060  0.11314  1.0000
  O   O8        1.0  0.29161  0.75060  0.38686  1.0000
  O   O9        1.0  0.52740  0.82473  0.03809  1.0000
  O   O10       1.0  0.47260  0.32473  0.46191  1.0000
  O   O11       1.0  0.47260  0.17527  0.96191  1.0000
  O   O12       1.0  0.52740  0.67527  0.53809  1.0000
  O   O13       1.0  0.55610  0.73830  0.16102  1.0000
  O   O14       1.0  0.44390  0.23830  0.33898  1.0000
  O   O15       1.0  0.44390  0.26170  0.83898  1.0000
  O   O16       1.0  0.55610  0.76170  0.66102  1.0000
  O   O17       1.0  0.20209  0.75268  0.61745  1.0000
  O   O18       1.0  0.79791  0.25268  0.88255  1.0000
  O   O19       1.0  0.79791  0.24732  0.38255  1.0000
  O   O20       1.0  0.20209  0.74732  0.11745  1.0000
  O   O21       1.0  0.10947  0.71120  0.68970  1.0000
  O   O22       1.0  0.89053  0.21120  0.81030  1.0000
  O   O23       1.0  0.89053  0.28880  0.31030  1.0000
  O   O24       1.0  0.10947  0.78880  0.18970  1.0000
  O   O25       1.0  0.96516  0.82365  0.46192  1.0000
  O   O26       1.0  0.03484  0.32365  0.03808  1.0000
  O   O27       1.0  0.03484  0.17635  0.53808  1.0000
  O   O28       1.0  0.96516  0.67635  0.96192  1.0000
  O   O29       1.0  0.96480  0.74203  0.34481  1.0000
  O   O30       1.0  0.03520  0.24203  0.15519  1.0000
  O   O31       1.0  0.03520  0.25797  0.65519  1.0000
  O   O32       1.0  0.96480  0.75797  0.84481  1.0000
  O   O33       1.0  0.38160  0.92730  0.70298  1.0000
  O   O34       1.0  0.61840  0.42730  0.79702  1.0000
  O   O35       1.0  0.61840  0.07270  0.29702  1.0000
  O   O36       1.0  0.38160  0.57270  0.20298  1.0000
  H   H1        1.0  0.42940  0.97730  0.73710  1.0000
  H   H2        1.0  0.57060  0.47730  0.76290  1.0000
  H   H3        1.0  0.57060  0.02270  0.26290  1.0000
  H   H4        1.0  0.42940  0.52270  0.23710  1.0000
  H   H5        1.0  0.44460  0.89560  0.75950  1.0000
  H   H6        1.0  0.55540  0.39560  0.74050  1.0000
  H   H7        1.0  0.55540  0.10440  0.24050  1.0000
  H   H8        1.0  0.44460  0.60440  0.25950  1.0000
  O   O37       1.0  0.40880  0.95955  0.88479  1.0000
  O   O38       1.0  0.59120  0.45955  0.61521  1.0000
  O   O39       1.0  0.59120  0.04045  0.11521  1.0000
  O   O40       1.0  0.40880  0.54045  0.38479  1.0000
  H   H9        1.0  0.39980  0.03130  0.88780  1.0000
  H   H10       1.0  0.60020  0.53130  0.61220  1.0000
  H   H11       1.0  0.60020  0.96870  0.11220  1.0000
  H   H12       1.0  0.39980  0.46870  0.38780  1.0000
  H   H13       1.0  0.45200  0.92070  0.91040  1.0000
  H   H14       1.0  0.54800  0.42070  0.58960  1.0000
  H   H15       1.0  0.54800  0.07930  0.08960  1.0000
  H   H16       1.0  0.45200  0.57930  0.41040  1.0000
  O   O41       1.0  0.10737  0.91577  0.80248  1.0000
  O   O42       1.0  0.89263  0.41577  0.69752  1.0000
  O   O43       1.0  0.89263  0.08423  0.19752  1.0000
  O   O44       1.0  0.10737  0.58423  0.30248  1.0000
  H   H17       1.0  0.05490  0.96170  0.76760  1.0000
  H   H18       1.0  0.94510  0.46170  0.73240  1.0000
  H   H19       1.0  0.94510  0.03830  0.23240  1.0000
  H   H20       1.0  0.05490  0.53830  0.26760  1.0000
  H   H21       1.0  0.04780  0.88430  0.79470  1.0000
  H   H22       1.0  0.95220  0.38430  0.70530  1.0000
  H   H23       1.0  0.95220  0.11570  0.20530  1.0000
  H   H24       1.0  0.04780  0.61570  0.29470  1.0000
  O   O45       1.0  0.23703  0.10100  0.75187  1.0000
  O   O46       1.0  0.76297  0.60100  0.74813  1.0000
  O   O47       1.0  0.76297  0.89900  0.24813  1.0000
  O   O48       1.0  0.23703  0.39900  0.25187  1.0000
  H   H25       1.0  0.16810  0.12370  0.71860  1.0000
  H   H26       1.0  0.83190  0.62370  0.78140  1.0000
  H   H27       1.0  0.83190  0.87630  0.28140  1.0000
  H   H28       1.0  0.16810  0.37630  0.21860  1.0000
  H   H29       1.0  0.29280  0.14320  0.78810  1.0000
  H   H30       1.0  0.70720  0.64320  0.71190  1.0000
  H   H31       1.0  0.70720  0.85680  0.21190  1.0000
  H   H32       1.0  0.29280  0.35680  0.28810  1.0000
  O   O49       1.0  0.07830  0.95746  0.61474  1.0000
  O   O50       1.0  0.92170  0.45746  0.88526  1.0000
  O   O51       1.0  0.92170  0.04254  0.38526  1.0000
  O   O52       1.0  0.07830  0.54254  0.11474  1.0000
  H   H33       1.0  0.09060  0.02740  0.60850  1.0000
  H   H34       1.0  0.90940  0.52740  0.89150  1.0000
  H   H35       1.0  0.90940  0.97260  0.39150  1.0000
  H   H36       1.0  0.09060  0.47260  0.10850  1.0000
  H   H37       1.0  0.02210  0.97330  0.62470  1.0000
  H   H38       1.0  0.97790  0.47330  0.87530  1.0000
  H   H39       1.0  0.97790  0.02670  0.37530  1.0000
  H   H40       1.0  0.02210  0.52670  0.12470  1.0000
  C   C1        1.0  0.53010  0.73520  0.08110  1.0000
  C   C2        1.0  0.46990  0.23520  0.41890  1.0000
  C   C3        1.0  0.46990  0.26480  0.91890  1.0000
  C   C4        1.0  0.53010  0.76480  0.58110  1.0000
  C   C5        1.0  0.50930  0.61420  0.03671  1.0000
  C   C6        1.0  0.49070  0.11420  0.46329  1.0000
  C   C7        1.0  0.49070  0.38580  0.96329  1.0000
  C   C8        1.0  0.50930  0.88580  0.53671  1.0000
  C   C9        1.0  0.44060  0.59610  0.94309  1.0000
  C   C10       1.0  0.55940  0.09610  0.55691  1.0000
  C   C11       1.0  0.55940  0.40390  0.05691  1.0000
  C   C12       1.0  0.44060  0.90390  0.44309  1.0000
  C   C13       1.0  0.43240  0.48310  0.90794  1.0000
  C   C14       1.0  0.56760  0.98310  0.59206  1.0000
  C   C15       1.0  0.56760  0.51690  0.09206  1.0000
  C   C16       1.0  0.43240  0.01690  0.40794  1.0000
  H   H41       1.0  0.38660  0.47200  0.84560  1.0000
  H   H42       1.0  0.61340  0.97200  0.65440  1.0000
  H   H43       1.0  0.61340  0.52800  0.15440  1.0000
  H   H44       1.0  0.38660  0.02800  0.34560  1.0000
  C   C17       1.0  0.36770  0.69290  0.87735  1.0000
  C   C18       1.0  0.63230  0.19290  0.62265  1.0000
  C   C19       1.0  0.63230  0.30710  0.12265  1.0000
  C   C20       1.0  0.36770  0.80710  0.37735  1.0000
  C   C21       1.0  0.06190  0.48250  0.59195  1.0000
  C   C22       1.0  0.93810  0.98250  0.90805  1.0000
  C   C23       1.0  0.93810  0.51750  0.40805  1.0000
  C   C24       1.0  0.06190  0.01750  0.09195  1.0000
  H   H45       1.0  0.10400  0.47110  0.65430  1.0000
  H   H46       1.0  0.89600  0.97110  0.84570  1.0000
  H   H47       1.0  0.89600  0.52890  0.34570  1.0000
  H   H48       1.0  0.10400  0.02890  0.15430  1.0000
  C   C25       1.0  0.05670  0.59610  0.55791  1.0000
  C   C26       1.0  0.94330  0.09610  0.94209  1.0000
  C   C27       1.0  0.94330  0.40390  0.44209  1.0000
  C   C28       1.0  0.05670  0.90390  0.05791  1.0000
  C   C29       1.0  0.99400  0.61440  0.46446  1.0000
  C   C30       1.0  0.00600  0.11440  0.03554  1.0000
  C   C31       1.0  0.00600  0.38560  0.53554  1.0000
  C   C32       1.0  0.99400  0.88560  0.96446  1.0000
  C   C33       1.0  0.97530  0.73630  0.42132  1.0000
  C   C34       1.0  0.02470  0.23630  0.07868  1.0000
  C   C35       1.0  0.02470  0.26370  0.57868  1.0000
  C   C36       1.0  0.97530  0.76370  0.92132  1.0000
  C   C37       1.0  0.12610  0.69330  0.62458  1.0000
  C   C38       1.0  0.87390  0.19330  0.87542  1.0000
  C   C39       1.0  0.87390  0.30670  0.37542  1.0000
  C   C40       1.0  0.12610  0.80670  0.12458  1.0000
