data_image0
_chemical_formula_structural       C4Cd4Cl4O4C4Cd4Cl4O4C4H4O4C4H4O4C4O4C4O4C4H4O4C4O4C4O4C4H4O4C4H4O4C4O4C8H4C12H4C4H4C12H4C12H4C12H4C4H4C12H4C12H4C4H4C12H4C12H4C4H4
_chemical_formula_sum              "C168 Cd8 Cl8 O48 H72"
_cell_length_a       22.4759
_cell_length_b       14.1031
_cell_length_c       21.9032
_cell_angle_alpha    90
_cell_angle_beta     108.752
_cell_angle_gamma    90

_space_group_name_H-M_alt    "P 1"
_space_group_IT_number       1

loop_
  _space_group_symop_operation_xyz
  'x, y, z'

loop_
  _atom_site_type_symbol
  _atom_site_label
  _atom_site_symmetry_multiplicity
  _atom_site_fract_x
  _atom_site_fract_y
  _atom_site_fract_z
  _atom_site_occupancy
  C   C1        1.0  0.19360  0.79490  0.12360  1.0000
  C   C2        1.0  0.80640  0.79490  0.37640  1.0000
  C   C3        1.0  0.80640  0.20510  0.87640  1.0000
  C   C4        1.0  0.19360  0.20510  0.62360  1.0000
  Cd  Cd1       1.0  0.31021  0.77450  0.20763  1.0000
  Cd  Cd2       1.0  0.68979  0.77450  0.29237  1.0000
  Cd  Cd3       1.0  0.68979  0.22550  0.79237  1.0000
  Cd  Cd4       1.0  0.31021  0.22550  0.70763  1.0000
  Cl  Cl1       1.0  0.34821  0.78737  0.32683  1.0000
  Cl  Cl2       1.0  0.65179  0.78737  0.17317  1.0000
  Cl  Cl3       1.0  0.65179  0.21263  0.67317  1.0000
  Cl  Cl4       1.0  0.34821  0.21263  0.82683  1.0000
  O   O1        1.0  0.20480  0.80910  0.18228  1.0000
  O   O2        1.0  0.79520  0.80910  0.31772  1.0000
  O   O3        1.0  0.79520  0.19090  0.81772  1.0000
  O   O4        1.0  0.20480  0.19090  0.68228  1.0000
  C   C5        1.0  0.12680  0.80730  0.08010  1.0000
  C   C6        1.0  0.87320  0.80730  0.41990  1.0000
  C   C7        1.0  0.87320  0.19270  0.91990  1.0000
  C   C8        1.0  0.12680  0.19270  0.58010  1.0000
  Cd  Cd5       1.0  0.80003  0.28936  0.17499  1.0000
  Cd  Cd6       1.0  0.19997  0.28936  0.32501  1.0000
  Cd  Cd7       1.0  0.19997  0.71064  0.82501  1.0000
  Cd  Cd8       1.0  0.80003  0.71064  0.67499  1.0000
  Cl  Cl5       1.0  0.84589  0.42847  0.12080  1.0000
  Cl  Cl6       1.0  0.15411  0.42847  0.37920  1.0000
  Cl  Cl7       1.0  0.15411  0.57153  0.87920  1.0000
  Cl  Cl8       1.0  0.84589  0.57153  0.62080  1.0000
  O   O5        1.0  0.23470  0.77070  0.09931  1.0000
  O   O6        1.0  0.76530  0.77070  0.40069  1.0000
  O   O7        1.0  0.76530  0.22930  0.90069  1.0000
  O   O8        1.0  0.23470  0.22930  0.59931  1.0000
  C   C9        1.0  0.10350  0.76190  0.02190  1.0000
  C   C10       1.0  0.89650  0.76190  0.47810  1.0000
  C   C11       1.0  0.89650  0.23810  0.97810  1.0000
  C   C12       1.0  0.10350  0.23810  0.52190  1.0000
  H   H1        1.0  0.12940  0.72270  0.00740  1.0000
  H   H2        1.0  0.87060  0.72270  0.49260  1.0000
  H   H3        1.0  0.87060  0.27730  0.99260  1.0000
  H   H4        1.0  0.12940  0.27730  0.50740  1.0000
  O   O9        1.0  0.89606  0.20550  0.18930  1.0000
  O   O10       1.0  0.10394  0.20550  0.31070  1.0000
  O   O11       1.0  0.10394  0.79450  0.81070  1.0000
  O   O12       1.0  0.89606  0.79450  0.68930  1.0000
  C   C13       1.0  0.04180  0.77420  0.98520  1.0000
  C   C14       1.0  0.95820  0.77420  0.51480  1.0000
  C   C15       1.0  0.95820  0.22580  0.01480  1.0000
  C   C16       1.0  0.04180  0.22580  0.48520  1.0000
  H   H5        1.0  0.02660  0.74160  0.94640  1.0000
  H   H6        1.0  0.97340  0.74160  0.55360  1.0000
  H   H7        1.0  0.97340  0.25840  0.05360  1.0000
  H   H8        1.0  0.02660  0.25840  0.44640  1.0000
  O   O13       1.0  0.81411  0.16000  0.11166  1.0000
  O   O14       1.0  0.18589  0.16000  0.38834  1.0000
  O   O15       1.0  0.18589  0.84000  0.88834  1.0000
  O   O16       1.0  0.81411  0.84000  0.61166  1.0000
  C   C17       1.0  0.00080  0.83390  0.00360  1.0000
  C   C18       1.0  0.99920  0.83390  0.49640  1.0000
  C   C19       1.0  0.99920  0.16610  0.99640  1.0000
  C   C20       1.0  0.00080  0.16610  0.50360  1.0000
  O   O17       1.0  0.78497  0.81380  0.75552  1.0000
  O   O18       1.0  0.21503  0.81380  0.74448  1.0000
  O   O19       1.0  0.21503  0.18620  0.24448  1.0000
  O   O20       1.0  0.78497  0.18620  0.25552  1.0000
  C   C21       1.0  0.93590  0.84960  0.96230  1.0000
  C   C22       1.0  0.06410  0.84960  0.53770  1.0000
  C   C23       1.0  0.06410  0.15040  0.03770  1.0000
  C   C24       1.0  0.93590  0.15040  0.46230  1.0000
  O   O21       1.0  0.84978  0.69330  0.79190  1.0000
  O   O22       1.0  0.15022  0.69330  0.70810  1.0000
  O   O23       1.0  0.15022  0.30670  0.20810  1.0000
  O   O24       1.0  0.84978  0.30670  0.29190  1.0000
  C   C25       1.0  0.90920  0.80070  0.90430  1.0000
  C   C26       1.0  0.09080  0.80070  0.59570  1.0000
  C   C27       1.0  0.09080  0.19930  0.09570  1.0000
  C   C28       1.0  0.90920  0.19930  0.40430  1.0000
  H   H9        1.0  0.93240  0.75360  0.89260  1.0000
  H   H10       1.0  0.06760  0.75360  0.60740  1.0000
  H   H11       1.0  0.06760  0.24640  0.10740  1.0000
  H   H12       1.0  0.93240  0.24640  0.39260  1.0000
  O   O25       1.0  0.36089  0.64870  0.18195  1.0000
  O   O26       1.0  0.63911  0.64870  0.31805  1.0000
  O   O27       1.0  0.63911  0.35130  0.81805  1.0000
  O   O28       1.0  0.36089  0.35130  0.68195  1.0000
  C   C29       1.0  0.85000  0.82060  0.86460  1.0000
  C   C30       1.0  0.15000  0.82060  0.63540  1.0000
  C   C31       1.0  0.15000  0.17940  0.13540  1.0000
  C   C32       1.0  0.85000  0.17940  0.36460  1.0000
  O   O29       1.0  0.27819  0.59530  0.20560  1.0000
  O   O30       1.0  0.72181  0.59530  0.29440  1.0000
  O   O31       1.0  0.72181  0.40470  0.79440  1.0000
  O   O32       1.0  0.27819  0.40470  0.70560  1.0000
  C   C33       1.0  0.82610  0.77160  0.79970  1.0000
  C   C34       1.0  0.17390  0.77160  0.70030  1.0000
  C   C35       1.0  0.17390  0.22840  0.20030  1.0000
  C   C36       1.0  0.82610  0.22840  0.29970  1.0000
  O   O33       1.0  0.71558  0.38530  0.17355  1.0000
  O   O34       1.0  0.28442  0.38530  0.32645  1.0000
  O   O35       1.0  0.28442  0.61470  0.82645  1.0000
  O   O36       1.0  0.71558  0.61470  0.67355  1.0000
  C   C37       1.0  0.81490  0.88990  0.88260  1.0000
  C   C38       1.0  0.18510  0.88990  0.61740  1.0000
  C   C39       1.0  0.18510  0.11010  0.11740  1.0000
  C   C40       1.0  0.81490  0.11010  0.38260  1.0000
  H   H13       1.0  0.77490  0.90480  0.85510  1.0000
  H   H14       1.0  0.22510  0.90480  0.64490  1.0000
  H   H15       1.0  0.22510  0.09520  0.14490  1.0000
  H   H16       1.0  0.77490  0.09520  0.35510  1.0000
  O   O37       1.0  0.68857  0.24860  0.12410  1.0000
  O   O38       1.0  0.31143  0.24860  0.37590  1.0000
  O   O39       1.0  0.31143  0.75140  0.87590  1.0000
  O   O40       1.0  0.68857  0.75140  0.62410  1.0000
  C   C41       1.0  0.83790  0.93540  0.93870  1.0000
  C   C42       1.0  0.16210  0.93540  0.56130  1.0000
  C   C43       1.0  0.16210  0.06460  0.06130  1.0000
  C   C44       1.0  0.83790  0.06460  0.43870  1.0000
  H   H17       1.0  0.81270  0.98040  0.94960  1.0000
  H   H18       1.0  0.18730  0.98040  0.55040  1.0000
  H   H19       1.0  0.18730  0.01960  0.05040  1.0000
  H   H20       1.0  0.81270  0.01960  0.44960  1.0000
  O   O41       1.0  0.38852  0.86380  0.18654  1.0000
  O   O42       1.0  0.61148  0.86380  0.31346  1.0000
  O   O43       1.0  0.61148  0.13620  0.81346  1.0000
  O   O44       1.0  0.38852  0.13620  0.68654  1.0000
  C   C45       1.0  0.89800  0.91850  0.98210  1.0000
  C   C46       1.0  0.10200  0.91850  0.51790  1.0000
  C   C47       1.0  0.10200  0.08150  0.01790  1.0000
  C   C48       1.0  0.89800  0.08150  0.48210  1.0000
  O   O45       1.0  0.31313  0.95960  0.19414  1.0000
  O   O46       1.0  0.68687  0.95960  0.30586  1.0000
  O   O47       1.0  0.68687  0.04040  0.80586  1.0000
  O   O48       1.0  0.31313  0.04040  0.69414  1.0000
  C   C49       1.0  0.92290  0.96850  0.04350  1.0000
  C   C50       1.0  0.07710  0.96850  0.45650  1.0000
  C   C51       1.0  0.07710  0.03150  0.95650  1.0000
  C   C52       1.0  0.92290  0.03150  0.54350  1.0000
  C   C53       1.0  0.88600  0.03240  0.06430  1.0000
  C   C54       1.0  0.11400  0.03240  0.43570  1.0000
  C   C55       1.0  0.11400  0.96760  0.93570  1.0000
  C   C56       1.0  0.88600  0.96760  0.56430  1.0000
  H   H21       1.0  0.84410  0.04090  0.03980  1.0000
  H   H22       1.0  0.15590  0.04090  0.46020  1.0000
  H   H23       1.0  0.15590  0.95910  0.96020  1.0000
  H   H24       1.0  0.84410  0.95910  0.53980  1.0000
  C   C57       1.0  0.91070  0.08310  0.12040  1.0000
  C   C58       1.0  0.08930  0.08310  0.37960  1.0000
  C   C59       1.0  0.08930  0.91690  0.87960  1.0000
  C   C60       1.0  0.91070  0.91690  0.62040  1.0000
  C   C61       1.0  0.87150  0.15400  0.14200  1.0000
  C   C62       1.0  0.12850  0.15400  0.35800  1.0000
  C   C63       1.0  0.12850  0.84600  0.85800  1.0000
  C   C64       1.0  0.87150  0.84600  0.64200  1.0000
  C   C65       1.0  0.97450  0.07270  0.15720  1.0000
  C   C66       1.0  0.02550  0.07270  0.34280  1.0000
  C   C67       1.0  0.02550  0.92730  0.84280  1.0000
  C   C68       1.0  0.97450  0.92730  0.65720  1.0000
  H   H25       1.0  0.99190  0.10950  0.19380  1.0000
  H   H26       1.0  0.00810  0.10950  0.30620  1.0000
  H   H27       1.0  0.00810  0.89050  0.80620  1.0000
  H   H28       1.0  0.99190  0.89050  0.69380  1.0000
  C   C69       1.0  0.01050  0.00810  0.13840  1.0000
  C   C70       1.0  0.98950  0.00810  0.36160  1.0000
  C   C71       1.0  0.98950  0.99190  0.86160  1.0000
  C   C72       1.0  0.01050  0.99190  0.63840  1.0000
  H   H29       1.0  0.05210  0.99970  0.16370  1.0000
  H   H30       1.0  0.94790  0.99970  0.33630  1.0000
  H   H31       1.0  0.94790  0.00030  0.83630  1.0000
  H   H32       1.0  0.05210  0.00030  0.66370  1.0000
  C   C73       1.0  0.98630  0.95410  0.08180  1.0000
  C   C74       1.0  0.01370  0.95410  0.41820  1.0000
  C   C75       1.0  0.01370  0.04590  0.91820  1.0000
  C   C76       1.0  0.98630  0.04590  0.58180  1.0000
  C   C77       1.0  0.02550  0.88460  0.06110  1.0000
  C   C78       1.0  0.97450  0.88460  0.43890  1.0000
  C   C79       1.0  0.97450  0.11540  0.93890  1.0000
  C   C80       1.0  0.02550  0.11540  0.56110  1.0000
  C   C81       1.0  0.08820  0.86850  0.10010  1.0000
  C   C82       1.0  0.91180  0.86850  0.39990  1.0000
  C   C83       1.0  0.91180  0.13150  0.89990  1.0000
  C   C84       1.0  0.08820  0.13150  0.60010  1.0000
  H   H33       1.0  0.10390  0.89910  0.13970  1.0000
  H   H34       1.0  0.89610  0.89910  0.36030  1.0000
  H   H35       1.0  0.89610  0.10090  0.86030  1.0000
  H   H36       1.0  0.10390  0.10090  0.63970  1.0000
  C   C85       1.0  0.32700  0.58260  0.18950  1.0000
  C   C86       1.0  0.67300  0.58260  0.31050  1.0000
  C   C87       1.0  0.67300  0.41740  0.81050  1.0000
  C   C88       1.0  0.32700  0.41740  0.68950  1.0000
  C   C89       1.0  0.34680  0.48230  0.18160  1.0000
  C   C90       1.0  0.65320  0.48230  0.31840  1.0000
  C   C91       1.0  0.65320  0.51770  0.81840  1.0000
  C   C92       1.0  0.34680  0.51770  0.68160  1.0000
  C   C93       1.0  0.40370  0.46730  0.17190  1.0000
  C   C94       1.0  0.59630  0.46730  0.32810  1.0000
  C   C95       1.0  0.59630  0.53270  0.82810  1.0000
  C   C96       1.0  0.40370  0.53270  0.67190  1.0000
  H   H37       1.0  0.42740  0.51930  0.16760  1.0000
  H   H38       1.0  0.57260  0.51930  0.33240  1.0000
  H   H39       1.0  0.57260  0.48070  0.83240  1.0000
  H   H40       1.0  0.42740  0.48070  0.66760  1.0000
  C   C97       1.0  0.42673  0.37590  0.16850  1.0000
  C   C98       1.0  0.57327  0.37590  0.33150  1.0000
  C   C99       1.0  0.57327  0.62410  0.83150  1.0000
  C   C100      1.0  0.42673  0.62410  0.66850  1.0000
  C   C101      1.0  0.48930  0.36210  0.16140  1.0000
  C   C102      1.0  0.51070  0.36210  0.33860  1.0000
  C   C103      1.0  0.51070  0.63790  0.83860  1.0000
  C   C104      1.0  0.48930  0.63790  0.66140  1.0000
  C   C105      1.0  0.52850  0.43960  0.16190  1.0000
  C   C106      1.0  0.47150  0.43960  0.33810  1.0000
  C   C107      1.0  0.47150  0.56040  0.83810  1.0000
  C   C108      1.0  0.52850  0.56040  0.66190  1.0000
  H   H41       1.0  0.51450  0.50050  0.16630  1.0000
  H   H42       1.0  0.48550  0.50050  0.33370  1.0000
  H   H43       1.0  0.48550  0.49950  0.83370  1.0000
  H   H44       1.0  0.51450  0.49950  0.66630  1.0000
  C   C109      1.0  0.58770  0.42750  0.15600  1.0000
  C   C110      1.0  0.41230  0.42750  0.34400  1.0000
  C   C111      1.0  0.41230  0.57250  0.84400  1.0000
  C   C112      1.0  0.58770  0.57250  0.65600  1.0000
  H   H45       1.0  0.61300  0.47980  0.15640  1.0000
  H   H46       1.0  0.38700  0.47980  0.34360  1.0000
  H   H47       1.0  0.38700  0.52020  0.84360  1.0000
  H   H48       1.0  0.61300  0.52020  0.65640  1.0000
  C   C113      1.0  0.60880  0.33740  0.14970  1.0000
  C   C114      1.0  0.39120  0.33740  0.35030  1.0000
  C   C115      1.0  0.39120  0.66260  0.85030  1.0000
  C   C116      1.0  0.60880  0.66260  0.64970  1.0000
  C   C117      1.0  0.67540  0.32280  0.14800  1.0000
  C   C118      1.0  0.32460  0.32280  0.35200  1.0000
  C   C119      1.0  0.32460  0.67720  0.85200  1.0000
  C   C120      1.0  0.67540  0.67720  0.64800  1.0000
  C   C121      1.0  0.57030  0.25930  0.14800  1.0000
  C   C122      1.0  0.42970  0.25930  0.35200  1.0000
  C   C123      1.0  0.42970  0.74070  0.85200  1.0000
  C   C124      1.0  0.57030  0.74070  0.64800  1.0000
  H   H49       1.0  0.58400  0.19900  0.14150  1.0000
  H   H50       1.0  0.41600  0.19900  0.35850  1.0000
  H   H51       1.0  0.41600  0.80100  0.85850  1.0000
  H   H52       1.0  0.58400  0.80100  0.64150  1.0000
  C   C125      1.0  0.51140  0.27040  0.15590  1.0000
  C   C126      1.0  0.48860  0.27040  0.34410  1.0000
  C   C127      1.0  0.48860  0.72960  0.84410  1.0000
  C   C128      1.0  0.51140  0.72960  0.65590  1.0000
  C   C129      1.0  0.47370  0.18840  0.16240  1.0000
  C   C130      1.0  0.52630  0.18840  0.33760  1.0000
  C   C131      1.0  0.52630  0.81160  0.83760  1.0000
  C   C132      1.0  0.47370  0.81160  0.66240  1.0000
  C   C133      1.0  0.49430  0.09480  0.15910  1.0000
  C   C134      1.0  0.50570  0.09480  0.34090  1.0000
  C   C135      1.0  0.50570  0.90520  0.84090  1.0000
  C   C136      1.0  0.49430  0.90520  0.65910  1.0000
  H   H53       1.0  0.53220  0.08520  0.15150  1.0000
  H   H54       1.0  0.46780  0.08520  0.34850  1.0000
  H   H55       1.0  0.46780  0.91480  0.84850  1.0000
  H   H56       1.0  0.53220  0.91480  0.65150  1.0000
  C   C137      1.0  0.46090  0.01800  0.16680  1.0000
  C   C138      1.0  0.53910  0.01800  0.33320  1.0000
  C   C139      1.0  0.53910  0.98200  0.83320  1.0000
  C   C140      1.0  0.46090  0.98200  0.66680  1.0000
  H   H57       1.0  0.47620  0.95720  0.16480  1.0000
  H   H58       1.0  0.52380  0.95720  0.33520  1.0000
  H   H59       1.0  0.52380  0.04280  0.83520  1.0000
  H   H60       1.0  0.47620  0.04280  0.66480  1.0000
  C   C141      1.0  0.40320  0.03050  0.17770  1.0000
  C   C142      1.0  0.59680  0.03050  0.32230  1.0000
  C   C143      1.0  0.59680  0.96950  0.82230  1.0000
  C   C144      1.0  0.40320  0.96950  0.67770  1.0000
  C   C145      1.0  0.36500  0.94630  0.18800  1.0000
  C   C146      1.0  0.63500  0.94630  0.31200  1.0000
  C   C147      1.0  0.63500  0.05370  0.81200  1.0000
  C   C148      1.0  0.36500  0.05370  0.68800  1.0000
  C   C149      1.0  0.38140  0.12060  0.18120  1.0000
  C   C150      1.0  0.61860  0.12060  0.31880  1.0000
  C   C151      1.0  0.61860  0.87940  0.81880  1.0000
  C   C152      1.0  0.38140  0.87940  0.68120  1.0000
  H   H61       1.0  0.34350  0.12870  0.18910  1.0000
  H   H62       1.0  0.65650  0.12870  0.31090  1.0000
  H   H63       1.0  0.65650  0.87130  0.81090  1.0000
  H   H64       1.0  0.34350  0.87130  0.68910  1.0000
  C   C153      1.0  0.41540  0.20160  0.17290  1.0000
  C   C154      1.0  0.58460  0.20160  0.32710  1.0000
  C   C155      1.0  0.58460  0.79840  0.82710  1.0000
  C   C156      1.0  0.41540  0.79840  0.67290  1.0000
  C   C157      1.0  0.39130  0.29720  0.17540  1.0000
  C   C158      1.0  0.60870  0.29720  0.32460  1.0000
  C   C159      1.0  0.60870  0.70280  0.82460  1.0000
  C   C160      1.0  0.39130  0.70280  0.67540  1.0000
  C   C161      1.0  0.33230  0.31360  0.18350  1.0000
  C   C162      1.0  0.66770  0.31360  0.31650  1.0000
  C   C163      1.0  0.66770  0.68640  0.81650  1.0000
  C   C164      1.0  0.33230  0.68640  0.68350  1.0000
  H   H65       1.0  0.30750  0.26200  0.18630  1.0000
  H   H66       1.0  0.69250  0.26200  0.31370  1.0000
  H   H67       1.0  0.69250  0.73800  0.81370  1.0000
  H   H68       1.0  0.30750  0.73800  0.68630  1.0000
  C   C165      1.0  0.31050  0.40410  0.18730  1.0000
  C   C166      1.0  0.68950  0.40410  0.31270  1.0000
  C   C167      1.0  0.68950  0.59590  0.81270  1.0000
  C   C168      1.0  0.31050  0.59590  0.68730  1.0000
  H   H69       1.0  0.27190  0.41320  0.19370  1.0000
  H   H70       1.0  0.72810  0.41320  0.30630  1.0000
  H   H71       1.0  0.72810  0.58680  0.80630  1.0000
  H   H72       1.0  0.27190  0.58680  0.69370  1.0000
