data_image0
_chemical_formula_structural       U12O48H4O4H4O4H4C4H4C4H4
_chemical_formula_sum              "U12 O56 H20 C8"
_cell_length_a       9.1481
_cell_length_b       12.3909
_cell_length_c       19.879
_cell_angle_alpha    90
_cell_angle_beta     101.548
_cell_angle_gamma    90

_space_group_name_H-M_alt    "P 1"
_space_group_IT_number       1

loop_
  _space_group_symop_operation_xyz
  'x, y, z'

loop_
  _atom_site_type_symbol
  _atom_site_label
  _atom_site_symmetry_multiplicity
  _atom_site_fract_x
  _atom_site_fract_y
  _atom_site_fract_z
  _atom_site_occupancy
  U   U1        1.0  0.15530  0.56207  0.29639  1.0000
  U   U2        1.0  0.84470  0.06207  0.20361  1.0000
  U   U3        1.0  0.84470  0.43793  0.70361  1.0000
  U   U4        1.0  0.15530  0.93793  0.79639  1.0000
  U   U5        1.0  0.17174  0.26982  0.24538  1.0000
  U   U6        1.0  0.82826  0.76982  0.25462  1.0000
  U   U7        1.0  0.82826  0.73018  0.75462  1.0000
  U   U8        1.0  0.17174  0.23018  0.74538  1.0000
  U   U9        1.0  0.20857  0.91383  0.28541  1.0000
  U   U10       1.0  0.79143  0.41383  0.21459  1.0000
  U   U11       1.0  0.79143  0.08617  0.71459  1.0000
  U   U12       1.0  0.20857  0.58617  0.78541  1.0000
  O   O1        1.0  0.16200  0.61030  0.21290  1.0000
  O   O2        1.0  0.83800  0.11030  0.28710  1.0000
  O   O3        1.0  0.83800  0.38970  0.78710  1.0000
  O   O4        1.0  0.16200  0.88970  0.71290  1.0000
  O   O5        1.0  0.15170  0.52030  0.38170  1.0000
  O   O6        1.0  0.84830  0.02030  0.11830  1.0000
  O   O7        1.0  0.84830  0.47970  0.61830  1.0000
  O   O8        1.0  0.15170  0.97970  0.88170  1.0000
  O   O9        1.0  0.21370  0.29510  0.16250  1.0000
  O   O10       1.0  0.78630  0.79510  0.33750  1.0000
  O   O11       1.0  0.78630  0.70490  0.83750  1.0000
  O   O12       1.0  0.21370  0.20490  0.66250  1.0000
  O   O13       1.0  0.13350  0.23410  0.32760  1.0000
  O   O14       1.0  0.86650  0.73410  0.17240  1.0000
  O   O15       1.0  0.86650  0.76590  0.67240  1.0000
  O   O16       1.0  0.13350  0.26590  0.82760  1.0000
  O   O17       1.0  0.20080  0.98370  0.36190  1.0000
  O   O18       1.0  0.79920  0.48370  0.13810  1.0000
  O   O19       1.0  0.79920  0.01630  0.63810  1.0000
  O   O20       1.0  0.20080  0.51630  0.86190  1.0000
  O   O21       1.0  0.22770  0.84350  0.21100  1.0000
  O   O22       1.0  0.77230  0.34350  0.28900  1.0000
  O   O23       1.0  0.77230  0.15650  0.78900  1.0000
  O   O24       1.0  0.22770  0.65650  0.71100  1.0000
  O   O25       1.0  0.39770  0.63600  0.34160  1.0000
  O   O26       1.0  0.60230  0.13600  0.15840  1.0000
  O   O27       1.0  0.60230  0.36400  0.65840  1.0000
  O   O28       1.0  0.39770  0.86400  0.84160  1.0000
  O   O29       1.0  0.41040  0.81850  0.35380  1.0000
  O   O30       1.0  0.58960  0.31850  0.14620  1.0000
  O   O31       1.0  0.58960  0.18150  0.64620  1.0000
  O   O32       1.0  0.41040  0.68150  0.85380  1.0000
  O   O33       1.0  0.41040  0.18920  0.28350  1.0000
  O   O34       1.0  0.58960  0.68920  0.21650  1.0000
  O   O35       1.0  0.58960  0.81080  0.71650  1.0000
  O   O36       1.0  0.41040  0.31080  0.78350  1.0000
  O   O37       1.0  0.43210  0.00860  0.27390  1.0000
  O   O38       1.0  0.56790  0.50860  0.22610  1.0000
  O   O39       1.0  0.56790  0.99140  0.72610  1.0000
  O   O40       1.0  0.43210  0.49140  0.77390  1.0000
  O   O41       1.0  0.03420  0.41670  0.24920  1.0000
  O   O42       1.0  0.96580  0.91670  0.25080  1.0000
  O   O43       1.0  0.96580  0.58330  0.75080  1.0000
  O   O44       1.0  0.03420  0.08330  0.74920  1.0000
  O   O45       1.0  0.32150  0.41830  0.28970  1.0000
  O   O46       1.0  0.67850  0.91830  0.21030  1.0000
  O   O47       1.0  0.67850  0.58170  0.71030  1.0000
  O   O48       1.0  0.32150  0.08170  0.78970  1.0000
  H   H1        1.0  0.42350  0.42430  0.30570  1.0000
  H   H2        1.0  0.57650  0.92430  0.19430  1.0000
  H   H3        1.0  0.57650  0.57570  0.69430  1.0000
  H   H4        1.0  0.42350  0.07570  0.80570  1.0000
  O   O49       1.0  0.09190  0.74680  0.31830  1.0000
  O   O50       1.0  0.90810  0.24680  0.18170  1.0000
  O   O51       1.0  0.90810  0.25320  0.68170  1.0000
  O   O52       1.0  0.09190  0.75320  0.81830  1.0000
  H   H5        1.0  0.09170  0.74780  0.36700  1.0000
  H   H6        1.0  0.90830  0.24780  0.13300  1.0000
  H   H7        1.0  0.90830  0.25220  0.63300  1.0000
  H   H8        1.0  0.09170  0.75220  0.86700  1.0000
  O   O53       1.0  0.87750  0.58110  0.28240  1.0000
  O   O54       1.0  0.12250  0.08110  0.21760  1.0000
  O   O55       1.0  0.12250  0.41890  0.71760  1.0000
  O   O56       1.0  0.87750  0.91890  0.78240  1.0000
  H   H9        1.0  0.84750  0.57120  0.32360  1.0000
  H   H10       1.0  0.15250  0.07120  0.17640  1.0000
  H   H11       1.0  0.15250  0.42880  0.67640  1.0000
  H   H12       1.0  0.84750  0.92880  0.82360  1.0000
  C   C1        1.0  0.46520  0.72410  0.35970  1.0000
  C   C2        1.0  0.53480  0.22410  0.14030  1.0000
  C   C3        1.0  0.53480  0.27590  0.64030  1.0000
  C   C4        1.0  0.46520  0.77590  0.85970  1.0000
  H   H13       1.0  0.56600  0.71880  0.37950  1.0000
  H   H14       1.0  0.43400  0.21880  0.12050  1.0000
  H   H15       1.0  0.43400  0.28120  0.62050  1.0000
  H   H16       1.0  0.56600  0.78120  0.87950  1.0000
  C   C5        1.0  0.48310  0.10420  0.28850  1.0000
  C   C6        1.0  0.51690  0.60420  0.21150  1.0000
  C   C7        1.0  0.51690  0.89580  0.71150  1.0000
  C   C8        1.0  0.48310  0.39580  0.78850  1.0000
  H   H17       1.0  0.58550  0.11020  0.30460  1.0000
  H   H18       1.0  0.41450  0.61020  0.19540  1.0000
  H   H19       1.0  0.41450  0.88980  0.69540  1.0000
  H   H20       1.0  0.58550  0.38980  0.80460  1.0000
