data_image0
_chemical_formula_structural       Cr2Mn2O24C12
_chemical_formula_sum              "Cr2 Mn2 O24 C12"
_cell_length_a       9.417
_cell_length_b       9.417
_cell_length_c       16.843
_cell_angle_alpha    90
_cell_angle_beta     90
_cell_angle_gamma    120

_space_group_name_H-M_alt    "P 1"
_space_group_IT_number       1

loop_
  _space_group_symop_operation_xyz
  'x, y, z'

loop_
  _atom_site_type_symbol
  _atom_site_label
  _atom_site_symmetry_multiplicity
  _atom_site_fract_x
  _atom_site_fract_y
  _atom_site_fract_z
  _atom_site_occupancy
  Cr  Cr1       1.0  0.33330  0.66670  0.96788  1.0000
  Cr  Cr2       1.0  0.66670  0.33330  0.46788  1.0000
  Mn  Mn1       1.0  0.00000  0.00000  0.96607  1.0000
  Mn  Mn2       1.0  0.00000  0.00000  0.46607  1.0000
  O   O1        1.0  0.51970  0.68070  0.90170  1.0000
  O   O2        1.0  0.48030  0.31930  0.40170  1.0000
  O   O3        1.0  0.31930  0.83900  0.90170  1.0000
  O   O4        1.0  0.16100  0.48030  0.90170  1.0000
  O   O5        1.0  0.83900  0.51970  0.40170  1.0000
  O   O6        1.0  0.68070  0.16100  0.40170  1.0000
  O   O7        1.0  0.52020  0.83710  0.03240  1.0000
  O   O8        1.0  0.47980  0.16290  0.53240  1.0000
  O   O9        1.0  0.16290  0.68310  0.03240  1.0000
  O   O10       1.0  0.31690  0.47980  0.03240  1.0000
  O   O11       1.0  0.68310  0.52020  0.53240  1.0000
  O   O12       1.0  0.83710  0.31690  0.53240  1.0000
  O   O13       1.0  0.79360  0.97670  0.03350  1.0000
  O   O14       1.0  0.20640  0.02330  0.53350  1.0000
  O   O15       1.0  0.02330  0.81690  0.03350  1.0000
  O   O16       1.0  0.18310  0.20640  0.03350  1.0000
  O   O17       1.0  0.81690  0.79360  0.53350  1.0000
  O   O18       1.0  0.97670  0.18310  0.53350  1.0000
  O   O19       1.0  0.79430  0.81760  0.89940  1.0000
  O   O20       1.0  0.20570  0.18240  0.39940  1.0000
  O   O21       1.0  0.18240  0.97670  0.89940  1.0000
  O   O22       1.0  0.02330  0.20570  0.89940  1.0000
  O   O23       1.0  0.97670  0.79430  0.39940  1.0000
  O   O24       1.0  0.81760  0.02330  0.39940  1.0000
  C   C1        1.0  0.66000  0.78420  0.92880  1.0000
  C   C2        1.0  0.34000  0.21580  0.42880  1.0000
  C   C3        1.0  0.21580  0.87580  0.92880  1.0000
  C   C4        1.0  0.12420  0.34000  0.92880  1.0000
  C   C5        1.0  0.87580  0.66000  0.42880  1.0000
  C   C6        1.0  0.78420  0.12420  0.42880  1.0000
  C   C7        1.0  0.66270  0.87590  0.00490  1.0000
  C   C8        1.0  0.33730  0.12410  0.50490  1.0000
  C   C9        1.0  0.12410  0.78680  0.00490  1.0000
  C   C10       1.0  0.21320  0.33730  0.00490  1.0000
  C   C11       1.0  0.78680  0.66270  0.50490  1.0000
  C   C12       1.0  0.87590  0.21320  0.50490  1.0000
