data_image0
_chemical_formula_structural       Ag4O52N4H4N8H4N4C40H8
_chemical_formula_sum              "Ag4 O52 N16 H16 C40"
_cell_length_a       8.784
_cell_length_b       18.551
_cell_length_c       9.195
_cell_angle_alpha    90
_cell_angle_beta     90.7
_cell_angle_gamma    90

_space_group_name_H-M_alt    "P 1"
_space_group_IT_number       1

loop_
  _space_group_symop_operation_xyz
  'x, y, z'

loop_
  _atom_site_type_symbol
  _atom_site_label
  _atom_site_symmetry_multiplicity
  _atom_site_fract_x
  _atom_site_fract_y
  _atom_site_fract_z
  _atom_site_occupancy
  Ag  Ag1       1.0  0.68914  0.51835  0.16959  1.0000
  Ag  Ag2       1.0  0.31086  0.01835  0.33041  1.0000
  Ag  Ag3       1.0  0.31086  0.48165  0.83041  1.0000
  Ag  Ag4       1.0  0.68914  0.98165  0.66959  1.0000
  O   O1        1.0  0.69810  0.43383  0.98490  1.0000
  O   O2        1.0  0.30190  0.93383  0.51510  1.0000
  O   O3        1.0  0.30190  0.56617  0.01510  1.0000
  O   O4        1.0  0.69810  0.06617  0.48490  1.0000
  O   O5        1.0  0.49428  0.55092  0.33550  1.0000
  O   O6        1.0  0.50572  0.05092  0.16450  1.0000
  O   O7        1.0  0.50572  0.44908  0.66450  1.0000
  O   O8        1.0  0.49428  0.94908  0.83550  1.0000
  O   O9        1.0  0.27210  0.64390  0.32520  1.0000
  O   O10       1.0  0.72790  0.14390  0.17480  1.0000
  O   O11       1.0  0.72790  0.35610  0.67480  1.0000
  O   O12       1.0  0.27210  0.85610  0.82520  1.0000
  O   O13       1.0  0.91480  0.46912  0.32040  1.0000
  O   O14       1.0  0.08520  0.96912  0.17960  1.0000
  O   O15       1.0  0.08520  0.53088  0.67960  1.0000
  O   O16       1.0  0.91480  0.03088  0.82040  1.0000
  O   O17       1.0  0.12060  0.36677  0.34680  1.0000
  O   O18       1.0  0.87940  0.86677  0.15320  1.0000
  O   O19       1.0  0.87940  0.63323  0.65320  1.0000
  O   O20       1.0  0.12060  0.13323  0.84680  1.0000
  O   O21       1.0  0.40810  0.33294  0.33080  1.0000
  O   O22       1.0  0.59190  0.83294  0.16920  1.0000
  O   O23       1.0  0.59190  0.66706  0.66920  1.0000
  O   O24       1.0  0.40810  0.16706  0.83080  1.0000
  O   O25       1.0  0.57810  0.41601  0.33800  1.0000
  O   O26       1.0  0.42190  0.91601  0.16200  1.0000
  O   O27       1.0  0.42190  0.58399  0.66200  1.0000
  O   O28       1.0  0.57810  0.08399  0.83800  1.0000
  O   O29       1.0  0.59699  0.87943  0.51610  1.0000
  O   O30       1.0  0.40301  0.37943  0.98390  1.0000
  O   O31       1.0  0.40301  0.12057  0.48390  1.0000
  O   O32       1.0  0.59699  0.62057  0.01610  1.0000
  O   O33       1.0  0.40503  0.77524  0.44540  1.0000
  O   O34       1.0  0.59497  0.27524  0.05460  1.0000
  O   O35       1.0  0.59497  0.22476  0.55460  1.0000
  O   O36       1.0  0.40503  0.72476  0.94540  1.0000
  O   O37       1.0  0.78610  0.62851  0.30530  1.0000
  O   O38       1.0  0.21390  0.12851  0.19470  1.0000
  O   O39       1.0  0.21390  0.37149  0.69470  1.0000
  O   O40       1.0  0.78610  0.87149  0.80530  1.0000
  O   O41       1.0  0.99467  0.72206  0.38300  1.0000
  O   O42       1.0  0.00533  0.22206  0.11700  1.0000
  O   O43       1.0  0.00533  0.27794  0.61700  1.0000
  O   O44       1.0  0.99467  0.77794  0.88300  1.0000
  O   O45       1.0  0.04950  0.83839  0.54270  1.0000
  O   O46       1.0  0.95050  0.33839  0.95730  1.0000
  O   O47       1.0  0.95050  0.16161  0.45730  1.0000
  O   O48       1.0  0.04950  0.66161  0.04270  1.0000
  O   O49       1.0  0.89130  0.92310  0.49150  1.0000
  O   O50       1.0  0.10870  0.42310  0.00850  1.0000
  O   O51       1.0  0.10870  0.07690  0.50850  1.0000
  O   O52       1.0  0.89130  0.57690  0.99150  1.0000
  N   N1        1.0  0.09020  0.55773  0.32240  1.0000
  N   N2        1.0  0.90980  0.05773  0.17760  1.0000
  N   N3        1.0  0.90980  0.44227  0.67760  1.0000
  N   N4        1.0  0.09020  0.94227  0.82240  1.0000
  H   H1        1.0  0.02000  0.59000  0.31740  1.0000
  H   H2        1.0  0.98000  0.09000  0.18260  1.0000
  H   H3        1.0  0.98000  0.41000  0.68260  1.0000
  H   H4        1.0  0.02000  0.91000  0.81740  1.0000
  N   N5        1.0  0.44260  0.39746  0.33540  1.0000
  N   N6        1.0  0.55740  0.89746  0.16460  1.0000
  N   N7        1.0  0.55740  0.60254  0.66460  1.0000
  N   N8        1.0  0.44260  0.10254  0.83540  1.0000
  N   N9        1.0  0.59210  0.70207  0.36590  1.0000
  N   N10       1.0  0.40790  0.20207  0.13410  1.0000
  N   N11       1.0  0.40790  0.29793  0.63410  1.0000
  N   N12       1.0  0.59210  0.79793  0.86590  1.0000
  H   H5        1.0  0.52630  0.67180  0.33240  1.0000
  H   H6        1.0  0.47370  0.17180  0.16760  1.0000
  H   H7        1.0  0.47370  0.32820  0.66760  1.0000
  H   H8        1.0  0.52630  0.82820  0.83240  1.0000
  N   N13       1.0  0.92240  0.85893  0.50150  1.0000
  N   N14       1.0  0.07760  0.35893  0.99850  1.0000
  N   N15       1.0  0.07760  0.14107  0.49850  1.0000
  N   N16       1.0  0.92240  0.64107  0.00150  1.0000
  C   C1        1.0  0.32620  0.45034  0.33640  1.0000
  C   C2        1.0  0.67380  0.95034  0.16360  1.0000
  C   C3        1.0  0.67380  0.54966  0.66360  1.0000
  C   C4        1.0  0.32620  0.04966  0.83640  1.0000
  C   C5        1.0  0.36680  0.52426  0.33370  1.0000
  C   C6        1.0  0.63320  0.02426  0.16630  1.0000
  C   C7        1.0  0.63320  0.47574  0.66630  1.0000
  C   C8        1.0  0.36680  0.97574  0.83370  1.0000
  C   C9        1.0  0.23890  0.58051  0.32760  1.0000
  C   C10       1.0  0.76110  0.08051  0.17240  1.0000
  C   C11       1.0  0.76110  0.41949  0.67240  1.0000
  C   C12       1.0  0.23890  0.91949  0.82760  1.0000
  C   C13       1.0  0.04680  0.48715  0.32460  1.0000
  C   C14       1.0  0.95320  0.98715  0.17540  1.0000
  C   C15       1.0  0.95320  0.51285  0.67540  1.0000
  C   C16       1.0  0.04680  0.01285  0.82460  1.0000
  C   C17       1.0  0.17000  0.42790  0.33680  1.0000
  C   C18       1.0  0.83000  0.92790  0.16320  1.0000
  C   C19       1.0  0.83000  0.57210  0.66320  1.0000
  C   C20       1.0  0.17000  0.07210  0.83680  1.0000
  C   C21       1.0  0.81140  0.80583  0.46530  1.0000
  C   C22       1.0  0.18860  0.30583  0.03470  1.0000
  C   C23       1.0  0.18860  0.19417  0.53470  1.0000
  C   C24       1.0  0.81140  0.69417  0.96530  1.0000
  C   C25       1.0  0.65440  0.82305  0.47410  1.0000
  C   C26       1.0  0.34560  0.32305  0.02590  1.0000
  C   C27       1.0  0.34560  0.17695  0.52590  1.0000
  C   C28       1.0  0.65440  0.67695  0.97410  1.0000
  C   C29       1.0  0.53890  0.76440  0.42770  1.0000
  C   C30       1.0  0.46110  0.26440  0.07230  1.0000
  C   C31       1.0  0.46110  0.23560  0.57230  1.0000
  C   C32       1.0  0.53890  0.73560  0.92770  1.0000
  C   C33       1.0  0.74270  0.68490  0.35430  1.0000
  C   C34       1.0  0.25730  0.18490  0.14570  1.0000
  C   C35       1.0  0.25730  0.31510  0.64570  1.0000
  C   C36       1.0  0.74270  0.81510  0.85430  1.0000
  C   C37       1.0  0.86300  0.74009  0.40480  1.0000
  C   C38       1.0  0.13700  0.24009  0.09520  1.0000
  C   C39       1.0  0.13700  0.25991  0.59520  1.0000
  C   C40       1.0  0.86300  0.75991  0.90480  1.0000
  H   H9        1.0  0.76800  0.40670  0.98100  1.0000
  H   H10       1.0  0.23200  0.90670  0.51900  1.0000
  H   H11       1.0  0.23200  0.59330  0.01900  1.0000
  H   H12       1.0  0.76800  0.09330  0.48100  1.0000
  H   H13       1.0  0.62400  0.40890  0.98500  1.0000
  H   H14       1.0  0.37600  0.90890  0.51500  1.0000
  H   H15       1.0  0.37600  0.59110  0.01500  1.0000
  H   H16       1.0  0.62400  0.09110  0.48500  1.0000
