data_image0
_chemical_formula_structural       Zn4O14H4O12N2C2H2C2N2H2C2H2C4H2C10H2C12H2C2H2C6N2H4C4H2C2H2C2H2C2H2
_chemical_formula_sum              "Zn4 O26 H30 N6 C50"
_cell_length_a       10.205
_cell_length_b       14.3969
_cell_length_c       16.594
_cell_angle_alpha    97.411
_cell_angle_beta     102.378
_cell_angle_gamma    105.892

_space_group_name_H-M_alt    "P 1"
_space_group_IT_number       1

loop_
  _space_group_symop_operation_xyz
  'x, y, z'

loop_
  _atom_site_type_symbol
  _atom_site_label
  _atom_site_symmetry_multiplicity
  _atom_site_fract_x
  _atom_site_fract_y
  _atom_site_fract_z
  _atom_site_occupancy
  Zn  Zn1       1.0  0.80819  0.19952  0.63218  1.0000
  Zn  Zn2       1.0  0.19181  0.80048  0.36782  1.0000
  Zn  Zn3       1.0  0.49037  0.40907  0.09416  1.0000
  Zn  Zn4       1.0  0.50963  0.59093  0.90584  1.0000
  O   O1        1.0  0.91243  0.28819  0.74194  1.0000
  O   O2        1.0  0.08757  0.71181  0.25806  1.0000
  O   O3        1.0  0.30904  0.38407  0.00448  1.0000
  O   O4        1.0  0.69096  0.61593  0.99552  1.0000
  O   O5        1.0  0.66466  0.22546  0.54763  1.0000
  O   O6        1.0  0.33534  0.77454  0.45237  1.0000
  O   O7        1.0  0.52025  0.36968  0.20477  1.0000
  O   O8        1.0  0.47975  0.63032  0.79523  1.0000
  O   O9        1.0  0.31086  0.93222  0.36460  1.0000
  O   O10       1.0  0.68914  0.06778  0.63540  1.0000
  O   O11       1.0  0.60889  0.36969  0.02414  1.0000
  O   O12       1.0  0.39111  0.63031  0.97586  1.0000
  O   O13       1.0  0.59000  0.55613  0.12650  1.0000
  O   O14       1.0  0.41000  0.44387  0.87350  1.0000
  H   H1        1.0  0.53140  0.59050  0.13430  1.0000
  H   H2        1.0  0.46860  0.40950  0.86570  1.0000
  H   H3        1.0  0.62970  0.57850  0.08690  1.0000
  H   H4        1.0  0.37030  0.42150  0.91310  1.0000
  O   O15       1.0  0.38480  0.23297  0.11714  1.0000
  O   O16       1.0  0.61520  0.76703  0.88286  1.0000
  O   O17       1.0  0.27050  0.43572  0.12437  1.0000
  O   O18       1.0  0.72950  0.56428  0.87563  1.0000
  O   O19       1.0  0.19040  0.93784  0.23844  1.0000
  O   O20       1.0  0.80960  0.06216  0.76156  1.0000
  O   O21       1.0  0.69710  0.26650  0.75308  1.0000
  O   O22       1.0  0.30290  0.73350  0.24692  1.0000
  O   O23       1.0  0.78360  0.42240  0.13971  1.0000
  O   O24       1.0  0.21640  0.57760  0.86029  1.0000
  O   O25       1.0  0.75460  0.35208  0.49138  1.0000
  O   O26       1.0  0.24540  0.64792  0.50862  1.0000
  N   N1        1.0  0.96170  0.17966  0.58345  1.0000
  N   N2        1.0  0.03830  0.82034  0.41655  1.0000
  C   C1        1.0  0.98070  0.39474  0.05097  1.0000
  C   C2        1.0  0.01930  0.60526  0.94903  1.0000
  H   H5        1.0  0.01380  0.41610  0.10910  1.0000
  H   H6        1.0  0.98620  0.58390  0.89090  1.0000
  C   C3        1.0  0.88280  0.33205  0.87805  1.0000
  C   C4        1.0  0.11720  0.66795  0.12195  1.0000
  N   N3        1.0  0.16800  0.16520  0.57390  1.0000
  N   N4        1.0  0.83200  0.83480  0.42610  1.0000
  H   H7        1.0  0.25590  0.16940  0.58840  1.0000
  H   H8        1.0  0.74410  0.83060  0.41160  1.0000
  C   C5        1.0  0.02500  0.35245  0.91692  1.0000
  C   C6        1.0  0.97500  0.64755  0.08308  1.0000
  H   H9        1.0  0.08740  0.34570  0.88480  1.0000
  H   H10       1.0  0.91260  0.65430  0.11520  1.0000
  C   C7        1.0  0.07430  0.38308  0.00411  1.0000
  C   C8        1.0  0.92570  0.61692  0.99589  1.0000
  C   C9        1.0  0.47320  0.12654  0.39375  1.0000
  C   C10       1.0  0.52680  0.87346  0.60625  1.0000
  H   H11       1.0  0.47860  0.09300  0.43800  1.0000
  H   H12       1.0  0.52140  0.90700  0.56200  1.0000
  C   C11       1.0  0.37900  0.07956  0.31620  1.0000
  C   C12       1.0  0.62100  0.92044  0.68380  1.0000
  C   C13       1.0  0.55920  0.22277  0.40594  1.0000
  C   C14       1.0  0.44080  0.77723  0.59406  1.0000
  C   C15       1.0  0.82600  0.29389  0.78511  1.0000
  C   C16       1.0  0.17400  0.70611  0.21489  1.0000
  C   C17       1.0  0.22680  0.40364  0.04810  1.0000
  C   C18       1.0  0.77320  0.59636  0.95190  1.0000
  C   C19       1.0  0.37220  0.12988  0.25018  1.0000
  C   C20       1.0  0.62780  0.87012  0.74982  1.0000
  H   H13       1.0  0.30950  0.09870  0.19800  1.0000
  H   H14       1.0  0.69050  0.90130  0.80200  1.0000
  C   C21       1.0  0.83850  0.37508  0.01276  1.0000
  C   C22       1.0  0.16150  0.62492  0.98724  1.0000
  C   C23       1.0  0.66880  0.27238  0.48776  1.0000
  C   C24       1.0  0.33120  0.72762  0.51224  1.0000
  C   C25       1.0  0.73900  0.39040  0.06391  1.0000
  C   C26       1.0  0.26100  0.60960  0.93609  1.0000
  C   C27       1.0  0.28530  0.97511  0.30384  1.0000
  C   C28       1.0  0.71470  0.02489  0.69616  1.0000
  C   C29       1.0  0.45800  0.22595  0.26129  1.0000
  C   C30       1.0  0.54200  0.77405  0.73871  1.0000
  C   C31       1.0  0.55100  0.27224  0.33973  1.0000
  C   C32       1.0  0.44900  0.72776  0.66027  1.0000
  H   H15       1.0  0.60820  0.33700  0.34770  1.0000
  H   H16       1.0  0.39180  0.66300  0.65230  1.0000
  C   C33       1.0  0.79080  0.34368  0.92605  1.0000
  C   C34       1.0  0.20920  0.65632  0.07395  1.0000
  H   H17       1.0  0.69570  0.33020  0.89970  1.0000
  H   H18       1.0  0.30430  0.66980  0.10030  1.0000
  C   C35       1.0  0.45270  0.27880  0.18948  1.0000
  C   C36       1.0  0.54730  0.72120  0.81052  1.0000
  C   C37       1.0  0.94710  0.13368  0.50106  1.0000
  C   C38       1.0  0.05290  0.86632  0.49894  1.0000
  C   C39       1.0  0.07730  0.12540  0.49530  1.0000
  C   C40       1.0  0.92270  0.87460  0.50470  1.0000
  N   N5        1.0  0.15190  0.23720  0.70595  1.0000
  N   N6        1.0  0.84810  0.76280  0.29405  1.0000
  H   H19       1.0  0.10030  0.25460  0.73590  1.0000
  H   H20       1.0  0.89970  0.74540  0.26410  1.0000
  H   H21       1.0  0.23960  0.24610  0.72850  1.0000
  H   H22       1.0  0.76040  0.75390  0.27150  1.0000
  C   C41       1.0  0.09540  0.19620  0.62380  1.0000
  C   C42       1.0  0.90460  0.80380  0.37620  1.0000
  C   C43       1.0  0.83220  0.09930  0.43235  1.0000
  C   C44       1.0  0.16780  0.90070  0.56765  1.0000
  H   H23       1.0  0.74420  0.10360  0.43590  1.0000
  H   H24       1.0  0.25580  0.89640  0.56410  1.0000
  C   C45       1.0  0.09700  0.08310  0.42060  1.0000
  C   C46       1.0  0.90300  0.91690  0.57940  1.0000
  H   H25       1.0  0.18420  0.07720  0.41720  1.0000
  H   H26       1.0  0.81580  0.92280  0.58280  1.0000
  C   C47       1.0  0.98270  0.05070  0.35240  1.0000
  C   C48       1.0  0.01730  0.94930  0.64760  1.0000
  H   H27       1.0  0.99260  0.02280  0.30120  1.0000
  H   H28       1.0  0.00740  0.97720  0.69880  1.0000
  C   C49       1.0  0.85220  0.05810  0.35750  1.0000
  C   C50       1.0  0.14780  0.94190  0.64250  1.0000
  H   H29       1.0  0.77650  0.03510  0.30980  1.0000
  H   H30       1.0  0.22350  0.96490  0.69020  1.0000
