data_image0
_chemical_formula_structural       Zn4P4O18H2O2C4H6
_chemical_formula_sum              "Zn4 P4 O20 H8 C4"
_cell_length_a       9.1374
_cell_length_b       9.1963
_cell_length_c       12.9915
_cell_angle_alpha    91.421
_cell_angle_beta     104.988
_cell_angle_gamma    110.162

_space_group_name_H-M_alt    "P 1"
_space_group_IT_number       1

loop_
  _space_group_symop_operation_xyz
  'x, y, z'

loop_
  _atom_site_type_symbol
  _atom_site_label
  _atom_site_symmetry_multiplicity
  _atom_site_fract_x
  _atom_site_fract_y
  _atom_site_fract_z
  _atom_site_occupancy
  Zn  Zn1       1.0  0.24986  0.52302  0.51251  1.0000
  Zn  Zn2       1.0  0.75014  0.47698  0.48749  1.0000
  Zn  Zn3       1.0  0.07095  0.07448  0.36005  1.0000
  Zn  Zn4       1.0  0.92905  0.92552  0.63995  1.0000
  P   P1        1.0  0.36400  0.37130  0.34670  1.0000
  P   P2        1.0  0.63600  0.62870  0.65330  1.0000
  P   P3        1.0  0.06710  0.76520  0.49590  1.0000
  P   P4        1.0  0.93290  0.23480  0.50410  1.0000
  O   O1        1.0  0.21590  0.71750  0.51030  1.0000
  O   O2        1.0  0.78410  0.28250  0.48970  1.0000
  O   O3        1.0  0.28860  0.48780  0.37500  1.0000
  O   O4        1.0  0.71140  0.51220  0.62500  1.0000
  O   O5        1.0  0.91180  0.62700  0.43330  1.0000
  O   O6        1.0  0.08820  0.37300  0.56670  1.0000
  O   O7        1.0  0.54600  0.44200  0.37930  1.0000
  O   O8        1.0  0.45400  0.55800  0.62070  1.0000
  O   O9        1.0  0.09130  0.90580  0.43570  1.0000
  O   O10       1.0  0.90870  0.09420  0.56430  1.0000
  O   O11       1.0  0.05180  0.80380  0.60750  1.0000
  O   O12       1.0  0.94820  0.19620  0.39250  1.0000
  O   O13       1.0  0.95560  0.97550  0.21120  1.0000
  O   O14       1.0  0.04440  0.02450  0.78880  1.0000
  O   O15       1.0  0.30070  0.21800  0.39270  1.0000
  O   O16       1.0  0.69930  0.78200  0.60730  1.0000
  O   O17       1.0  0.31320  0.33860  0.22030  1.0000
  O   O18       1.0  0.68680  0.66140  0.77970  1.0000
  H   H1        1.0  0.21380  0.29950  0.19730  1.0000
  H   H2        1.0  0.78620  0.70050  0.80270  1.0000
  O   O19       1.0  0.99690  0.19580  0.13590  1.0000
  O   O20       1.0  0.00310  0.80420  0.86410  1.0000
  C   C1        1.0  0.93120  0.05180  0.13390  1.0000
  C   C2        1.0  0.06880  0.94820  0.86610  1.0000
  C   C3        1.0  0.80930  0.96370  0.02940  1.0000
  C   C4        1.0  0.19070  0.03630  0.97060  1.0000
  H   H3        1.0  0.81710  0.86340  0.01790  1.0000
  H   H4        1.0  0.18290  0.13660  0.98210  1.0000
  H   H5        1.0  0.70150  0.94990  0.03250  1.0000
  H   H6        1.0  0.29850  0.05010  0.96750  1.0000
  H   H7        1.0  0.83160  0.02180  0.97130  1.0000
  H   H8        1.0  0.16840  0.97820  0.02870  1.0000
