data_image0
_chemical_formula_structural       Na3P8O6H2O4H2O6H2O6H2O4H4O2H4O2H4O2H4N2H2N2H2C2H4C2H4C2H4C2H4C2H4C2H4C2H4C2H4C2H4C2H4
_chemical_formula_sum              "Na3 P8 O32 H68 N4 C20"
_cell_length_a       7.6682
_cell_length_b       11.5335
_cell_length_c       18.0768
_cell_angle_alpha    97.378
_cell_angle_beta     94.792
_cell_angle_gamma    101.705

_space_group_name_H-M_alt    "P 1"
_space_group_IT_number       1

loop_
  _space_group_symop_operation_xyz
  'x, y, z'

loop_
  _atom_site_type_symbol
  _atom_site_label
  _atom_site_symmetry_multiplicity
  _atom_site_fract_x
  _atom_site_fract_y
  _atom_site_fract_z
  _atom_site_occupancy
  Na  Na1       1.0  0.00000  0.00000  0.00000  1.0000
  Na  Na2       1.0  0.63664  0.96787  0.07122  1.0000
  Na  Na3       1.0  0.36336  0.03213  0.92878  1.0000
  P   P1        1.0  0.56533  0.43674  0.20636  1.0000
  P   P2        1.0  0.43467  0.56326  0.79364  1.0000
  P   P3        1.0  0.14120  0.60557  0.33826  1.0000
  P   P4        1.0  0.85880  0.39443  0.66174  1.0000
  P   P5        1.0  0.94886  0.04699  0.81549  1.0000
  P   P6        1.0  0.05114  0.95301  0.18451  1.0000
  P   P7        1.0  0.35806  0.89663  0.65714  1.0000
  P   P8        1.0  0.64194  0.10337  0.34286  1.0000
  O   O1        1.0  0.67237  0.35278  0.17087  1.0000
  O   O2        1.0  0.32763  0.64722  0.82913  1.0000
  O   O3        1.0  0.43714  0.48014  0.15482  1.0000
  O   O4        1.0  0.56286  0.51986  0.84518  1.0000
  O   O5        1.0  0.69031  0.54642  0.25723  1.0000
  O   O6        1.0  0.30969  0.45358  0.74277  1.0000
  H   H1        1.0  0.79300  0.54400  0.25870  1.0000
  H   H2        1.0  0.20700  0.45600  0.74130  1.0000
  O   O7        1.0  0.01769  0.55288  0.26725  1.0000
  O   O8        1.0  0.98231  0.44712  0.73275  1.0000
  O   O9        1.0  0.22646  0.73925  0.33473  1.0000
  O   O10       1.0  0.77354  0.26075  0.66527  1.0000
  H   H3        1.0  0.24100  0.78770  0.37220  1.0000
  H   H4        1.0  0.75900  0.21230  0.62780  1.0000
  O   O11       1.0  0.06662  0.58827  0.41107  1.0000
  O   O12       1.0  0.93338  0.41173  0.58893  1.0000
  O   O13       1.0  0.07278  0.99704  0.86523  1.0000
  O   O14       1.0  0.92722  0.00296  0.13477  1.0000
  O   O15       1.0  0.82528  0.93820  0.76139  1.0000
  O   O16       1.0  0.17472  0.06180  0.23861  1.0000
  H   H5        1.0  0.72900  0.94800  0.74620  1.0000
  H   H6        1.0  0.27100  0.05200  0.25380  1.0000
  O   O17       1.0  0.84067  0.12824  0.85249  1.0000
  O   O18       1.0  0.15933  0.87176  0.14751  1.0000
  O   O19       1.0  0.50192  0.94429  0.72189  1.0000
  O   O20       1.0  0.49808  0.05571  0.27811  1.0000
  O   O21       1.0  0.27482  0.76163  0.65882  1.0000
  O   O22       1.0  0.72518  0.23837  0.34118  1.0000
  H   H7        1.0  0.25800  0.71580  0.62050  1.0000
  H   H8        1.0  0.74200  0.28420  0.37950  1.0000
  O   O23       1.0  0.40766  0.91942  0.58137  1.0000
  O   O24       1.0  0.59234  0.08058  0.41863  1.0000
  O   O25       1.0  0.26233  0.14485  0.02851  1.0000
  O   O26       1.0  0.73767  0.85515  0.97149  1.0000
  H   H9        1.0  0.32100  0.13600  0.06550  1.0000
  H   H10       1.0  0.67900  0.86400  0.93450  1.0000
  H   H11       1.0  0.24600  0.21400  0.03390  1.0000
  H   H12       1.0  0.75400  0.78600  0.96610  1.0000
  O   O27       1.0  0.72190  0.10979  0.98941  1.0000
  O   O28       1.0  0.27810  0.89021  0.01059  1.0000
  H   H13       1.0  0.75100  0.11100  0.94680  1.0000
  H   H14       1.0  0.24900  0.88900  0.05320  1.0000
  H   H15       1.0  0.72800  0.18080  0.00450  1.0000
  H   H16       1.0  0.27200  0.81920  0.99550  1.0000
  O   O29       1.0  0.51940  0.84419  0.15855  1.0000
  O   O30       1.0  0.48060  0.15581  0.84145  1.0000
  H   H17       1.0  0.52500  0.78090  0.13730  1.0000
  H   H18       1.0  0.47500  0.21910  0.86270  1.0000
  H   H19       1.0  0.41700  0.84300  0.16460  1.0000
  H   H20       1.0  0.58300  0.15700  0.83540  1.0000
  O   O31       1.0  0.52515  0.11764  0.13699  1.0000
  O   O32       1.0  0.47485  0.88236  0.86301  1.0000
  H   H21       1.0  0.52000  0.10000  0.17980  1.0000
  H   H22       1.0  0.48000  0.90000  0.82020  1.0000
  H   H23       1.0  0.57700  0.18730  0.14570  1.0000
  H   H24       1.0  0.42300  0.81270  0.85430  1.0000
  N   N1        1.0  0.27878  0.40608  0.29525  1.0000
  N   N2        1.0  0.72122  0.59392  0.70475  1.0000
  H   H25       1.0  0.20600  0.39920  0.25600  1.0000
  H   H26       1.0  0.79400  0.60080  0.74400  1.0000
  N   N3        1.0  0.22400  0.08946  0.71926  1.0000
  N   N4        1.0  0.77600  0.91054  0.28074  1.0000
  H   H27       1.0  0.30300  0.09360  0.75570  1.0000
  H   H28       1.0  0.69700  0.90640  0.24430  1.0000
  C   C1        1.0  0.43250  0.35490  0.26959  1.0000
  C   C2        1.0  0.56750  0.64510  0.73041  1.0000
  H   H29       1.0  0.38540  0.27350  0.24470  1.0000
  H   H30       1.0  0.61460  0.72650  0.75530  1.0000
  H   H31       1.0  0.51150  0.35090  0.31360  1.0000
  H   H32       1.0  0.48850  0.64910  0.68640  1.0000
  C   C3        1.0  0.33294  0.53642  0.32708  1.0000
  C   C4        1.0  0.66706  0.46358  0.67292  1.0000
  H   H33       1.0  0.40880  0.57810  0.29420  1.0000
  H   H34       1.0  0.59120  0.42190  0.70580  1.0000
  H   H35       1.0  0.40270  0.54530  0.37560  1.0000
  H   H36       1.0  0.59730  0.45470  0.62440  1.0000
  C   C5        1.0  0.07560  0.13693  0.75345  1.0000
  C   C6        1.0  0.92440  0.86307  0.24655  1.0000
  H   H37       1.0  0.99180  0.14750  0.71290  1.0000
  H   H38       1.0  0.00820  0.85250  0.28710  1.0000
  H   H39       1.0  0.12690  0.21560  0.78170  1.0000
  H   H40       1.0  0.87310  0.78440  0.21830  1.0000
  C   C7        1.0  0.17010  0.96107  0.68389  1.0000
  C   C8        1.0  0.82990  0.03893  0.31611  1.0000
  H   H41       1.0  0.08620  0.95460  0.63960  1.0000
  H   H42       1.0  0.91380  0.04540  0.36040  1.0000
  H   H43       1.0  0.10860  0.91480  0.71880  1.0000
  H   H44       1.0  0.89140  0.08520  0.28120  1.0000
  C   C9        1.0  0.18160  0.32945  0.34776  1.0000
  C   C10       1.0  0.81840  0.67055  0.65224  1.0000
  H   H45       1.0  0.15510  0.24640  0.32430  1.0000
  H   H46       1.0  0.84490  0.75360  0.67570  1.0000
  H   H47       1.0  0.06830  0.35230  0.35450  1.0000
  H   H48       1.0  0.93170  0.64770  0.64550  1.0000
  C   C11       1.0  0.28570  0.33953  0.42452  1.0000
  C   C12       1.0  0.71430  0.66047  0.57548  1.0000
  H   H49       1.0  0.29370  0.41850  0.45240  1.0000
  H   H50       1.0  0.70630  0.58150  0.54760  1.0000
  H   H51       1.0  0.40650  0.32940  0.41850  1.0000
  H   H52       1.0  0.59350  0.67060  0.58150  1.0000
  C   C13       1.0  0.19320  0.24421  0.46839  1.0000
  C   C14       1.0  0.80680  0.75579  0.53161  1.0000
  H   H53       1.0  0.07070  0.25230  0.47220  1.0000
  H   H54       1.0  0.92930  0.74770  0.52780  1.0000
  H   H55       1.0  0.18960  0.16540  0.44120  1.0000
  H   H56       1.0  0.81040  0.83460  0.55880  1.0000
  C   C15       1.0  0.28950  0.25501  0.54673  1.0000
  C   C16       1.0  0.71050  0.74499  0.45327  1.0000
  H   H57       1.0  0.29270  0.33380  0.57380  1.0000
  H   H58       1.0  0.70730  0.66620  0.42620  1.0000
  H   H59       1.0  0.41220  0.24750  0.54270  1.0000
  H   H60       1.0  0.58780  0.75250  0.45730  1.0000
  C   C17       1.0  0.19990  0.16032  0.59137  1.0000
  C   C18       1.0  0.80010  0.83968  0.40863  1.0000
  H   H61       1.0  0.08020  0.17110  0.59910  1.0000
  H   H62       1.0  0.91980  0.82890  0.40090  1.0000
  H   H63       1.0  0.18970  0.08120  0.56340  1.0000
  H   H64       1.0  0.81030  0.91880  0.43660  1.0000
  C   C19       1.0  0.30998  0.17092  0.66676  1.0000
  C   C20       1.0  0.69002  0.82908  0.33324  1.0000
  H   H65       1.0  0.42550  0.15300  0.65810  1.0000
  H   H66       1.0  0.57450  0.84700  0.34190  1.0000
  H   H67       1.0  0.33140  0.25320  0.69130  1.0000
  H   H68       1.0  0.66860  0.74680  0.30870  1.0000
