data_image0
_chemical_formula_structural       Zn4O24C12
_chemical_formula_sum              "Zn4 O24 C12"
_cell_length_a       8.4179
_cell_length_b       9.1478
_cell_length_c       16.4206
_cell_angle_alpha    84.686
_cell_angle_beta     84.283
_cell_angle_gamma    71.497

_space_group_name_H-M_alt    "P 1"
_space_group_IT_number       1

loop_
  _space_group_symop_operation_xyz
  'x, y, z'

loop_
  _atom_site_type_symbol
  _atom_site_label
  _atom_site_symmetry_multiplicity
  _atom_site_fract_x
  _atom_site_fract_y
  _atom_site_fract_z
  _atom_site_occupancy
  Zn  Zn1       1.0  0.51954  0.48763  0.33647  1.0000
  Zn  Zn2       1.0  0.48046  0.51237  0.66353  1.0000
  Zn  Zn3       1.0  0.49215  0.02375  0.15973  1.0000
  Zn  Zn4       1.0  0.50785  0.97625  0.84027  1.0000
  O   O1        1.0  0.64740  0.25870  0.31712  1.0000
  O   O2        1.0  0.35260  0.74130  0.68288  1.0000
  O   O3        1.0  0.65320  0.07580  0.23536  1.0000
  O   O4        1.0  0.34680  0.92420  0.76464  1.0000
  O   O5        1.0  0.36750  0.44510  0.25196  1.0000
  O   O6        1.0  0.63250  0.55490  0.74804  1.0000
  O   O7        1.0  0.36540  0.25830  0.17491  1.0000
  O   O8        1.0  0.63460  0.74170  0.82509  1.0000
  O   O9        1.0  0.65810  0.57310  0.24357  1.0000
  O   O10       1.0  0.34190  0.42690  0.75643  1.0000
  O   O11       1.0  0.64030  0.78810  0.16464  1.0000
  O   O12       1.0  0.35970  0.21190  0.83536  1.0000
  O   O13       1.0  0.37190  0.72200  0.32977  1.0000
  O   O14       1.0  0.62810  0.27800  0.67023  1.0000
  O   O15       1.0  0.36330  0.94020  0.25682  1.0000
  O   O16       1.0  0.63670  0.05980  0.74318  1.0000
  O   O17       1.0  0.66100  0.51150  0.42695  1.0000
  O   O18       1.0  0.33900  0.48850  0.57305  1.0000
  O   O19       1.0  0.63610  0.54330  0.56033  1.0000
  O   O20       1.0  0.36390  0.45670  0.43967  1.0000
  O   O21       1.0  0.33800  0.00040  0.07551  1.0000
  O   O22       1.0  0.66200  0.99960  0.92449  1.0000
  O   O23       1.0  0.36380  0.94260  0.94549  1.0000
  O   O24       1.0  0.63620  0.05740  0.05451  1.0000
  C   C1        1.0  0.59110  0.20570  0.26336  1.0000
  C   C2        1.0  0.40890  0.79430  0.73664  1.0000
  C   C3        1.0  0.42630  0.31170  0.22706  1.0000
  C   C4        1.0  0.57370  0.68830  0.77294  1.0000
  C   C5        1.0  0.59120  0.71300  0.22244  1.0000
  C   C6        1.0  0.40880  0.28700  0.77756  1.0000
  C   C7        1.0  0.42730  0.79980  0.27417  1.0000
  C   C8        1.0  0.57270  0.20020  0.72583  1.0000
  C   C9        1.0  0.58610  0.51570  0.49570  1.0000
  C   C10       1.0  0.41390  0.48430  0.50430  1.0000
  C   C11       1.0  0.41330  0.98350  0.00615  1.0000
  C   C12       1.0  0.58670  0.01650  0.99385  1.0000
