data_image0
_chemical_formula_structural       Fe4F10O2N12H2C2H2C2H2C2H2C2H2
_chemical_formula_sum              "Fe4 F10 O2 N12 H10 C8"
_cell_length_a       8.8392
_cell_length_b       9.1948
_cell_length_c       9.5877
_cell_angle_alpha    82.07
_cell_angle_beta     63.699
_cell_angle_gamma    89.202

_space_group_name_H-M_alt    "P 1"
_space_group_IT_number       1

loop_
  _space_group_symop_operation_xyz
  'x, y, z'

loop_
  _atom_site_type_symbol
  _atom_site_label
  _atom_site_symmetry_multiplicity
  _atom_site_fract_x
  _atom_site_fract_y
  _atom_site_fract_z
  _atom_site_occupancy
  Fe  Fe1       1.0  0.32425  0.27136  0.38112  1.0000
  Fe  Fe2       1.0  0.67575  0.72864  0.61888  1.0000
  Fe  Fe3       1.0  0.00000  0.00000  0.00000  1.0000
  Fe  Fe4       1.0  0.50000  0.50000  0.00000  1.0000
  F   F1        1.0  0.47510  0.43370  0.22210  1.0000
  F   F2        1.0  0.52490  0.56630  0.77790  1.0000
  F   F3        1.0  0.14940  0.41500  0.43470  1.0000
  F   F4        1.0  0.85060  0.58500  0.56530  1.0000
  F   F5        1.0  0.37090  0.33570  0.54160  1.0000
  F   F6        1.0  0.62910  0.66430  0.45840  1.0000
  F   F7        1.0  0.16170  0.12130  0.51930  1.0000
  F   F8        1.0  0.83830  0.87870  0.48070  1.0000
  F   F9        1.0  0.50150  0.14030  0.33060  1.0000
  F   F10       1.0  0.49850  0.85970  0.66940  1.0000
  O   O1        1.0  0.21020  0.01190  0.76440  1.0000
  O   O2        1.0  0.78980  0.98810  0.23560  1.0000
  N   N1        1.0  0.09760  0.80350  0.08300  1.0000
  N   N2        1.0  0.90240  0.19650  0.91700  1.0000
  N   N3        1.0  0.26560  0.22660  0.19860  1.0000
  N   N4        1.0  0.73440  0.77340  0.80140  1.0000
  N   N5        1.0  0.15360  0.13370  0.06140  1.0000
  N   N6        1.0  0.84640  0.86630  0.93860  1.0000
  N   N7        1.0  0.32850  0.31050  0.05200  1.0000
  N   N8        1.0  0.67150  0.68950  0.94800  1.0000
  N   N9        1.0  0.28460  0.64180  0.09150  1.0000
  N   N10       1.0  0.71540  0.35820  0.90850  1.0000
  N   N11       1.0  0.13200  0.60790  0.21770  1.0000
  N   N12       1.0  0.86800  0.39210  0.78230  1.0000
  H   H1        1.0  0.10920  0.53400  0.29070  1.0000
  H   H2        1.0  0.89080  0.46600  0.70930  1.0000
  C   C1        1.0  0.16310  0.12390  0.19820  1.0000
  C   C2        1.0  0.83690  0.87610  0.80180  1.0000
  H   H3        1.0  0.10350  0.05210  0.28390  1.0000
  H   H4        1.0  0.89650  0.94790  0.71610  1.0000
  C   C3        1.0  0.25900  0.25030  0.97570  1.0000
  C   C4        1.0  0.74100  0.74970  0.02430  1.0000
  H   H5        1.0  0.28100  0.28530  0.87240  1.0000
  H   H6        1.0  0.71900  0.71470  0.12760  1.0000
  C   C5        1.0  0.02400  0.70560  0.21110  1.0000
  C   C6        1.0  0.97600  0.29440  0.78890  1.0000
  H   H7        1.0  0.91210  0.70560  0.28590  1.0000
  H   H8        1.0  0.08790  0.29440  0.71410  1.0000
  C   C7        1.0  0.25830  0.76080  0.01320  1.0000
  C   C8        1.0  0.74170  0.23920  0.98680  1.0000
  H   H9        1.0  0.34150  0.81030  0.91960  1.0000
  H   H10       1.0  0.65850  0.18970  0.08040  1.0000
