data_image0
_chemical_formula_structural       Zn4P4O16H4O12H8C4H4C4
_chemical_formula_sum              "Zn4 P4 O28 H16 C8"
_cell_length_a       8.4302
_cell_length_b       9.8132
_cell_length_c       10.8881
_cell_angle_alpha    90
_cell_angle_beta     106.278
_cell_angle_gamma    90

_space_group_name_H-M_alt    "P 1"
_space_group_IT_number       1

loop_
  _space_group_symop_operation_xyz
  'x, y, z'

loop_
  _atom_site_type_symbol
  _atom_site_label
  _atom_site_symmetry_multiplicity
  _atom_site_fract_x
  _atom_site_fract_y
  _atom_site_fract_z
  _atom_site_occupancy
  Zn  Zn1       1.0  0.94555  0.70250  0.84077  1.0000
  Zn  Zn2       1.0  0.55445  0.20250  0.65923  1.0000
  Zn  Zn3       1.0  0.05445  0.29750  0.15923  1.0000
  Zn  Zn4       1.0  0.44555  0.79750  0.34077  1.0000
  P   P1        1.0  0.07083  0.38304  0.87692  1.0000
  P   P2        1.0  0.42917  0.88304  0.62308  1.0000
  P   P3        1.0  0.92917  0.61696  0.12308  1.0000
  P   P4        1.0  0.57083  0.11696  0.37692  1.0000
  O   O1        1.0  0.07800  0.52820  0.82900  1.0000
  O   O2        1.0  0.42200  0.02820  0.67100  1.0000
  O   O3        1.0  0.92200  0.47180  0.17100  1.0000
  O   O4        1.0  0.57800  0.97180  0.32900  1.0000
  O   O5        1.0  0.13840  0.28320  0.79710  1.0000
  O   O6        1.0  0.36160  0.78320  0.70290  1.0000
  O   O7        1.0  0.86160  0.71680  0.20290  1.0000
  O   O8        1.0  0.63840  0.21680  0.29710  1.0000
  O   O9        1.0  0.15220  0.36760  0.01980  1.0000
  O   O10       1.0  0.34780  0.86760  0.48020  1.0000
  O   O11       1.0  0.84780  0.63240  0.98020  1.0000
  O   O12       1.0  0.65220  0.13240  0.51980  1.0000
  O   O13       1.0  0.75820  0.35090  0.72210  1.0000
  O   O14       1.0  0.74180  0.85090  0.77790  1.0000
  O   O15       1.0  0.24180  0.64910  0.27790  1.0000
  O   O16       1.0  0.25820  0.14910  0.22210  1.0000
  H   H1        1.0  0.75220  0.43100  0.69990  1.0000
  H   H2        1.0  0.74780  0.93100  0.80010  1.0000
  H   H3        1.0  0.24780  0.56900  0.30010  1.0000
  H   H4        1.0  0.25220  0.06900  0.19990  1.0000
  O   O17       1.0  0.74030  0.11660  0.82140  1.0000
  O   O18       1.0  0.75970  0.61660  0.67860  1.0000
  O   O19       1.0  0.25970  0.88340  0.17860  1.0000
  O   O20       1.0  0.24030  0.38340  0.32140  1.0000
  O   O21       1.0  0.89660  0.16970  0.01600  1.0000
  O   O22       1.0  0.60340  0.66970  0.48400  1.0000
  O   O23       1.0  0.10340  0.83030  0.98400  1.0000
  O   O24       1.0  0.39660  0.33030  0.51600  1.0000
  O   O25       1.0  0.04840  0.80910  0.71460  1.0000
  O   O26       1.0  0.45160  0.30910  0.78540  1.0000
  O   O27       1.0  0.95160  0.19090  0.28540  1.0000
  O   O28       1.0  0.54840  0.69090  0.21460  1.0000
  H   H5        1.0  0.00910  0.88940  0.70450  1.0000
  H   H6        1.0  0.49090  0.38940  0.79550  1.0000
  H   H7        1.0  0.99090  0.11060  0.29550  1.0000
  H   H8        1.0  0.50910  0.61060  0.20450  1.0000
  H   H9        1.0  0.15270  0.81300  0.74580  1.0000
  H   H10       1.0  0.34730  0.31300  0.75420  1.0000
  H   H11       1.0  0.84730  0.18700  0.25420  1.0000
  H   H12       1.0  0.65270  0.68700  0.24580  1.0000
  C   C1        1.0  0.85100  0.34080  0.85350  1.0000
  C   C2        1.0  0.64900  0.84080  0.64650  1.0000
  C   C3        1.0  0.14900  0.65920  0.14650  1.0000
  C   C4        1.0  0.35100  0.15920  0.35350  1.0000
  H   H13       1.0  0.80510  0.40580  0.90270  1.0000
  H   H14       1.0  0.69490  0.90580  0.59730  1.0000
  H   H15       1.0  0.19490  0.59420  0.09730  1.0000
  H   H16       1.0  0.30510  0.09420  0.40270  1.0000
  C   C5        1.0  0.82920  0.19840  0.90030  1.0000
  C   C6        1.0  0.67080  0.69840  0.59970  1.0000
  C   C7        1.0  0.17080  0.80160  0.09970  1.0000
  C   C8        1.0  0.32920  0.30160  0.40030  1.0000
