data_image0
_chemical_formula_structural       Co4O22H4O2H4O2H4O2H4N8C6H2C4H2C4H2C8H2C4H2C10H2C2H2C2H2C4H2C2H2C4H2C2H2C2H2C2H2C2H2
_chemical_formula_sum              "Co4 O28 H46 N8 C58"
_cell_length_a       10.553
_cell_length_b       12.789
_cell_length_c       14.443
_cell_angle_alpha    112.206
_cell_angle_beta     90.401
_cell_angle_gamma    94.839

_space_group_name_H-M_alt    "P 1"
_space_group_IT_number       1

loop_
  _space_group_symop_operation_xyz
  'x, y, z'

loop_
  _atom_site_type_symbol
  _atom_site_label
  _atom_site_symmetry_multiplicity
  _atom_site_fract_x
  _atom_site_fract_y
  _atom_site_fract_z
  _atom_site_occupancy
  Co  Co1       1.0  0.26373  0.42354  0.22962  1.0000
  Co  Co2       1.0  0.73627  0.57646  0.77038  1.0000
  Co  Co3       1.0  0.81787  0.27114  0.67833  1.0000
  Co  Co4       1.0  0.18213  0.72886  0.32167  1.0000
  O   O1        1.0  0.29890  0.39870  0.35820  1.0000
  O   O2        1.0  0.70110  0.60130  0.64180  1.0000
  O   O3        1.0  0.36070  0.56760  0.47621  1.0000
  O   O4        1.0  0.63930  0.43240  0.52379  1.0000
  O   O5        1.0  0.23270  0.05940  0.43930  1.0000
  O   O6        1.0  0.76730  0.94060  0.56070  1.0000
  O   O7        1.0  0.26860  0.07790  0.59440  1.0000
  O   O8        1.0  0.73140  0.92210  0.40560  1.0000
  O   O9        1.0  0.54410  0.59440  0.81290  1.0000
  O   O10       1.0  0.45590  0.40560  0.18710  1.0000
  O   O11       1.0  0.49400  0.41910  0.80790  1.0000
  O   O12       1.0  0.50600  0.58090  0.19210  1.0000
  O   O13       1.0  0.24510  0.70120  0.17203  1.0000
  O   O14       1.0  0.75490  0.29880  0.82797  1.0000
  O   O15       1.0  0.12480  0.81020  0.12620  1.0000
  O   O16       1.0  0.87520  0.18980  0.87380  1.0000
  O   O17       1.0  0.96660  0.38960  0.75333  1.0000
  O   O18       1.0  0.03340  0.61040  0.24667  1.0000
  O   O19       1.0  0.93090  0.55770  0.74731  1.0000
  O   O20       1.0  0.06910  0.44230  0.25269  1.0000
  O   O21       1.0  0.23460  0.46470  0.10309  1.0000
  O   O22       1.0  0.76540  0.53530  0.89691  1.0000
  H   H1        1.0  0.27110  0.42210  0.05570  1.0000
  H   H2        1.0  0.72890  0.57790  0.94430  1.0000
  H   H3        1.0  0.25900  0.53410  0.11700  1.0000
  H   H4        1.0  0.74100  0.46590  0.88300  1.0000
  O   O23       1.0  0.31290  0.60630  0.31175  1.0000
  O   O24       1.0  0.68710  0.39370  0.68825  1.0000
  H   H5        1.0  0.33700  0.60200  0.36600  1.0000
  H   H6        1.0  0.66300  0.39800  0.63400  1.0000
  H   H7        1.0  0.37600  0.61200  0.27800  1.0000
  H   H8        1.0  0.62400  0.38800  0.72200  1.0000
  O   O25       1.0  0.92120  0.13750  0.67800  1.0000
  O   O26       1.0  0.07880  0.86250  0.32200  1.0000
  H   H9        1.0  0.92180  0.13510  0.73400  1.0000
  H   H10       1.0  0.07820  0.86490  0.26600  1.0000
  H   H11       1.0  0.88000  0.07800  0.63510  1.0000
  H   H12       1.0  0.12000  0.92200  0.36490  1.0000
  O   O27       1.0  0.66410  0.14660  0.60610  1.0000
  O   O28       1.0  0.33590  0.85340  0.39390  1.0000
  H   H13       1.0  0.60370  0.15650  0.64290  1.0000
  H   H14       1.0  0.39630  0.84350  0.35710  1.0000
  H   H15       1.0  0.69600  0.08500  0.59600  1.0000
  H   H16       1.0  0.30400  0.91500  0.40400  1.0000
  N   N1        1.0  0.22200  0.24760  0.15560  1.0000
  N   N2        1.0  0.77800  0.75240  0.84440  1.0000
  N   N3        1.0  0.17930  0.08420  0.02810  1.0000
  N   N4        1.0  0.82070  0.91580  0.97190  1.0000
  N   N5        1.0  0.10100  0.79080  0.62450  1.0000
  N   N6        1.0  0.89900  0.20920  0.37550  1.0000
  N   N7        1.0  0.12140  0.73150  0.46110  1.0000
  N   N8        1.0  0.87860  0.26850  0.53890  1.0000
  C   C1        1.0  0.32040  0.46460  0.44780  1.0000
  C   C2        1.0  0.67960  0.53540  0.55220  1.0000
  C   C3        1.0  0.29440  0.41250  0.52410  1.0000
  C   C4        1.0  0.70560  0.58750  0.47590  1.0000
  C   C5        1.0  0.28050  0.29580  0.49450  1.0000
  C   C6        1.0  0.71950  0.70420  0.50550  1.0000
  H   H17       1.0  0.28900  0.25030  0.42760  1.0000
  H   H18       1.0  0.71100  0.74970  0.57240  1.0000
  C   C7        1.0  0.25440  0.24570  0.56280  1.0000
  C   C8        1.0  0.74560  0.75430  0.43720  1.0000
  C   C9        1.0  0.23690  0.31440  0.66240  1.0000
  C   C10       1.0  0.76310  0.68560  0.33760  1.0000
  H   H19       1.0  0.21770  0.28140  0.70860  1.0000
  H   H20       1.0  0.78230  0.71860  0.29140  1.0000
  C   C11       1.0  0.24810  0.43180  0.69290  1.0000
  C   C12       1.0  0.75190  0.56820  0.30710  1.0000
  C   C13       1.0  0.27820  0.48060  0.62370  1.0000
  C   C14       1.0  0.72180  0.51940  0.37630  1.0000
  H   H21       1.0  0.28760  0.55920  0.64410  1.0000
  H   H22       1.0  0.71240  0.44080  0.35590  1.0000
  C   C15       1.0  0.24870  0.11740  0.53010  1.0000
  C   C16       1.0  0.75130  0.88260  0.46990  1.0000
  C   C17       1.0  0.23360  0.50860  0.80010  1.0000
  C   C18       1.0  0.76640  0.49140  0.19990  1.0000
  C   C19       1.0  0.34170  0.55310  0.86550  1.0000
  C   C20       1.0  0.65830  0.44690  0.13450  1.0000
  C   C21       1.0  0.32970  0.62480  0.96470  1.0000
  C   C22       1.0  0.67030  0.37520  0.03530  1.0000
  H   H23       1.0  0.40110  0.65000  0.00820  1.0000
  H   H24       1.0  0.59890  0.35000  0.99180  1.0000
  C   C23       1.0  0.21210  0.65840  0.99870  1.0000
  C   C24       1.0  0.78790  0.34160  0.00130  1.0000
  C   C25       1.0  0.10550  0.62100  0.93360  1.0000
  C   C26       1.0  0.89450  0.37900  0.06640  1.0000
  H   H25       1.0  0.02740  0.64780  0.95510  1.0000
  H   H26       1.0  0.97260  0.35220  0.04490  1.0000
  C   C27       1.0  0.11570  0.54320  0.83570  1.0000
  C   C28       1.0  0.88430  0.45680  0.16430  1.0000
  C   C29       1.0  0.47020  0.51930  0.82620  1.0000
  C   C30       1.0  0.52980  0.48070  0.17380  1.0000
  C   C31       1.0  0.19390  0.73070  0.10780  1.0000
  C   C32       1.0  0.80610  0.26930  0.89220  1.0000
  C   C33       1.0  0.99430  0.49320  0.77300  1.0000
  C   C34       1.0  0.00570  0.50680  0.22700  1.0000
  C   C35       1.0  0.20400  0.19780  0.05770  1.0000
  C   C36       1.0  0.79600  0.80220  0.94230  1.0000
  H   H27       1.0  0.20790  0.23620  0.01430  1.0000
  H   H28       1.0  0.79210  0.76380  0.98570  1.0000
  C   C37       1.0  0.20700  0.16220  0.19080  1.0000
  C   C38       1.0  0.79300  0.83780  0.80920  1.0000
  H   H29       1.0  0.21370  0.17180  0.25780  1.0000
  H   H30       1.0  0.78630  0.82820  0.74220  1.0000
  C   C39       1.0  0.18080  0.06080  0.11290  1.0000
  C   C40       1.0  0.81920  0.93920  0.88710  1.0000
  H   H31       1.0  0.16680  0.98980  0.11680  1.0000
  H   H32       1.0  0.83320  0.01020  0.88320  1.0000
  C   C41       1.0  0.15750  0.00750  0.92620  1.0000
  C   C42       1.0  0.84250  0.99250  0.07380  1.0000
  C   C43       1.0  0.15510  0.05010  0.85200  1.0000
  C   C44       1.0  0.84490  0.94990  0.14800  1.0000
  H   H33       1.0  0.16830  0.12800  0.86890  1.0000
  H   H34       1.0  0.83170  0.87200  0.13110  1.0000
  C   C45       1.0  0.13320  0.97900  0.75270  1.0000
  C   C46       1.0  0.86680  0.02100  0.24730  1.0000
  H   H35       1.0  0.12880  0.00880  0.70330  1.0000
  H   H36       1.0  0.87120  0.99120  0.29670  1.0000
  C   C47       1.0  0.11810  0.86320  0.72780  1.0000
  C   C48       1.0  0.88190  0.13680  0.27220  1.0000
  C   C49       1.0  0.11890  0.82000  0.80160  1.0000
  C   C50       1.0  0.88110  0.18000  0.19840  1.0000
  H   H37       1.0  0.10590  0.74200  0.78460  1.0000
  H   H38       1.0  0.89410  0.25800  0.21540  1.0000
  C   C51       1.0  0.13900  0.89190  0.90150  1.0000
  C   C52       1.0  0.86100  0.10810  0.09850  1.0000
  H   H39       1.0  0.14010  0.86230  0.95120  1.0000
  H   H40       1.0  0.85990  0.13770  0.04880  1.0000
  C   C53       1.0  0.14530  0.81700  0.54720  1.0000
  C   C54       1.0  0.85470  0.18300  0.45280  1.0000
  H   H41       1.0  0.18710  0.88670  0.55420  1.0000
  H   H42       1.0  0.81290  0.11330  0.44580  1.0000
  C   C55       1.0  0.04490  0.68090  0.58390  1.0000
  C   C56       1.0  0.95510  0.31910  0.41610  1.0000
  H   H43       1.0  0.00590  0.63920  0.61820  1.0000
  H   H44       1.0  0.99410  0.36080  0.38180  1.0000
  C   C57       1.0  0.05800  0.64640  0.48430  1.0000
  C   C58       1.0  0.94200  0.35360  0.51570  1.0000
  H   H45       1.0  0.02850  0.57520  0.43780  1.0000
  H   H46       1.0  0.97150  0.42480  0.56220  1.0000
