data_image0
_chemical_formula_structural       Mn4P2O4H2O24C10
_chemical_formula_sum              "Mn4 P2 O28 H2 C10"
_cell_length_a       8.8385
_cell_length_b       9.0586
_cell_length_c       16.02
_cell_angle_alpha    77.616
_cell_angle_beta     83.359
_cell_angle_gamma    68.251

_space_group_name_H-M_alt    "P 1"
_space_group_IT_number       1

loop_
  _space_group_symop_operation_xyz
  'x, y, z'

loop_
  _atom_site_type_symbol
  _atom_site_label
  _atom_site_symmetry_multiplicity
  _atom_site_fract_x
  _atom_site_fract_y
  _atom_site_fract_z
  _atom_site_occupancy
  Mn  Mn1       1.0  0.22712  0.27882  0.42861  1.0000
  Mn  Mn2       1.0  0.77288  0.72118  0.57139  1.0000
  Mn  Mn3       1.0  0.28383  0.25503  0.07339  1.0000
  Mn  Mn4       1.0  0.71617  0.74497  0.92661  1.0000
  P   P1        1.0  0.84729  0.35138  0.52304  1.0000
  P   P2        1.0  0.15271  0.64862  0.47696  1.0000
  O   O1        1.0  0.97330  0.32510  0.44898  1.0000
  O   O2        1.0  0.02670  0.67490  0.55102  1.0000
  O   O3        1.0  0.71430  0.28370  0.50384  1.0000
  O   O4        1.0  0.28570  0.71630  0.49616  1.0000
  H   H1        1.0  0.63960  0.35550  0.46340  1.0000
  H   H2        1.0  0.36040  0.64450  0.53660  1.0000
  O   O5        1.0  0.91200  0.25450  0.60911  1.0000
  O   O6        1.0  0.08800  0.74550  0.39089  1.0000
  O   O7        1.0  0.23980  0.46940  0.47764  1.0000
  O   O8        1.0  0.76020  0.53060  0.52236  1.0000
  O   O9        1.0  0.50200  0.15310  0.41326  1.0000
  O   O10       1.0  0.49800  0.84690  0.58674  1.0000
  O   O11       1.0  0.22520  0.12490  0.33651  1.0000
  O   O12       1.0  0.77480  0.87510  0.66349  1.0000
  O   O13       1.0  0.29500  0.07140  0.53422  1.0000
  O   O14       1.0  0.70500  0.92860  0.46578  1.0000
  O   O15       1.0  0.25590  0.41790  0.29774  1.0000
  O   O16       1.0  0.74410  0.58210  0.70226  1.0000
  O   O17       1.0  0.53520  0.15660  0.03299  1.0000
  O   O18       1.0  0.46480  0.84340  0.96701  1.0000
  O   O19       1.0  0.28910  0.05430  0.02022  1.0000
  O   O20       1.0  0.71090  0.94570  0.97978  1.0000
  O   O21       1.0  0.28280  0.09820  0.20006  1.0000
  O   O22       1.0  0.71720  0.90180  0.79994  1.0000
  O   O23       1.0  0.20340  0.44340  0.96200  1.0000
  O   O24       1.0  0.79660  0.55660  0.03800  1.0000
  O   O25       1.0  0.32330  0.38570  0.16242  1.0000
  O   O26       1.0  0.67670  0.61430  0.83758  1.0000
  O   O27       1.0  0.01870  0.36220  0.09635  1.0000
  O   O28       1.0  0.98130  0.63780  0.90365  1.0000
  C   C1        1.0  0.26140  0.17290  0.26066  1.0000
  C   C2        1.0  0.73860  0.82710  0.73934  1.0000
  C   C3        1.0  0.28170  0.34110  0.23838  1.0000
  C   C4        1.0  0.71830  0.65890  0.76162  1.0000
  C   C5        1.0  0.55900  0.02470  0.46474  1.0000
  C   C6        1.0  0.44100  0.97530  0.53526  1.0000
  C   C7        1.0  0.05380  0.52390  0.96104  1.0000
  C   C8        1.0  0.94620  0.47610  0.03896  1.0000
  C   C9        1.0  0.57040  0.03000  0.00383  1.0000
  C   C10       1.0  0.42960  0.97000  0.99617  1.0000
