data_image0
_chemical_formula_structural       Fe4P2O4H2O24C10
_chemical_formula_sum              "Fe4 P2 O28 H2 C10"
_cell_length_a       8.7776
_cell_length_b       8.9257
_cell_length_c       15.8844
_cell_angle_alpha    78.63
_cell_angle_beta     84.018
_cell_angle_gamma    67.372

_space_group_name_H-M_alt    "P 1"
_space_group_IT_number       1

loop_
  _space_group_symop_operation_xyz
  'x, y, z'

loop_
  _atom_site_type_symbol
  _atom_site_label
  _atom_site_symmetry_multiplicity
  _atom_site_fract_x
  _atom_site_fract_y
  _atom_site_fract_z
  _atom_site_occupancy
  Fe  Fe1       1.0  0.22717  0.27304  0.42887  1.0000
  Fe  Fe2       1.0  0.77283  0.72696  0.57113  1.0000
  Fe  Fe3       1.0  0.27424  0.24732  0.07734  1.0000
  Fe  Fe4       1.0  0.72576  0.75268  0.92266  1.0000
  P   P1        1.0  0.84851  0.35584  0.52114  1.0000
  P   P2        1.0  0.15149  0.64416  0.47886  1.0000
  O   O1        1.0  0.97500  0.31290  0.44728  1.0000
  O   O2        1.0  0.02500  0.68710  0.55272  1.0000
  O   O3        1.0  0.70370  0.30250  0.50240  1.0000
  O   O4        1.0  0.29630  0.69750  0.49760  1.0000
  H   H1        1.0  0.62880  0.38280  0.46390  1.0000
  H   H2        1.0  0.37120  0.61720  0.53610  1.0000
  O   O5        1.0  0.90940  0.26010  0.60836  1.0000
  O   O6        1.0  0.09060  0.73990  0.39164  1.0000
  O   O7        1.0  0.22560  0.45890  0.48297  1.0000
  O   O8        1.0  0.77440  0.54110  0.51703  1.0000
  O   O9        1.0  0.49680  0.15620  0.41457  1.0000
  O   O10       1.0  0.50320  0.84380  0.58543  1.0000
  O   O11       1.0  0.23610  0.11200  0.33875  1.0000
  O   O12       1.0  0.76390  0.88800  0.66125  1.0000
  O   O13       1.0  0.29190  0.06670  0.53164  1.0000
  O   O14       1.0  0.70810  0.93330  0.46836  1.0000
  O   O15       1.0  0.24170  0.41700  0.30127  1.0000
  O   O16       1.0  0.75830  0.58300  0.69873  1.0000
  O   O17       1.0  0.52740  0.15360  0.04233  1.0000
  O   O18       1.0  0.47260  0.84640  0.95767  1.0000
  O   O19       1.0  0.28840  0.05050  0.01863  1.0000
  O   O20       1.0  0.71160  0.94950  0.98137  1.0000
  O   O21       1.0  0.28370  0.08930  0.20033  1.0000
  O   O22       1.0  0.71630  0.91070  0.79967  1.0000
  O   O23       1.0  0.20800  0.43630  0.96797  1.0000
  O   O24       1.0  0.79200  0.56370  0.03203  1.0000
  O   O25       1.0  0.30080  0.38800  0.16406  1.0000
  O   O26       1.0  0.69920  0.61200  0.83594  1.0000
  O   O27       1.0  0.01020  0.35750  0.09355  1.0000
  O   O28       1.0  0.98980  0.64250  0.90645  1.0000
  C   C1        1.0  0.26300  0.16480  0.26230  1.0000
  C   C2        1.0  0.73700  0.83520  0.73770  1.0000
  C   C3        1.0  0.26950  0.33830  0.24070  1.0000
  C   C4        1.0  0.73050  0.66170  0.75930  1.0000
  C   C5        1.0  0.55820  0.02650  0.46602  1.0000
  C   C6        1.0  0.44180  0.97350  0.53398  1.0000
  C   C7        1.0  0.56900  0.03070  0.00669  1.0000
  C   C8        1.0  0.43100  0.96930  0.99331  1.0000
  C   C9        1.0  0.05670  0.52370  0.96330  1.0000
  C   C10       1.0  0.94330  0.47630  0.03670  1.0000
