data_image0
_chemical_formula_structural       Cd3Zr3O48C24
_chemical_formula_sum              "Cd3 Zr3 O48 C24"
_cell_length_a       8.793
_cell_length_b       8.793
_cell_length_c       24.53
_cell_angle_alpha    90
_cell_angle_beta     90
_cell_angle_gamma    120

_space_group_name_H-M_alt    "P 1"
_space_group_IT_number       1

loop_
  _space_group_symop_operation_xyz
  'x, y, z'

loop_
  _atom_site_type_symbol
  _atom_site_label
  _atom_site_symmetry_multiplicity
  _atom_site_fract_x
  _atom_site_fract_y
  _atom_site_fract_z
  _atom_site_occupancy
  Cd  Cd1       1.0  0.50000  0.50000  0.66670  1.0000
  Cd  Cd2       1.0  0.50000  0.00000  0.00003  1.0000
  Cd  Cd3       1.0  0.00000  0.50000  0.33337  1.0000
  Zr  Zr1       1.0  0.00000  0.50000  0.83330  1.0000
  Zr  Zr2       1.0  0.50000  0.50000  0.16663  1.0000
  Zr  Zr3       1.0  0.50000  0.00000  0.49997  1.0000
  O   O1        1.0  0.56380  0.30600  0.72360  1.0000
  O   O2        1.0  0.69400  0.25780  0.05693  1.0000
  O   O3        1.0  0.74220  0.43620  0.39027  1.0000
  O   O4        1.0  0.43620  0.69400  0.72360  1.0000
  O   O5        1.0  0.30600  0.74220  0.05693  1.0000
  O   O6        1.0  0.25780  0.56380  0.39027  1.0000
  O   O7        1.0  0.30600  0.56380  0.60973  1.0000
  O   O8        1.0  0.25780  0.69400  0.27640  1.0000
  O   O9        1.0  0.43620  0.74220  0.94307  1.0000
  O   O10       1.0  0.69400  0.43620  0.60973  1.0000
  O   O11       1.0  0.74220  0.30600  0.27640  1.0000
  O   O12       1.0  0.56380  0.25780  0.94307  1.0000
  O   O13       1.0  0.91120  0.65800  0.78660  1.0000
  O   O14       1.0  0.34200  0.25320  0.11993  1.0000
  O   O15       1.0  0.74680  0.08880  0.45327  1.0000
  O   O16       1.0  0.08880  0.34200  0.78660  1.0000
  O   O17       1.0  0.65800  0.74680  0.11993  1.0000
  O   O18       1.0  0.25320  0.91120  0.45327  1.0000
  O   O19       1.0  0.65800  0.91120  0.54673  1.0000
  O   O20       1.0  0.25320  0.34200  0.21340  1.0000
  O   O21       1.0  0.08880  0.74680  0.88007  1.0000
  O   O22       1.0  0.34200  0.08880  0.54673  1.0000
  O   O23       1.0  0.74680  0.65800  0.21340  1.0000
  O   O24       1.0  0.91120  0.25320  0.88007  1.0000
  O   O25       1.0  0.74050  0.66020  0.71950  1.0000
  O   O26       1.0  0.33980  0.08030  0.05283  1.0000
  O   O27       1.0  0.91970  0.25950  0.38617  1.0000
  O   O28       1.0  0.25950  0.33980  0.71950  1.0000
  O   O29       1.0  0.66020  0.91970  0.05283  1.0000
  O   O30       1.0  0.08030  0.74050  0.38617  1.0000
  O   O31       1.0  0.66020  0.74050  0.61383  1.0000
  O   O32       1.0  0.08030  0.33980  0.28050  1.0000
  O   O33       1.0  0.25950  0.91970  0.94717  1.0000
  O   O34       1.0  0.33980  0.25950  0.61383  1.0000
  O   O35       1.0  0.91970  0.66020  0.28050  1.0000
  O   O36       1.0  0.74050  0.08030  0.94717  1.0000
  O   O37       1.0  0.76820  0.31670  0.78090  1.0000
  O   O38       1.0  0.68330  0.45150  0.11423  1.0000
  O   O39       1.0  0.54850  0.23180  0.44757  1.0000
  O   O40       1.0  0.23180  0.68330  0.78090  1.0000
  O   O41       1.0  0.31670  0.54850  0.11423  1.0000
  O   O42       1.0  0.45150  0.76820  0.44757  1.0000
  O   O43       1.0  0.31670  0.76820  0.55243  1.0000
  O   O44       1.0  0.45150  0.68330  0.21910  1.0000
  O   O45       1.0  0.23180  0.54850  0.88577  1.0000
  O   O46       1.0  0.68330  0.23180  0.55243  1.0000
  O   O47       1.0  0.54850  0.31670  0.21910  1.0000
  O   O48       1.0  0.76820  0.45150  0.88577  1.0000
  C   C1        1.0  0.70330  0.38270  0.75050  1.0000
  C   C2        1.0  0.61730  0.32060  0.08383  1.0000
  C   C3        1.0  0.67940  0.29670  0.41717  1.0000
  C   C4        1.0  0.29670  0.61730  0.75050  1.0000
  C   C5        1.0  0.38270  0.67940  0.08383  1.0000
  C   C6        1.0  0.32060  0.70330  0.41717  1.0000
  C   C7        1.0  0.38270  0.70330  0.58283  1.0000
  C   C8        1.0  0.32060  0.61730  0.24950  1.0000
  C   C9        1.0  0.29670  0.67940  0.91617  1.0000
  C   C10       1.0  0.61730  0.29670  0.58283  1.0000
  C   C11       1.0  0.67940  0.38270  0.24950  1.0000
  C   C12       1.0  0.70330  0.32060  0.91617  1.0000
  C   C13       1.0  0.78880  0.58410  0.75170  1.0000
  C   C14       1.0  0.41590  0.20470  0.08503  1.0000
  C   C15       1.0  0.79530  0.21120  0.41837  1.0000
  C   C16       1.0  0.21120  0.41590  0.75170  1.0000
  C   C17       1.0  0.58410  0.79530  0.08503  1.0000
  C   C18       1.0  0.20470  0.78880  0.41837  1.0000
  C   C19       1.0  0.58410  0.78880  0.58163  1.0000
  C   C20       1.0  0.20470  0.41590  0.24830  1.0000
  C   C21       1.0  0.21120  0.79530  0.91497  1.0000
  C   C22       1.0  0.41590  0.21120  0.58163  1.0000
  C   C23       1.0  0.79530  0.58410  0.24830  1.0000
  C   C24       1.0  0.78880  0.20470  0.91497  1.0000
