data_image0
_chemical_formula_structural       O8C8N8C8Zn8N16C8H8C8H8O8C8H8O8C24O8C8H24
_chemical_formula_sum              "O32 C72 N24 Zn8 H48"
_cell_length_a       10.189
_cell_length_b       16.464
_cell_length_c       17.052
_cell_angle_alpha    90
_cell_angle_beta     90
_cell_angle_gamma    90

_space_group_name_H-M_alt    "P 1"
_space_group_IT_number       1

loop_
  _space_group_symop_operation_xyz
  'x, y, z'

loop_
  _atom_site_type_symbol
  _atom_site_label
  _atom_site_symmetry_multiplicity
  _atom_site_fract_x
  _atom_site_fract_y
  _atom_site_fract_z
  _atom_site_occupancy
  O   O1        1.0  0.14180  0.92450  0.93590  1.0000
  O   O2        1.0  0.35820  0.07550  0.43590  1.0000
  O   O3        1.0  0.85820  0.42450  0.56410  1.0000
  O   O4        1.0  0.64180  0.57550  0.06410  1.0000
  O   O5        1.0  0.85820  0.07550  0.06410  1.0000
  O   O6        1.0  0.64180  0.92450  0.56410  1.0000
  O   O7        1.0  0.14180  0.57550  0.43590  1.0000
  O   O8        1.0  0.35820  0.42450  0.93590  1.0000
  C   C1        1.0  0.24970  0.92260  0.97330  1.0000
  C   C2        1.0  0.25030  0.07740  0.47330  1.0000
  C   C3        1.0  0.75030  0.42260  0.52670  1.0000
  C   C4        1.0  0.74970  0.57740  0.02670  1.0000
  C   C5        1.0  0.75030  0.07740  0.02670  1.0000
  C   C6        1.0  0.74970  0.92260  0.52670  1.0000
  C   C7        1.0  0.24970  0.57740  0.47330  1.0000
  C   C8        1.0  0.25030  0.42260  0.97330  1.0000
  N   N1        1.0  0.07280  0.10730  0.18680  1.0000
  N   N2        1.0  0.42720  0.89270  0.68680  1.0000
  N   N3        1.0  0.92720  0.60730  0.31320  1.0000
  N   N4        1.0  0.57280  0.39270  0.81320  1.0000
  N   N5        1.0  0.92720  0.89270  0.81320  1.0000
  N   N6        1.0  0.57280  0.10730  0.31320  1.0000
  N   N7        1.0  0.07280  0.39270  0.68680  1.0000
  N   N8        1.0  0.42720  0.60730  0.18680  1.0000
  C   C9        1.0  0.15830  0.05720  0.14480  1.0000
  C   C10       1.0  0.34170  0.94280  0.64480  1.0000
  C   C11       1.0  0.84170  0.55720  0.35520  1.0000
  C   C12       1.0  0.65830  0.44280  0.85520  1.0000
  C   C13       1.0  0.84170  0.94280  0.85520  1.0000
  C   C14       1.0  0.65830  0.05720  0.35520  1.0000
  C   C15       1.0  0.15830  0.44280  0.64480  1.0000
  C   C16       1.0  0.34170  0.55720  0.14480  1.0000
  Zn  Zn1       1.0  0.38186  0.13933  0.33799  1.0000
  Zn  Zn2       1.0  0.11814  0.86067  0.83799  1.0000
  Zn  Zn3       1.0  0.61814  0.63933  0.16201  1.0000
  Zn  Zn4       1.0  0.88186  0.36067  0.66201  1.0000
  Zn  Zn5       1.0  0.61814  0.86067  0.66201  1.0000
  Zn  Zn6       1.0  0.88186  0.13933  0.16201  1.0000
  Zn  Zn7       1.0  0.38186  0.36067  0.83799  1.0000
  Zn  Zn8       1.0  0.11814  0.63933  0.33799  1.0000
  N   N9        1.0  0.13280  0.13250  0.25080  1.0000
  N   N10       1.0  0.36720  0.86750  0.75080  1.0000
  N   N11       1.0  0.86720  0.63250  0.24920  1.0000
  N   N12       1.0  0.63280  0.36750  0.74920  1.0000
  N   N13       1.0  0.86720  0.86750  0.74920  1.0000
  N   N14       1.0  0.63280  0.13250  0.24920  1.0000
  N   N15       1.0  0.13280  0.36750  0.75080  1.0000
  N   N16       1.0  0.36720  0.63250  0.25080  1.0000
  N   N17       1.0  0.25520  0.10380  0.25300  1.0000
  N   N18       1.0  0.24480  0.89620  0.75300  1.0000
  N   N19       1.0  0.74480  0.60380  0.24700  1.0000
  N   N20       1.0  0.75520  0.39620  0.74700  1.0000
  N   N21       1.0  0.74480  0.89620  0.74700  1.0000
  N   N22       1.0  0.75520  0.10380  0.24700  1.0000
  N   N23       1.0  0.25520  0.39620  0.75300  1.0000
  N   N24       1.0  0.24480  0.60380  0.25300  1.0000
  C   C17       1.0  0.14550  0.01520  0.07370  1.0000
  C   C18       1.0  0.35450  0.98480  0.57370  1.0000
  C   C19       1.0  0.85450  0.51520  0.42630  1.0000
  C   C20       1.0  0.64550  0.48480  0.92630  1.0000
  C   C21       1.0  0.85450  0.98480  0.92630  1.0000
  C   C22       1.0  0.64550  0.01520  0.42630  1.0000
  C   C23       1.0  0.14550  0.48480  0.57370  1.0000
  C   C24       1.0  0.35450  0.51520  0.07370  1.0000
  H   H1        1.0  0.06750  0.01540  0.04540  1.0000
  H   H2        1.0  0.43250  0.98460  0.54540  1.0000
  H   H3        1.0  0.93250  0.51540  0.45460  1.0000
  H   H4        1.0  0.56750  0.48460  0.95460  1.0000
  H   H5        1.0  0.93250  0.98460  0.95460  1.0000
  H   H6        1.0  0.56750  0.01540  0.45460  1.0000
  H   H7        1.0  0.06750  0.48460  0.54540  1.0000
  H   H8        1.0  0.43250  0.51540  0.04540  1.0000
  C   C25       1.0  0.38730  0.01520  0.15970  1.0000
  C   C26       1.0  0.11270  0.98480  0.65970  1.0000
  C   C27       1.0  0.61270  0.51520  0.34030  1.0000
  C   C28       1.0  0.88730  0.48480  0.84030  1.0000
  C   C29       1.0  0.61270  0.98480  0.84030  1.0000
  C   C30       1.0  0.88730  0.01520  0.34030  1.0000
  C   C31       1.0  0.38730  0.48480  0.65970  1.0000
  C   C32       1.0  0.11270  0.51520  0.15970  1.0000
  H   H9        1.0  0.46610  0.01560  0.18720  1.0000
  H   H10       1.0  0.03390  0.98440  0.68720  1.0000
  H   H11       1.0  0.53390  0.51560  0.31280  1.0000
  H   H12       1.0  0.96610  0.48440  0.81280  1.0000
  H   H13       1.0  0.53390  0.98440  0.81280  1.0000
  H   H14       1.0  0.96610  0.01560  0.31280  1.0000
  H   H15       1.0  0.46610  0.48440  0.68720  1.0000
  H   H16       1.0  0.03390  0.51560  0.18720  1.0000
  O   O9        1.0  0.34560  0.88570  0.95150  1.0000
  O   O10       1.0  0.15440  0.11430  0.45150  1.0000
  O   O11       1.0  0.65440  0.38570  0.54850  1.0000
  O   O12       1.0  0.84560  0.61430  0.04850  1.0000
  O   O13       1.0  0.65440  0.11430  0.04850  1.0000
  O   O14       1.0  0.84560  0.88570  0.54850  1.0000
  O   O15       1.0  0.34560  0.61430  0.45150  1.0000
  O   O16       1.0  0.15440  0.38570  0.95150  1.0000
  C   C33       1.0  0.37450  0.97360  0.09090  1.0000
  C   C34       1.0  0.12550  0.02640  0.59090  1.0000
  C   C35       1.0  0.62550  0.47360  0.40910  1.0000
  C   C36       1.0  0.87450  0.52640  0.90910  1.0000
  C   C37       1.0  0.62550  0.02640  0.90910  1.0000
  C   C38       1.0  0.87450  0.97360  0.40910  1.0000
  C   C39       1.0  0.37450  0.52640  0.59090  1.0000
  C   C40       1.0  0.12550  0.47360  0.09090  1.0000
  H   H17       1.0  0.44590  0.94460  0.07170  1.0000
  H   H18       1.0  0.05410  0.05540  0.57170  1.0000
  H   H19       1.0  0.55410  0.44460  0.42830  1.0000
  H   H20       1.0  0.94590  0.55540  0.92830  1.0000
  H   H21       1.0  0.55410  0.05540  0.92830  1.0000
  H   H22       1.0  0.94590  0.94460  0.42830  1.0000
  H   H23       1.0  0.44590  0.55540  0.57170  1.0000
  H   H24       1.0  0.05410  0.44460  0.07170  1.0000
  O   O17       1.0  0.34620  0.25450  0.36140  1.0000
  O   O18       1.0  0.15380  0.74550  0.86140  1.0000
  O   O19       1.0  0.65380  0.75450  0.13860  1.0000
  O   O20       1.0  0.84620  0.24550  0.63860  1.0000
  O   O21       1.0  0.65380  0.74550  0.63860  1.0000
  O   O22       1.0  0.84620  0.25450  0.13860  1.0000
  O   O23       1.0  0.34620  0.24550  0.86140  1.0000
  O   O24       1.0  0.15380  0.75450  0.36140  1.0000
  C   C41       1.0  0.27690  0.05740  0.18720  1.0000
  C   C42       1.0  0.22310  0.94260  0.68720  1.0000
  C   C43       1.0  0.72310  0.55740  0.31280  1.0000
  C   C44       1.0  0.77690  0.44260  0.81280  1.0000
  C   C45       1.0  0.72310  0.94260  0.81280  1.0000
  C   C46       1.0  0.77690  0.05740  0.31280  1.0000
  C   C47       1.0  0.27690  0.44260  0.68720  1.0000
  C   C48       1.0  0.22310  0.55740  0.18720  1.0000
  C   C49       1.0  0.25560  0.97340  0.04780  1.0000
  C   C50       1.0  0.24440  0.02660  0.54780  1.0000
  C   C51       1.0  0.74440  0.47340  0.45220  1.0000
  C   C52       1.0  0.75560  0.52660  0.95220  1.0000
  C   C53       1.0  0.74440  0.02660  0.95220  1.0000
  C   C54       1.0  0.75560  0.97340  0.45220  1.0000
  C   C55       1.0  0.25560  0.52660  0.54780  1.0000
  C   C56       1.0  0.24440  0.47340  0.04780  1.0000
  C   C57       1.0  0.36460  0.29930  0.30170  1.0000
  C   C58       1.0  0.13540  0.70070  0.80170  1.0000
  C   C59       1.0  0.63540  0.79930  0.19830  1.0000
  C   C60       1.0  0.86460  0.20070  0.69830  1.0000
  C   C61       1.0  0.63540  0.70070  0.69830  1.0000
  C   C62       1.0  0.86460  0.29930  0.19830  1.0000
  C   C63       1.0  0.36460  0.20070  0.80170  1.0000
  C   C64       1.0  0.13540  0.79930  0.30170  1.0000
  O   O25       1.0  0.41830  0.27270  0.24200  1.0000
  O   O26       1.0  0.08170  0.72730  0.74200  1.0000
  O   O27       1.0  0.58170  0.77270  0.25800  1.0000
  O   O28       1.0  0.91830  0.22730  0.75800  1.0000
  O   O29       1.0  0.58170  0.72730  0.75800  1.0000
  O   O30       1.0  0.91830  0.27270  0.25800  1.0000
  O   O31       1.0  0.41830  0.22730  0.74200  1.0000
  O   O32       1.0  0.08170  0.77270  0.24200  1.0000
  C   C65       1.0  0.31640  0.38490  0.30530  1.0000
  C   C66       1.0  0.18360  0.61510  0.80530  1.0000
  C   C67       1.0  0.68360  0.88490  0.19470  1.0000
  C   C68       1.0  0.81640  0.11510  0.69470  1.0000
  C   C69       1.0  0.68360  0.61510  0.69470  1.0000
  C   C70       1.0  0.81640  0.38490  0.19470  1.0000
  C   C71       1.0  0.31640  0.11510  0.80530  1.0000
  C   C72       1.0  0.18360  0.88490  0.30530  1.0000
  H   H25       1.0  0.35600  0.41590  0.26390  1.0000
  H   H26       1.0  0.14400  0.58410  0.76390  1.0000
  H   H27       1.0  0.64400  0.91590  0.23610  1.0000
  H   H28       1.0  0.85600  0.08410  0.73610  1.0000
  H   H29       1.0  0.64400  0.58410  0.73610  1.0000
  H   H30       1.0  0.85600  0.41590  0.23610  1.0000
  H   H31       1.0  0.35600  0.08410  0.76390  1.0000
  H   H32       1.0  0.14400  0.91590  0.26390  1.0000
  H   H33       1.0  0.33960  0.40830  0.35500  1.0000
  H   H34       1.0  0.16040  0.59170  0.85500  1.0000
  H   H35       1.0  0.66040  0.90830  0.14500  1.0000
  H   H36       1.0  0.83960  0.09170  0.64500  1.0000
  H   H37       1.0  0.66040  0.59170  0.64500  1.0000
  H   H38       1.0  0.83960  0.40830  0.14500  1.0000
  H   H39       1.0  0.33960  0.09170  0.85500  1.0000
  H   H40       1.0  0.16040  0.90830  0.35500  1.0000
  H   H41       1.0  0.22270  0.38560  0.29940  1.0000
  H   H42       1.0  0.27730  0.61440  0.79940  1.0000
  H   H43       1.0  0.77730  0.88560  0.20060  1.0000
  H   H44       1.0  0.72270  0.11440  0.70060  1.0000
  H   H45       1.0  0.77730  0.61440  0.70060  1.0000
  H   H46       1.0  0.72270  0.38560  0.20060  1.0000
  H   H47       1.0  0.22270  0.11440  0.79940  1.0000
  H   H48       1.0  0.27730  0.88560  0.29940  1.0000
