data_image0
_chemical_formula_structural       C96O192Fe16Co8
_chemical_formula_sum              "C96 O192 Fe16 Co8"
_cell_length_a       39.364
_cell_length_b       48.759
_cell_length_c       9.4875
_cell_angle_alpha    90
_cell_angle_beta     90
_cell_angle_gamma    90

_space_group_name_H-M_alt    "P 1"
_space_group_IT_number       1

loop_
  _space_group_symop_operation_xyz
  'x, y, z'

loop_
  _atom_site_type_symbol
  _atom_site_label
  _atom_site_symmetry_multiplicity
  _atom_site_fract_x
  _atom_site_fract_y
  _atom_site_fract_z
  _atom_site_occupancy
  C   C1        1.0  0.25130  0.12680  0.64520  1.0000
  C   C2        1.0  0.74870  0.87320  0.64520  1.0000
  C   C3        1.0  0.99870  0.37680  0.89520  1.0000
  C   C4        1.0  0.50130  0.12320  0.89520  1.0000
  C   C5        1.0  0.25130  0.62680  0.14520  1.0000
  C   C6        1.0  0.74870  0.37320  0.14520  1.0000
  C   C7        1.0  0.99870  0.87680  0.39520  1.0000
  C   C8        1.0  0.50130  0.62320  0.39520  1.0000
  C   C9        1.0  0.75130  0.12680  0.14520  1.0000
  C   C10       1.0  0.24870  0.87320  0.14520  1.0000
  C   C11       1.0  0.49870  0.37680  0.39520  1.0000
  C   C12       1.0  0.00130  0.12320  0.39520  1.0000
  C   C13       1.0  0.75130  0.62680  0.64520  1.0000
  C   C14       1.0  0.24870  0.37320  0.64520  1.0000
  C   C15       1.0  0.49870  0.87680  0.89520  1.0000
  C   C16       1.0  0.00130  0.62320  0.89520  1.0000
  C   C17       1.0  0.28490  0.12940  0.57370  1.0000
  C   C18       1.0  0.71510  0.87060  0.57370  1.0000
  C   C19       1.0  0.96510  0.37940  0.82370  1.0000
  C   C20       1.0  0.53490  0.12060  0.82370  1.0000
  C   C21       1.0  0.28490  0.62940  0.07370  1.0000
  C   C22       1.0  0.71510  0.37060  0.07370  1.0000
  C   C23       1.0  0.96510  0.87940  0.32370  1.0000
  C   C24       1.0  0.53490  0.62060  0.32370  1.0000
  C   C25       1.0  0.78490  0.12940  0.07370  1.0000
  C   C26       1.0  0.21510  0.87060  0.07370  1.0000
  C   C27       1.0  0.46510  0.37940  0.32370  1.0000
  C   C28       1.0  0.03490  0.12060  0.32370  1.0000
  C   C29       1.0  0.78490  0.62940  0.57370  1.0000
  C   C30       1.0  0.21510  0.37060  0.57370  1.0000
  C   C31       1.0  0.46510  0.87940  0.82370  1.0000
  C   C32       1.0  0.03490  0.62060  0.82370  1.0000
  C   C33       1.0  0.24310  0.20220  0.37230  1.0000
  C   C34       1.0  0.75690  0.79780  0.37230  1.0000
  C   C35       1.0  0.00690  0.45220  0.62230  1.0000
  C   C36       1.0  0.49310  0.04780  0.62230  1.0000
  C   C37       1.0  0.24310  0.70220  0.87230  1.0000
  C   C38       1.0  0.75690  0.29780  0.87230  1.0000
  C   C39       1.0  0.00690  0.95220  0.12230  1.0000
  C   C40       1.0  0.49310  0.54780  0.12230  1.0000
  C   C41       1.0  0.74310  0.20220  0.87230  1.0000
  C   C42       1.0  0.25690  0.79780  0.87230  1.0000
  C   C43       1.0  0.50690  0.45220  0.12230  1.0000
  C   C44       1.0  0.99310  0.04780  0.12230  1.0000
  C   C45       1.0  0.74310  0.70220  0.37230  1.0000
  C   C46       1.0  0.25690  0.29780  0.37230  1.0000
  C   C47       1.0  0.50690  0.95220  0.62230  1.0000
  C   C48       1.0  0.99310  0.54780  0.62230  1.0000
  C   C49       1.0  0.27420  0.21960  0.41410  1.0000
  C   C50       1.0  0.72580  0.78040  0.41410  1.0000
  C   C51       1.0  0.97580  0.46960  0.66410  1.0000
  C   C52       1.0  0.52420  0.03040  0.66410  1.0000
  C   C53       1.0  0.27420  0.71960  0.91410  1.0000
  C   C54       1.0  0.72580  0.28040  0.91410  1.0000
  C   C55       1.0  0.97580  0.96960  0.16410  1.0000
  C   C56       1.0  0.52420  0.53040  0.16410  1.0000
  C   C57       1.0  0.77420  0.21960  0.91410  1.0000
  C   C58       1.0  0.22580  0.78040  0.91410  1.0000
  C   C59       1.0  0.47580  0.46960  0.16410  1.0000
  C   C60       1.0  0.02420  0.03040  0.16410  1.0000
  C   C61       1.0  0.77420  0.71960  0.41410  1.0000
  C   C62       1.0  0.22580  0.28040  0.41410  1.0000
  C   C63       1.0  0.47580  0.96960  0.66410  1.0000
  C   C64       1.0  0.02420  0.53040  0.66410  1.0000
  C   C65       1.0  0.23790  0.21340  0.85750  1.0000
  C   C66       1.0  0.76210  0.78660  0.85750  1.0000
  C   C67       1.0  0.01210  0.46340  0.10750  1.0000
  C   C68       1.0  0.48790  0.03660  0.10750  1.0000
  C   C69       1.0  0.23790  0.71340  0.35750  1.0000
  C   C70       1.0  0.76210  0.28660  0.35750  1.0000
  C   C71       1.0  0.01210  0.96340  0.60750  1.0000
  C   C72       1.0  0.48790  0.53660  0.60750  1.0000
  C   C73       1.0  0.73790  0.21340  0.35750  1.0000
  C   C74       1.0  0.26210  0.78660  0.35750  1.0000
  C   C75       1.0  0.51210  0.46340  0.60750  1.0000
  C   C76       1.0  0.98790  0.03660  0.60750  1.0000
  C   C77       1.0  0.73790  0.71340  0.85750  1.0000
  C   C78       1.0  0.26210  0.28660  0.85750  1.0000
  C   C79       1.0  0.51210  0.96340  0.10750  1.0000
  C   C80       1.0  0.98790  0.53660  0.10750  1.0000
  C   C81       1.0  0.27540  0.20540  0.90850  1.0000
  C   C82       1.0  0.72460  0.79460  0.90850  1.0000
  C   C83       1.0  0.97460  0.45540  0.15850  1.0000
  C   C84       1.0  0.52540  0.04460  0.15850  1.0000
  C   C85       1.0  0.27540  0.70540  0.40850  1.0000
  C   C86       1.0  0.72460  0.29460  0.40850  1.0000
  C   C87       1.0  0.97460  0.95540  0.65850  1.0000
  C   C88       1.0  0.52540  0.54460  0.65850  1.0000
  C   C89       1.0  0.77540  0.20540  0.40850  1.0000
  C   C90       1.0  0.22460  0.79460  0.40850  1.0000
  C   C91       1.0  0.47460  0.45540  0.65850  1.0000
  C   C92       1.0  0.02540  0.04460  0.65850  1.0000
  C   C93       1.0  0.77540  0.70540  0.90850  1.0000
  C   C94       1.0  0.22460  0.29460  0.90850  1.0000
  C   C95       1.0  0.47460  0.95540  0.15850  1.0000
  C   C96       1.0  0.02540  0.54460  0.15850  1.0000
  O   O1        1.0  0.30100  0.10910  0.53170  1.0000
  O   O2        1.0  0.69900  0.89090  0.53170  1.0000
  O   O3        1.0  0.94900  0.35910  0.78170  1.0000
  O   O4        1.0  0.55100  0.14090  0.78170  1.0000
  O   O5        1.0  0.30100  0.60910  0.03170  1.0000
  O   O6        1.0  0.69900  0.39090  0.03170  1.0000
  O   O7        1.0  0.94900  0.85910  0.28170  1.0000
  O   O8        1.0  0.55100  0.64090  0.28170  1.0000
  O   O9        1.0  0.80100  0.10910  0.03170  1.0000
  O   O10       1.0  0.19900  0.89090  0.03170  1.0000
  O   O11       1.0  0.44900  0.35910  0.28170  1.0000
  O   O12       1.0  0.05100  0.14090  0.28170  1.0000
  O   O13       1.0  0.80100  0.60910  0.53170  1.0000
  O   O14       1.0  0.19900  0.39090  0.53170  1.0000
  O   O15       1.0  0.44900  0.85910  0.78170  1.0000
  O   O16       1.0  0.05100  0.64090  0.78170  1.0000
  O   O17       1.0  0.23790  0.10270  0.65790  1.0000
  O   O18       1.0  0.76210  0.89730  0.65790  1.0000
  O   O19       1.0  0.01210  0.35270  0.90790  1.0000
  O   O20       1.0  0.48790  0.14730  0.90790  1.0000
  O   O21       1.0  0.23790  0.60270  0.15790  1.0000
  O   O22       1.0  0.76210  0.39730  0.15790  1.0000
  O   O23       1.0  0.01210  0.85270  0.40790  1.0000
  O   O24       1.0  0.48790  0.64730  0.40790  1.0000
  O   O25       1.0  0.73790  0.10270  0.15790  1.0000
  O   O26       1.0  0.26210  0.89730  0.15790  1.0000
  O   O27       1.0  0.51210  0.35270  0.40790  1.0000
  O   O28       1.0  0.98790  0.14730  0.40790  1.0000
  O   O29       1.0  0.73790  0.60270  0.65790  1.0000
  O   O30       1.0  0.26210  0.39730  0.65790  1.0000
  O   O31       1.0  0.51210  0.85270  0.90790  1.0000
  O   O32       1.0  0.98790  0.64730  0.90790  1.0000
  O   O33       1.0  0.23740  0.14780  0.68960  1.0000
  O   O34       1.0  0.76260  0.85220  0.68960  1.0000
  O   O35       1.0  0.01260  0.39780  0.93960  1.0000
  O   O36       1.0  0.48740  0.10220  0.93960  1.0000
  O   O37       1.0  0.23740  0.64780  0.18960  1.0000
  O   O38       1.0  0.76260  0.35220  0.18960  1.0000
  O   O39       1.0  0.01260  0.89780  0.43960  1.0000
  O   O40       1.0  0.48740  0.60220  0.43960  1.0000
  O   O41       1.0  0.73740  0.14780  0.18960  1.0000
  O   O42       1.0  0.26260  0.85220  0.18960  1.0000
  O   O43       1.0  0.51260  0.39780  0.43960  1.0000
  O   O44       1.0  0.98740  0.10220  0.43960  1.0000
  O   O45       1.0  0.73740  0.64780  0.68960  1.0000
  O   O46       1.0  0.26260  0.35220  0.68960  1.0000
  O   O47       1.0  0.51260  0.89780  0.93960  1.0000
  O   O48       1.0  0.98740  0.60220  0.93960  1.0000
  O   O49       1.0  0.29440  0.15390  0.56390  1.0000
  O   O50       1.0  0.70560  0.84610  0.56390  1.0000
  O   O51       1.0  0.95560  0.40390  0.81390  1.0000
  O   O52       1.0  0.54440  0.09610  0.81390  1.0000
  O   O53       1.0  0.29440  0.65390  0.06390  1.0000
  O   O54       1.0  0.70560  0.34610  0.06390  1.0000
  O   O55       1.0  0.95560  0.90390  0.31390  1.0000
  O   O56       1.0  0.54440  0.59610  0.31390  1.0000
  O   O57       1.0  0.79440  0.15390  0.06390  1.0000
  O   O58       1.0  0.20560  0.84610  0.06390  1.0000
  O   O59       1.0  0.45560  0.40390  0.31390  1.0000
  O   O60       1.0  0.04440  0.09610  0.31390  1.0000
  O   O61       1.0  0.79440  0.65390  0.56390  1.0000
  O   O62       1.0  0.20560  0.34610  0.56390  1.0000
  O   O63       1.0  0.45560  0.90390  0.81390  1.0000
  O   O64       1.0  0.04440  0.59610  0.81390  1.0000
  O   O65       1.0  0.28550  0.21260  0.53560  1.0000
  O   O66       1.0  0.71450  0.78740  0.53560  1.0000
  O   O67       1.0  0.96450  0.46260  0.78560  1.0000
  O   O68       1.0  0.53550  0.03740  0.78560  1.0000
  O   O69       1.0  0.28550  0.71260  0.03560  1.0000
  O   O70       1.0  0.71450  0.28740  0.03560  1.0000
  O   O71       1.0  0.96450  0.96260  0.28560  1.0000
  O   O72       1.0  0.53550  0.53740  0.28560  1.0000
  O   O73       1.0  0.78550  0.21260  0.03560  1.0000
  O   O74       1.0  0.21450  0.78740  0.03560  1.0000
  O   O75       1.0  0.46450  0.46260  0.28560  1.0000
  O   O76       1.0  0.03550  0.03740  0.28560  1.0000
  O   O77       1.0  0.78550  0.71260  0.53560  1.0000
  O   O78       1.0  0.21450  0.28740  0.53560  1.0000
  O   O79       1.0  0.46450  0.96260  0.78560  1.0000
  O   O80       1.0  0.03550  0.53740  0.78560  1.0000
  O   O81       1.0  0.23320  0.18429  0.45920  1.0000
  O   O82       1.0  0.76680  0.81571  0.45920  1.0000
  O   O83       1.0  0.01680  0.43429  0.70920  1.0000
  O   O84       1.0  0.48320  0.06571  0.70920  1.0000
  O   O85       1.0  0.23320  0.68429  0.95920  1.0000
  O   O86       1.0  0.76680  0.31571  0.95920  1.0000
  O   O87       1.0  0.01680  0.93429  0.20920  1.0000
  O   O88       1.0  0.48320  0.56571  0.20920  1.0000
  O   O89       1.0  0.73320  0.18429  0.95920  1.0000
  O   O90       1.0  0.26680  0.81571  0.95920  1.0000
  O   O91       1.0  0.51680  0.43429  0.20920  1.0000
  O   O92       1.0  0.98320  0.06571  0.20920  1.0000
  O   O93       1.0  0.73320  0.68429  0.45920  1.0000
  O   O94       1.0  0.26680  0.31571  0.45920  1.0000
  O   O95       1.0  0.51680  0.93429  0.70920  1.0000
  O   O96       1.0  0.98320  0.56571  0.70920  1.0000
  O   O97       1.0  0.22940  0.20716  0.25870  1.0000
  O   O98       1.0  0.77060  0.79284  0.25870  1.0000
  O   O99       1.0  0.02060  0.45716  0.50870  1.0000
  O   O100      1.0  0.47940  0.04284  0.50870  1.0000
  O   O101      1.0  0.22940  0.70716  0.75870  1.0000
  O   O102      1.0  0.77060  0.29284  0.75870  1.0000
  O   O103      1.0  0.02060  0.95716  0.00870  1.0000
  O   O104      1.0  0.47940  0.54284  0.00870  1.0000
  O   O105      1.0  0.72940  0.20716  0.75870  1.0000
  O   O106      1.0  0.27060  0.79284  0.75870  1.0000
  O   O107      1.0  0.52060  0.45716  0.00870  1.0000
  O   O108      1.0  0.97940  0.04284  0.00870  1.0000
  O   O109      1.0  0.72940  0.70716  0.25870  1.0000
  O   O110      1.0  0.27060  0.29284  0.25870  1.0000
  O   O111      1.0  0.52060  0.95716  0.50870  1.0000
  O   O112      1.0  0.97940  0.54284  0.50870  1.0000
  O   O113      1.0  0.28530  0.23670  0.33670  1.0000
  O   O114      1.0  0.71470  0.76330  0.33670  1.0000
  O   O115      1.0  0.96470  0.48670  0.58670  1.0000
  O   O116      1.0  0.53530  0.01330  0.58670  1.0000
  O   O117      1.0  0.28530  0.73670  0.83670  1.0000
  O   O118      1.0  0.71470  0.26330  0.83670  1.0000
  O   O119      1.0  0.96470  0.98670  0.08670  1.0000
  O   O120      1.0  0.53530  0.51330  0.08670  1.0000
  O   O121      1.0  0.78530  0.23670  0.83670  1.0000
  O   O122      1.0  0.21470  0.76330  0.83670  1.0000
  O   O123      1.0  0.46470  0.48670  0.08670  1.0000
  O   O124      1.0  0.03530  0.01330  0.08670  1.0000
  O   O125      1.0  0.78530  0.73670  0.33670  1.0000
  O   O126      1.0  0.21470  0.26330  0.33670  1.0000
  O   O127      1.0  0.46470  0.98670  0.58670  1.0000
  O   O128      1.0  0.03530  0.51330  0.58670  1.0000
  O   O129      1.0  0.28910  0.18850  0.81450  1.0000
  O   O130      1.0  0.71090  0.81150  0.81450  1.0000
  O   O131      1.0  0.96090  0.43850  0.06450  1.0000
  O   O132      1.0  0.53910  0.06150  0.06450  1.0000
  O   O133      1.0  0.28910  0.68850  0.31450  1.0000
  O   O134      1.0  0.71090  0.31150  0.31450  1.0000
  O   O135      1.0  0.96090  0.93850  0.56450  1.0000
  O   O136      1.0  0.53910  0.56150  0.56450  1.0000
  O   O137      1.0  0.78910  0.18850  0.31450  1.0000
  O   O138      1.0  0.21090  0.81150  0.31450  1.0000
  O   O139      1.0  0.46090  0.43850  0.56450  1.0000
  O   O140      1.0  0.03910  0.06150  0.56450  1.0000
  O   O141      1.0  0.78910  0.68850  0.81450  1.0000
  O   O142      1.0  0.21090  0.31150  0.81450  1.0000
  O   O143      1.0  0.46090  0.93850  0.06450  1.0000
  O   O144      1.0  0.03910  0.56150  0.06450  1.0000
  O   O145      1.0  0.22840  0.20462  0.73890  1.0000
  O   O146      1.0  0.77160  0.79538  0.73890  1.0000
  O   O147      1.0  0.02160  0.45462  0.98890  1.0000
  O   O148      1.0  0.47840  0.04538  0.98890  1.0000
  O   O149      1.0  0.22840  0.70462  0.23890  1.0000
  O   O150      1.0  0.77160  0.29538  0.23890  1.0000
  O   O151      1.0  0.02160  0.95462  0.48890  1.0000
  O   O152      1.0  0.47840  0.54538  0.48890  1.0000
  O   O153      1.0  0.72840  0.20462  0.23890  1.0000
  O   O154      1.0  0.27160  0.79538  0.23890  1.0000
  O   O155      1.0  0.52160  0.45462  0.48890  1.0000
  O   O156      1.0  0.97840  0.04538  0.48890  1.0000
  O   O157      1.0  0.72840  0.70462  0.73890  1.0000
  O   O158      1.0  0.27160  0.29538  0.73890  1.0000
  O   O159      1.0  0.52160  0.95462  0.98890  1.0000
  O   O160      1.0  0.97840  0.54538  0.98890  1.0000
  O   O161      1.0  0.28630  0.21290  0.02050  1.0000
  O   O162      1.0  0.71370  0.78710  0.02050  1.0000
  O   O163      1.0  0.96370  0.46290  0.27050  1.0000
  O   O164      1.0  0.53630  0.03710  0.27050  1.0000
  O   O165      1.0  0.28630  0.71290  0.52050  1.0000
  O   O166      1.0  0.71370  0.28710  0.52050  1.0000
  O   O167      1.0  0.96370  0.96290  0.77050  1.0000
  O   O168      1.0  0.53630  0.53710  0.77050  1.0000
  O   O169      1.0  0.78630  0.21290  0.52050  1.0000
  O   O170      1.0  0.21370  0.78710  0.52050  1.0000
  O   O171      1.0  0.46370  0.46290  0.77050  1.0000
  O   O172      1.0  0.03630  0.03710  0.77050  1.0000
  O   O173      1.0  0.78630  0.71290  0.02050  1.0000
  O   O174      1.0  0.21370  0.28710  0.02050  1.0000
  O   O175      1.0  0.46370  0.96290  0.27050  1.0000
  O   O176      1.0  0.03630  0.53710  0.27050  1.0000
  O   O177      1.0  0.22180  0.22870  0.94240  1.0000
  O   O178      1.0  0.77820  0.77130  0.94240  1.0000
  O   O179      1.0  0.02820  0.47870  0.19240  1.0000
  O   O180      1.0  0.47180  0.02130  0.19240  1.0000
  O   O181      1.0  0.22180  0.72870  0.44240  1.0000
  O   O182      1.0  0.77820  0.27130  0.44240  1.0000
  O   O183      1.0  0.02820  0.97870  0.69240  1.0000
  O   O184      1.0  0.47180  0.52130  0.69240  1.0000
  O   O185      1.0  0.72180  0.22870  0.44240  1.0000
  O   O186      1.0  0.27820  0.77130  0.44240  1.0000
  O   O187      1.0  0.52820  0.47870  0.69240  1.0000
  O   O188      1.0  0.97180  0.02130  0.69240  1.0000
  O   O189      1.0  0.72180  0.72870  0.94240  1.0000
  O   O190      1.0  0.27820  0.27130  0.94240  1.0000
  O   O191      1.0  0.52820  0.97870  0.19240  1.0000
  O   O192      1.0  0.97180  0.52130  0.19240  1.0000
  Fe  Fe1       1.0  0.26217  0.18159  0.63600  1.0000
  Fe  Fe2       1.0  0.73783  0.81841  0.63600  1.0000
  Fe  Fe3       1.0  0.98783  0.43159  0.88600  1.0000
  Fe  Fe4       1.0  0.51217  0.06841  0.88600  1.0000
  Fe  Fe5       1.0  0.26217  0.68159  0.13600  1.0000
  Fe  Fe6       1.0  0.73783  0.31841  0.13600  1.0000
  Fe  Fe7       1.0  0.98783  0.93159  0.38600  1.0000
  Fe  Fe8       1.0  0.51217  0.56841  0.38600  1.0000
  Fe  Fe9       1.0  0.76217  0.18159  0.13600  1.0000
  Fe  Fe10      1.0  0.23783  0.81841  0.13600  1.0000
  Fe  Fe11      1.0  0.48783  0.43159  0.38600  1.0000
  Fe  Fe12      1.0  0.01217  0.06841  0.38600  1.0000
  Fe  Fe13      1.0  0.76217  0.68159  0.63600  1.0000
  Fe  Fe14      1.0  0.23783  0.31841  0.63600  1.0000
  Fe  Fe15      1.0  0.48783  0.93159  0.88600  1.0000
  Fe  Fe16      1.0  0.01217  0.56841  0.88600  1.0000
  Co  Co1       1.0  0.25000  0.25000  0.13750  1.0000
  Co  Co2       1.0  0.75000  0.75000  0.13750  1.0000
  Co  Co3       1.0  0.00000  0.50000  0.38750  1.0000
  Co  Co4       1.0  0.50000  1.00000  0.38750  1.0000
  Co  Co5       1.0  0.25000  0.75000  0.63750  1.0000
  Co  Co6       1.0  0.75000  0.25000  0.63750  1.0000
  Co  Co7       1.0  0.00000  0.00000  0.88750  1.0000
  Co  Co8       1.0  0.50000  0.50000  0.88750  1.0000
