data_image0
_chemical_formula_structural       C12O32U4
_chemical_formula_sum              "C12 O32 U4"
_cell_length_a       9.46
_cell_length_b       13.61
_cell_length_c       6.12
_cell_angle_alpha    90
_cell_angle_beta     92.7
_cell_angle_gamma    90

_space_group_name_H-M_alt    "P 1"
_space_group_IT_number       1

loop_
  _space_group_symop_operation_xyz
  'x, y, z'

loop_
  _atom_site_type_symbol
  _atom_site_label
  _atom_site_symmetry_multiplicity
  _atom_site_fract_x
  _atom_site_fract_y
  _atom_site_fract_z
  _atom_site_occupancy
  C   C1        1.0  0.09600  0.31700  0.54000  1.0000
  C   C2        1.0  0.40400  0.81700  0.96000  1.0000
  C   C3        1.0  0.90400  0.68300  0.46000  1.0000
  C   C4        1.0  0.59600  0.18300  0.04000  1.0000
  C   C5        1.0  0.13800  0.40300  0.44500  1.0000
  C   C6        1.0  0.36200  0.90300  0.05500  1.0000
  C   C7        1.0  0.86200  0.59700  0.55500  1.0000
  C   C8        1.0  0.63800  0.09700  0.94500  1.0000
  C   C9        1.0  0.00200  0.99200  0.12800  1.0000
  C   C10       1.0  0.49800  0.49200  0.37200  1.0000
  C   C11       1.0  0.99800  0.00800  0.87200  1.0000
  C   C12       1.0  0.50200  0.50800  0.62800  1.0000
  O   O1        1.0  0.88600  0.24800  0.99200  1.0000
  O   O2        1.0  0.61400  0.74800  0.50800  1.0000
  O   O3        1.0  0.11400  0.75200  0.00800  1.0000
  O   O4        1.0  0.38600  0.25200  0.49200  1.0000
  O   O5        1.0  0.24100  0.20600  0.16900  1.0000
  O   O6        1.0  0.25900  0.70600  0.33100  1.0000
  O   O7        1.0  0.75900  0.79400  0.83100  1.0000
  O   O8        1.0  0.74100  0.29400  0.66900  1.0000
  O   O9        1.0  0.01040  0.06700  0.23500  1.0000
  O   O10       1.0  0.48960  0.56700  0.26500  1.0000
  O   O11       1.0  0.98960  0.93300  0.76500  1.0000
  O   O12       1.0  0.51040  0.43300  0.73500  1.0000
  O   O13       1.0  0.96900  0.90200  0.18700  1.0000
  O   O14       1.0  0.53100  0.40200  0.31300  1.0000
  O   O15       1.0  0.03100  0.09800  0.81300  1.0000
  O   O16       1.0  0.46900  0.59800  0.68700  1.0000
  O   O17       1.0  0.09300  0.32200  0.77800  1.0000
  O   O18       1.0  0.40700  0.82200  0.72200  1.0000
  O   O19       1.0  0.90700  0.67800  0.22200  1.0000
  O   O20       1.0  0.59300  0.17800  0.27800  1.0000
  O   O21       1.0  0.11200  0.38700  0.23500  1.0000
  O   O22       1.0  0.38800  0.88700  0.26500  1.0000
  O   O23       1.0  0.88800  0.61300  0.76500  1.0000
  O   O24       1.0  0.61200  0.11300  0.73500  1.0000
  O   O25       1.0  0.19300  0.47900  0.50600  1.0000
  O   O26       1.0  0.30700  0.97900  0.99400  1.0000
  O   O27       1.0  0.80700  0.52100  0.49400  1.0000
  O   O28       1.0  0.69300  0.02100  0.00600  1.0000
  O   O29       1.0  0.06300  0.23400  0.46800  1.0000
  O   O30       1.0  0.43700  0.73400  0.03200  1.0000
  O   O31       1.0  0.93700  0.76600  0.53200  1.0000
  O   O32       1.0  0.56300  0.26600  0.96800  1.0000
  U   U1        1.0  0.06390  0.22650  0.08810  1.0000
  U   U2        1.0  0.43610  0.72650  0.41190  1.0000
  U   U3        1.0  0.93610  0.77350  0.91190  1.0000
  U   U4        1.0  0.56390  0.27350  0.58810  1.0000
