data_image0
_chemical_formula_structural       Cu4O24C12
_chemical_formula_sum              "Cu4 O24 C12"
_cell_length_a       9.2012
_cell_length_b       22.3423
_cell_length_c       9.3043
_cell_angle_alpha    90
_cell_angle_beta     118.763
_cell_angle_gamma    90

_space_group_name_H-M_alt    "P 1"
_space_group_IT_number       1

loop_
  _space_group_symop_operation_xyz
  'x, y, z'

loop_
  _atom_site_type_symbol
  _atom_site_label
  _atom_site_symmetry_multiplicity
  _atom_site_fract_x
  _atom_site_fract_y
  _atom_site_fract_z
  _atom_site_occupancy
  Cu  Cu1       1.0  0.00691  0.33735  0.16063  1.0000
  Cu  Cu2       1.0  0.99309  0.83735  0.83937  1.0000
  Cu  Cu3       1.0  0.34207  0.34616  0.82000  1.0000
  Cu  Cu4       1.0  0.65793  0.84616  0.18000  1.0000
  O   O1        1.0  0.03230  0.39380  0.99340  1.0000
  O   O2        1.0  0.96770  0.89380  0.00660  1.0000
  O   O3        1.0  0.18000  0.28970  0.12880  1.0000
  O   O4        1.0  0.82000  0.78970  0.87120  1.0000
  O   O5        1.0  0.16940  0.39640  0.85220  1.0000
  O   O6        1.0  0.83060  0.89640  0.14780  1.0000
  O   O7        1.0  0.32100  0.29370  0.99330  1.0000
  O   O8        1.0  0.67900  0.79370  0.00670  1.0000
  O   O9        1.0  0.53960  0.39310  0.99530  1.0000
  O   O10       1.0  0.46040  0.89310  0.00470  1.0000
  O   O11       1.0  0.53880  0.29440  0.83510  1.0000
  O   O12       1.0  0.46120  0.79440  0.16490  1.0000
  O   O13       1.0  0.81470  0.38910  0.14370  1.0000
  O   O14       1.0  0.18530  0.88910  0.85630  1.0000
  O   O15       1.0  0.81190  0.28920  0.97920  1.0000
  O   O16       1.0  0.18810  0.78920  0.02080  1.0000
  O   O17       1.0  0.16450  0.29310  0.63010  1.0000
  O   O18       1.0  0.83550  0.79310  0.36990  1.0000
  O   O19       1.0  0.31530  0.39360  0.61910  1.0000
  O   O20       1.0  0.68470  0.89360  0.38090  1.0000
  O   O21       1.0  0.03430  0.28810  0.36330  1.0000
  O   O22       1.0  0.96570  0.78810  0.63670  1.0000
  O   O23       1.0  0.17830  0.39060  0.34840  1.0000
  O   O24       1.0  0.82170  0.89060  0.65160  1.0000
  C   C1        1.0  0.13120  0.37300  0.95110  1.0000
  C   C2        1.0  0.86880  0.87300  0.04890  1.0000
  C   C3        1.0  0.21750  0.31430  0.03110  1.0000
  C   C4        1.0  0.78250  0.81430  0.96890  1.0000
  C   C5        1.0  0.67550  0.37030  0.03500  1.0000
  C   C6        1.0  0.32450  0.87030  0.96500  1.0000
  C   C7        1.0  0.67560  0.31320  0.94260  1.0000
  C   C8        1.0  0.32440  0.81320  0.05740  1.0000
  C   C9        1.0  0.13040  0.31230  0.49430  1.0000
  C   C10       1.0  0.86960  0.81230  0.50570  1.0000
  C   C11       1.0  0.21590  0.37110  0.48690  1.0000
  C   C12       1.0  0.78410  0.87110  0.51310  1.0000
