data_image0
_chemical_formula_structural       C36O72Cu12
_chemical_formula_sum              "C36 O72 Cu12"
_cell_length_a       15.8751
_cell_length_b       21.9791
_cell_length_c       16.1073
_cell_angle_alpha    90
_cell_angle_beta     118.381
_cell_angle_gamma    90

_space_group_name_H-M_alt    "P 1"
_space_group_IT_number       1

loop_
  _space_group_symop_operation_xyz
  'x, y, z'

loop_
  _atom_site_type_symbol
  _atom_site_label
  _atom_site_symmetry_multiplicity
  _atom_site_fract_x
  _atom_site_fract_y
  _atom_site_fract_z
  _atom_site_occupancy
  C   C1        1.0  0.44950  0.42650  0.08380  1.0000
  C   C2        1.0  0.55050  0.92650  0.91620  1.0000
  C   C3        1.0  0.42020  0.36700  0.02470  1.0000
  C   C4        1.0  0.57980  0.86700  0.97530  1.0000
  C   C5        1.0  0.78700  0.43320  0.21470  1.0000
  C   C6        1.0  0.21300  0.93320  0.78530  1.0000
  C   C7        1.0  0.74600  0.37280  0.23070  1.0000
  C   C8        1.0  0.25400  0.87280  0.76930  1.0000
  C   C9        1.0  0.90020  0.43050  0.54540  1.0000
  C   C10       1.0  0.09980  0.93050  0.45460  1.0000
  C   C11       1.0  0.96530  0.37330  0.57570  1.0000
  C   C12       1.0  0.03470  0.87330  0.42430  1.0000
  C   C13       1.0  0.77430  0.43000  0.75050  1.0000
  C   C14       1.0  0.22570  0.93000  0.24950  1.0000
  C   C15       1.0  0.75950  0.36950  0.69700  1.0000
  C   C16       1.0  0.24050  0.86950  0.30300  1.0000
  C   C17       1.0  0.44660  0.42960  0.53930  1.0000
  C   C18       1.0  0.55340  0.92960  0.46070  1.0000
  C   C19       1.0  0.41350  0.37110  0.56930  1.0000
  C   C20       1.0  0.58650  0.87110  0.43070  1.0000
  C   C21       1.0  0.23520  0.42790  0.20420  1.0000
  C   C22       1.0  0.76480  0.92790  0.79580  1.0000
  C   C23       1.0  0.29690  0.36980  0.24340  1.0000
  C   C24       1.0  0.70310  0.86980  0.75660  1.0000
  C   C25       1.0  0.11690  0.43560  0.87570  1.0000
  C   C26       1.0  0.88310  0.93560  0.12430  1.0000
  C   C27       1.0  0.09080  0.37510  0.90700  1.0000
  C   C28       1.0  0.90920  0.87510  0.09300  1.0000
  C   C29       1.0  0.56240  0.43490  0.87250  1.0000
  C   C30       1.0  0.43760  0.93490  0.12750  1.0000
  C   C31       1.0  0.62520  0.37670  0.89760  1.0000
  C   C32       1.0  0.37480  0.87670  0.10240  1.0000
  C   C33       1.0  0.11430  0.43440  0.42100  1.0000
  C   C34       1.0  0.88570  0.93440  0.57900  1.0000
  C   C35       1.0  0.08350  0.37380  0.36590  1.0000
  C   C36       1.0  0.91650  0.87380  0.63410  1.0000
  O   O1        1.0  0.39100  0.44650  0.10910  1.0000
  O   O2        1.0  0.60900  0.94650  0.89090  1.0000
  O   O3        1.0  0.33900  0.34648  0.00600  1.0000
  O   O4        1.0  0.66100  0.84648  0.99400  1.0000
  O   O5        1.0  0.52690  0.45132  0.10170  1.0000
  O   O6        1.0  0.47310  0.95132  0.89830  1.0000
  O   O7        1.0  0.47650  0.34402  0.00090  1.0000
  O   O8        1.0  0.52350  0.84402  0.99910  1.0000
  O   O9        1.0  0.74030  0.46031  0.13960  1.0000
  O   O10       1.0  0.25970  0.96031  0.86040  1.0000
  O   O11       1.0  0.66770  0.35503  0.16340  1.0000
  O   O12       1.0  0.33230  0.85503  0.83660  1.0000
  O   O13       1.0  0.86610  0.45075  0.28060  1.0000
  O   O14       1.0  0.13390  0.95075  0.71940  1.0000
  O   O15       1.0  0.79270  0.34579  0.30640  1.0000
  O   O16       1.0  0.20730  0.84579  0.69360  1.0000
  O   O17       1.0  0.86970  0.44750  0.46210  1.0000
  O   O18       1.0  0.13030  0.94750  0.53790  1.0000
  O   O19       1.0  0.98190  0.35120  0.51320  1.0000
  O   O20       1.0  0.01810  0.85120  0.48680  1.0000
  O   O21       1.0  0.88280  0.45480  0.60530  1.0000
  O   O22       1.0  0.11720  0.95480  0.39470  1.0000
  O   O23       1.0  0.99570  0.35290  0.65700  1.0000
  O   O24       1.0  0.00430  0.85290  0.34300  1.0000
  O   O25       1.0  0.85020  0.45816  0.77650  1.0000
  O   O26       1.0  0.14980  0.95816  0.22350  1.0000
  O   O27       1.0  0.82880  0.35218  0.68460  1.0000
  O   O28       1.0  0.17120  0.85218  0.31540  1.0000
  O   O29       1.0  0.70590  0.44820  0.76400  1.0000
  O   O30       1.0  0.29410  0.94820  0.23600  1.0000
  O   O31       1.0  0.68380  0.34150  0.66970  1.0000
  O   O32       1.0  0.31620  0.84150  0.33030  1.0000
  O   O33       1.0  0.52910  0.44770  0.59560  1.0000
  O   O34       1.0  0.47090  0.94770  0.40440  1.0000
  O   O35       1.0  0.47260  0.34890  0.64820  1.0000
  O   O36       1.0  0.52740  0.84890  0.35180  1.0000
  O   O37       1.0  0.39100  0.45350  0.46440  1.0000
  O   O38       1.0  0.60900  0.95350  0.53560  1.0000
  O   O39       1.0  0.33470  0.34940  0.51530  1.0000
  O   O40       1.0  0.66530  0.84940  0.48470  1.0000
  O   O41       1.0  0.20770  0.45449  0.25510  1.0000
  O   O42       1.0  0.79230  0.95449  0.74490  1.0000
  O   O43       1.0  0.31580  0.35410  0.32710  1.0000
  O   O44       1.0  0.68420  0.85410  0.67290  1.0000
  O   O45       1.0  0.21780  0.44480  0.12320  1.0000
  O   O46       1.0  0.78220  0.94480  0.87680  1.0000
  O   O47       1.0  0.32390  0.34300  0.19420  1.0000
  O   O48       1.0  0.67610  0.84300  0.80580  1.0000
  O   O49       1.0  0.19650  0.45770  0.92640  1.0000
  O   O50       1.0  0.80350  0.95770  0.07360  1.0000
  O   O51       1.0  0.14980  0.35153  0.98340  1.0000
  O   O52       1.0  0.85020  0.85153  0.01660  1.0000
  O   O53       1.0  0.05480  0.45764  0.79920  1.0000
  O   O54       1.0  0.94520  0.95764  0.20080  1.0000
  O   O55       1.0  0.01030  0.35340  0.85270  1.0000
  O   O56       1.0  0.98970  0.85340  0.14730  1.0000
  O   O57       1.0  0.54810  0.45658  0.93670  1.0000
  O   O58       1.0  0.45190  0.95658  0.06330  1.0000
  O   O59       1.0  0.65740  0.35740  0.98110  1.0000
  O   O60       1.0  0.34260  0.85740  0.01890  1.0000
  O   O61       1.0  0.52990  0.45550  0.79180  1.0000
  O   O62       1.0  0.47010  0.95550  0.20820  1.0000
  O   O63       1.0  0.63890  0.35230  0.83540  1.0000
  O   O64       1.0  0.36110  0.85230  0.16460  1.0000
  O   O65       1.0  0.06020  0.45860  0.44680  1.0000
  O   O66       1.0  0.93980  0.95860  0.55320  1.0000
  O   O67       1.0  0.00340  0.35230  0.34780  1.0000
  O   O68       1.0  0.99660  0.85230  0.65220  1.0000
  O   O69       1.0  0.19310  0.45610  0.43520  1.0000
  O   O70       1.0  0.80690  0.95610  0.56480  1.0000
  O   O71       1.0  0.14140  0.35018  0.34290  1.0000
  O   O72       1.0  0.85860  0.85018  0.65710  1.0000
  Cu  Cu1       1.0  0.27259  0.39549  0.05819  1.0000
  Cu  Cu2       1.0  0.72741  0.89549  0.94181  1.0000
  Cu  Cu3       1.0  0.60672  0.40802  0.05260  1.0000
  Cu  Cu4       1.0  0.39328  0.90802  0.94740  1.0000
  Cu  Cu5       1.0  0.92674  0.39868  0.39531  1.0000
  Cu  Cu6       1.0  0.07326  0.89868  0.60469  1.0000
  Cu  Cu7       1.0  0.93961  0.40768  0.73399  1.0000
  Cu  Cu8       1.0  0.06039  0.90768  0.26601  1.0000
  Cu  Cu9       1.0  0.59054  0.39687  0.71310  1.0000
  Cu  Cu10      1.0  0.40946  0.89687  0.28690  1.0000
  Cu  Cu11      1.0  0.26199  0.40638  0.38759  1.0000
  Cu  Cu12      1.0  0.73801  0.90638  0.61241  1.0000
