data_image0
_chemical_formula_structural       C36O72Cu12
_chemical_formula_sum              "C36 O72 Cu12"
_cell_length_a       15.8479
_cell_length_b       21.8408
_cell_length_c       16.0837
_cell_angle_alpha    90
_cell_angle_beta     118.198
_cell_angle_gamma    90

_space_group_name_H-M_alt    "P 1"
_space_group_IT_number       1

loop_
  _space_group_symop_operation_xyz
  'x, y, z'

loop_
  _atom_site_type_symbol
  _atom_site_label
  _atom_site_symmetry_multiplicity
  _atom_site_fract_x
  _atom_site_fract_y
  _atom_site_fract_z
  _atom_site_occupancy
  C   C1        1.0  0.44960  0.42590  0.08390  1.0000
  C   C2        1.0  0.55040  0.92590  0.91610  1.0000
  C   C3        1.0  0.42030  0.36620  0.02400  1.0000
  C   C4        1.0  0.57970  0.86620  0.97600  1.0000
  C   C5        1.0  0.78740  0.43380  0.21610  1.0000
  C   C6        1.0  0.21260  0.93380  0.78390  1.0000
  C   C7        1.0  0.74600  0.37280  0.23090  1.0000
  C   C8        1.0  0.25400  0.87280  0.76910  1.0000
  C   C9        1.0  0.89890  0.43080  0.54630  1.0000
  C   C10       1.0  0.10110  0.93080  0.45370  1.0000
  C   C11       1.0  0.96510  0.37360  0.57760  1.0000
  C   C12       1.0  0.03490  0.87360  0.42240  1.0000
  C   C13       1.0  0.77210  0.42990  0.75090  1.0000
  C   C14       1.0  0.22790  0.92990  0.24910  1.0000
  C   C15       1.0  0.75840  0.36910  0.69740  1.0000
  C   C16       1.0  0.24160  0.86910  0.30260  1.0000
  C   C17       1.0  0.44600  0.42930  0.53890  1.0000
  C   C18       1.0  0.55400  0.92930  0.46110  1.0000
  C   C19       1.0  0.41220  0.37070  0.56840  1.0000
  C   C20       1.0  0.58780  0.87070  0.43160  1.0000
  C   C21       1.0  0.23510  0.42700  0.20400  1.0000
  C   C22       1.0  0.76490  0.92700  0.79600  1.0000
  C   C23       1.0  0.29720  0.36870  0.24370  1.0000
  C   C24       1.0  0.70280  0.86870  0.75630  1.0000
  C   C25       1.0  0.11590  0.43600  0.87700  1.0000
  C   C26       1.0  0.88410  0.93600  0.12300  1.0000
  C   C27       1.0  0.09020  0.37500  0.90770  1.0000
  C   C28       1.0  0.90980  0.87500  0.09230  1.0000
  C   C29       1.0  0.56040  0.43470  0.87190  1.0000
  C   C30       1.0  0.43960  0.93470  0.12810  1.0000
  C   C31       1.0  0.62440  0.37670  0.89770  1.0000
  C   C32       1.0  0.37560  0.87670  0.10230  1.0000
  C   C33       1.0  0.11420  0.43510  0.42170  1.0000
  C   C34       1.0  0.88580  0.93510  0.57830  1.0000
  C   C35       1.0  0.08260  0.37360  0.36700  1.0000
  C   C36       1.0  0.91740  0.87360  0.63300  1.0000
  O   O1        1.0  0.39090  0.44535  0.10930  1.0000
  O   O2        1.0  0.60910  0.94535  0.89070  1.0000
  O   O3        1.0  0.33920  0.34535  0.00520  1.0000
  O   O4        1.0  0.66080  0.84535  0.99480  1.0000
  O   O5        1.0  0.52660  0.45124  0.10190  1.0000
  O   O6        1.0  0.47340  0.95124  0.89810  1.0000
  O   O7        1.0  0.47730  0.34321  0.00060  1.0000
  O   O8        1.0  0.52270  0.84321  0.99940  1.0000
  O   O9        1.0  0.74100  0.46155  0.14070  1.0000
  O   O10       1.0  0.25900  0.96155  0.85930  1.0000
  O   O11       1.0  0.66740  0.35548  0.16310  1.0000
  O   O12       1.0  0.33260  0.85548  0.83690  1.0000
  O   O13       1.0  0.86620  0.45146  0.28290  1.0000
  O   O14       1.0  0.13380  0.95146  0.71710  1.0000
  O   O15       1.0  0.79200  0.34542  0.30660  1.0000
  O   O16       1.0  0.20800  0.84542  0.69340  1.0000
  O   O17       1.0  0.86790  0.44739  0.46230  1.0000
  O   O18       1.0  0.13210  0.94739  0.53770  1.0000
  O   O19       1.0  0.98220  0.35134  0.51530  1.0000
  O   O20       1.0  0.01780  0.85134  0.48470  1.0000
  O   O21       1.0  0.88050  0.45577  0.60550  1.0000
  O   O22       1.0  0.11950  0.95577  0.39450  1.0000
  O   O23       1.0  0.99600  0.35440  0.65920  1.0000
  O   O24       1.0  0.00400  0.85440  0.34080  1.0000
  O   O25       1.0  0.84830  0.45836  0.77740  1.0000
  O   O26       1.0  0.15170  0.95836  0.22260  1.0000
  O   O27       1.0  0.82870  0.35218  0.68550  1.0000
  O   O28       1.0  0.17130  0.85218  0.31450  1.0000
  O   O29       1.0  0.70420  0.44770  0.76470  1.0000
  O   O30       1.0  0.29580  0.94770  0.23530  1.0000
  O   O31       1.0  0.68300  0.34080  0.66990  1.0000
  O   O32       1.0  0.31700  0.84080  0.33010  1.0000
  O   O33       1.0  0.52900  0.44759  0.59620  1.0000
  O   O34       1.0  0.47100  0.94759  0.40380  1.0000
  O   O35       1.0  0.47050  0.34810  0.64720  1.0000
  O   O36       1.0  0.52950  0.84810  0.35280  1.0000
  O   O37       1.0  0.39130  0.45410  0.46350  1.0000
  O   O38       1.0  0.60870  0.95410  0.53650  1.0000
  O   O39       1.0  0.33240  0.34960  0.51390  1.0000
  O   O40       1.0  0.66760  0.84960  0.48610  1.0000
  O   O41       1.0  0.20690  0.45345  0.25530  1.0000
  O   O42       1.0  0.79310  0.95345  0.74470  1.0000
  O   O43       1.0  0.31540  0.35326  0.32720  1.0000
  O   O44       1.0  0.68460  0.85326  0.67280  1.0000
  O   O45       1.0  0.21730  0.44395  0.12290  1.0000
  O   O46       1.0  0.78270  0.94395  0.87710  1.0000
  O   O47       1.0  0.32370  0.34136  0.19440  1.0000
  O   O48       1.0  0.67630  0.84136  0.80560  1.0000
  O   O49       1.0  0.19600  0.45820  0.92730  1.0000
  O   O50       1.0  0.80400  0.95820  0.07270  1.0000
  O   O51       1.0  0.15010  0.35051  0.98310  1.0000
  O   O52       1.0  0.84990  0.85051  0.01690  1.0000
  O   O53       1.0  0.05280  0.45902  0.80100  1.0000
  O   O54       1.0  0.94720  0.95902  0.19900  1.0000
  O   O55       1.0  0.00950  0.35301  0.85410  1.0000
  O   O56       1.0  0.99050  0.85301  0.14590  1.0000
  O   O57       1.0  0.54730  0.45729  0.93720  1.0000
  O   O58       1.0  0.45270  0.95729  0.06280  1.0000
  O   O59       1.0  0.65790  0.35824  0.98130  1.0000
  O   O60       1.0  0.34210  0.85824  0.01870  1.0000
  O   O61       1.0  0.52690  0.45525  0.79100  1.0000
  O   O62       1.0  0.47310  0.95525  0.20900  1.0000
  O   O63       1.0  0.63630  0.35141  0.83480  1.0000
  O   O64       1.0  0.36370  0.85141  0.16520  1.0000
  O   O65       1.0  0.06090  0.45910  0.44910  1.0000
  O   O66       1.0  0.93910  0.95910  0.55090  1.0000
  O   O67       1.0  0.00240  0.35232  0.34940  1.0000
  O   O68       1.0  0.99760  0.85232  0.65060  1.0000
  O   O69       1.0  0.19290  0.45671  0.43430  1.0000
  O   O70       1.0  0.80710  0.95671  0.56570  1.0000
  O   O71       1.0  0.13990  0.34957  0.34350  1.0000
  O   O72       1.0  0.86010  0.84957  0.65650  1.0000
  Cu  Cu1       1.0  0.27260  0.39441  0.05783  1.0000
  Cu  Cu2       1.0  0.72740  0.89441  0.94217  1.0000
  Cu  Cu3       1.0  0.60716  0.40876  0.05279  1.0000
  Cu  Cu4       1.0  0.39284  0.90876  0.94721  1.0000
  Cu  Cu5       1.0  0.92617  0.39874  0.39693  1.0000
  Cu  Cu6       1.0  0.07383  0.89874  0.60307  1.0000
  Cu  Cu7       1.0  0.93837  0.40847  0.73557  1.0000
  Cu  Cu8       1.0  0.06163  0.90847  0.26443  1.0000
  Cu  Cu9       1.0  0.58867  0.39611  0.71258  1.0000
  Cu  Cu10      1.0  0.41133  0.89611  0.28742  1.0000
  Cu  Cu11      1.0  0.26121  0.40630  0.38701  1.0000
  Cu  Cu12      1.0  0.73879  0.90630  0.61299  1.0000
