data_image0
_chemical_formula_structural       C36O72Cu12
_chemical_formula_sum              "C36 O72 Cu12"
_cell_length_a       15.9038
_cell_length_b       22.149
_cell_length_c       16.12
_cell_angle_alpha    90
_cell_angle_beta     118.647
_cell_angle_gamma    90

_space_group_name_H-M_alt    "P 1"
_space_group_IT_number       1

loop_
  _space_group_symop_operation_xyz
  'x, y, z'

loop_
  _atom_site_type_symbol
  _atom_site_label
  _atom_site_symmetry_multiplicity
  _atom_site_fract_x
  _atom_site_fract_y
  _atom_site_fract_z
  _atom_site_occupancy
  C   C1        1.0  0.45040  0.42730  0.08340  1.0000
  C   C2        1.0  0.54960  0.92730  0.91660  1.0000
  C   C3        1.0  0.42110  0.36790  0.02490  1.0000
  C   C4        1.0  0.57890  0.86790  0.97510  1.0000
  C   C5        1.0  0.78790  0.43230  0.21290  1.0000
  C   C6        1.0  0.21210  0.93230  0.78710  1.0000
  C   C7        1.0  0.74750  0.37250  0.23010  1.0000
  C   C8        1.0  0.25250  0.87250  0.76990  1.0000
  C   C9        1.0  0.90160  0.43040  0.54350  1.0000
  C   C10       1.0  0.09840  0.93040  0.45650  1.0000
  C   C11       1.0  0.96610  0.37320  0.57400  1.0000
  C   C12       1.0  0.03390  0.87320  0.42600  1.0000
  C   C13       1.0  0.77580  0.43030  0.74900  1.0000
  C   C14       1.0  0.22420  0.93030  0.25100  1.0000
  C   C15       1.0  0.76020  0.37020  0.69590  1.0000
  C   C16       1.0  0.23980  0.87020  0.30410  1.0000
  C   C17       1.0  0.44780  0.42960  0.54010  1.0000
  C   C18       1.0  0.55220  0.92960  0.45990  1.0000
  C   C19       1.0  0.41510  0.37120  0.56910  1.0000
  C   C20       1.0  0.58490  0.87120  0.43090  1.0000
  C   C21       1.0  0.23620  0.42880  0.20390  1.0000
  C   C22       1.0  0.76380  0.92880  0.79610  1.0000
  C   C23       1.0  0.29790  0.37090  0.24240  1.0000
  C   C24       1.0  0.70210  0.87090  0.75760  1.0000
  C   C25       1.0  0.11790  0.43460  0.87480  1.0000
  C   C26       1.0  0.88210  0.93460  0.12520  1.0000
  C   C27       1.0  0.09080  0.37500  0.90610  1.0000
  C   C28       1.0  0.90920  0.87500  0.09390  1.0000
  C   C29       1.0  0.56530  0.43440  0.87270  1.0000
  C   C30       1.0  0.43470  0.93440  0.12730  1.0000
  C   C31       1.0  0.62690  0.37580  0.89810  1.0000
  C   C32       1.0  0.37310  0.87580  0.10190  1.0000
  C   C33       1.0  0.11430  0.43310  0.41920  1.0000
  C   C34       1.0  0.88570  0.93310  0.58080  1.0000
  C   C35       1.0  0.08530  0.37330  0.36470  1.0000
  C   C36       1.0  0.91470  0.87330  0.63530  1.0000
  O   O1        1.0  0.39190  0.44770  0.10810  1.0000
  O   O2        1.0  0.60810  0.94770  0.89190  1.0000
  O   O3        1.0  0.34030  0.34760  0.00670  1.0000
  O   O4        1.0  0.65970  0.84760  0.99330  1.0000
  O   O5        1.0  0.52750  0.45150  0.10130  1.0000
  O   O6        1.0  0.47250  0.95150  0.89870  1.0000
  O   O7        1.0  0.47730  0.34510  0.00160  1.0000
  O   O8        1.0  0.52270  0.84510  0.99840  1.0000
  O   O9        1.0  0.73970  0.45900  0.13790  1.0000
  O   O10       1.0  0.26030  0.95900  0.86210  1.0000
  O   O11       1.0  0.66870  0.35480  0.16430  1.0000
  O   O12       1.0  0.33130  0.85480  0.83570  1.0000
  O   O13       1.0  0.86670  0.44990  0.27790  1.0000
  O   O14       1.0  0.13330  0.94990  0.72210  1.0000
  O   O15       1.0  0.79490  0.34640  0.30700  1.0000
  O   O16       1.0  0.20510  0.84640  0.69300  1.0000
  O   O17       1.0  0.87170  0.44760  0.46100  1.0000
  O   O18       1.0  0.12830  0.94760  0.53900  1.0000
  O   O19       1.0  0.98240  0.35110  0.51150  1.0000
  O   O20       1.0  0.01760  0.85110  0.48850  1.0000
  O   O21       1.0  0.88460  0.45420  0.60410  1.0000
  O   O22       1.0  0.11540  0.95420  0.39590  1.0000
  O   O23       1.0  0.99530  0.35230  0.65480  1.0000
  O   O24       1.0  0.00470  0.85230  0.34520  1.0000
  O   O25       1.0  0.85210  0.45760  0.77480  1.0000
  O   O26       1.0  0.14790  0.95760  0.22520  1.0000
  O   O27       1.0  0.82870  0.35230  0.68300  1.0000
  O   O28       1.0  0.17130  0.85230  0.31700  1.0000
  O   O29       1.0  0.70890  0.44840  0.76420  1.0000
  O   O30       1.0  0.29110  0.94840  0.23580  1.0000
  O   O31       1.0  0.68430  0.34300  0.66930  1.0000
  O   O32       1.0  0.31570  0.84300  0.33070  1.0000
  O   O33       1.0  0.52970  0.44820  0.59550  1.0000
  O   O34       1.0  0.47030  0.94820  0.40450  1.0000
  O   O35       1.0  0.47430  0.35000  0.64820  1.0000
  O   O36       1.0  0.52570  0.85000  0.35180  1.0000
  O   O37       1.0  0.39170  0.45340  0.46440  1.0000
  O   O38       1.0  0.60830  0.95340  0.53560  1.0000
  O   O39       1.0  0.33630  0.34960  0.51450  1.0000
  O   O40       1.0  0.66370  0.84960  0.48550  1.0000
  O   O41       1.0  0.20920  0.45500  0.25530  1.0000
  O   O42       1.0  0.79080  0.95500  0.74470  1.0000
  O   O43       1.0  0.31720  0.35510  0.32580  1.0000
  O   O44       1.0  0.68280  0.85510  0.67420  1.0000
  O   O45       1.0  0.21810  0.44570  0.12280  1.0000
  O   O46       1.0  0.78190  0.94570  0.87720  1.0000
  O   O47       1.0  0.32440  0.34500  0.19270  1.0000
  O   O48       1.0  0.67560  0.84500  0.80730  1.0000
  O   O49       1.0  0.19750  0.45650  0.92600  1.0000
  O   O50       1.0  0.80250  0.95650  0.07400  1.0000
  O   O51       1.0  0.14960  0.35220  0.98290  1.0000
  O   O52       1.0  0.85040  0.85220  0.01710  1.0000
  O   O53       1.0  0.05670  0.45650  0.79770  1.0000
  O   O54       1.0  0.94330  0.95650  0.20230  1.0000
  O   O55       1.0  0.01080  0.35350  0.85100  1.0000
  O   O56       1.0  0.98920  0.85350  0.14900  1.0000
  O   O57       1.0  0.54960  0.45550  0.93610  1.0000
  O   O58       1.0  0.45040  0.95550  0.06390  1.0000
  O   O59       1.0  0.65790  0.35650  0.98120  1.0000
  O   O60       1.0  0.34210  0.85650  0.01880  1.0000
  O   O61       1.0  0.53350  0.45490  0.79220  1.0000
  O   O62       1.0  0.46650  0.95490  0.20780  1.0000
  O   O63       1.0  0.64170  0.35280  0.83590  1.0000
  O   O64       1.0  0.35830  0.85280  0.16410  1.0000
  O   O65       1.0  0.06060  0.45700  0.44520  1.0000
  O   O66       1.0  0.93940  0.95700  0.55480  1.0000
  O   O67       1.0  0.00540  0.35140  0.34610  1.0000
  O   O68       1.0  0.99460  0.85140  0.65390  1.0000
  O   O69       1.0  0.19330  0.45510  0.43480  1.0000
  O   O70       1.0  0.80670  0.95510  0.56520  1.0000
  O   O71       1.0  0.14370  0.35040  0.34220  1.0000
  O   O72       1.0  0.85630  0.85040  0.65780  1.0000
  Cu  Cu1       1.0  0.27274  0.39659  0.05785  1.0000
  Cu  Cu2       1.0  0.72726  0.89659  0.94215  1.0000
  Cu  Cu3       1.0  0.60687  0.40734  0.05239  1.0000
  Cu  Cu4       1.0  0.39313  0.90734  0.94761  1.0000
  Cu  Cu5       1.0  0.92821  0.39845  0.39346  1.0000
  Cu  Cu6       1.0  0.07179  0.89845  0.60654  1.0000
  Cu  Cu7       1.0  0.94060  0.40707  0.73187  1.0000
  Cu  Cu8       1.0  0.05940  0.90707  0.26813  1.0000
  Cu  Cu9       1.0  0.59293  0.39755  0.71370  1.0000
  Cu  Cu10      1.0  0.40707  0.89755  0.28630  1.0000
  Cu  Cu11      1.0  0.26336  0.40636  0.38729  1.0000
  Cu  Cu12      1.0  0.73664  0.90636  0.61271  1.0000
