data_image0
_chemical_formula_structural       C36O72Cu12
_chemical_formula_sum              "C36 O72 Cu12"
_cell_length_a       15.8427
_cell_length_b       21.7313
_cell_length_c       16.0492
_cell_angle_alpha    90
_cell_angle_beta     118.056
_cell_angle_gamma    90

_space_group_name_H-M_alt    "P 1"
_space_group_IT_number       1

loop_
  _space_group_symop_operation_xyz
  'x, y, z'

loop_
  _atom_site_type_symbol
  _atom_site_label
  _atom_site_symmetry_multiplicity
  _atom_site_fract_x
  _atom_site_fract_y
  _atom_site_fract_z
  _atom_site_occupancy
  C   C1        1.0  0.44970  0.42550  0.08390  1.0000
  C   C2        1.0  0.55030  0.92550  0.91610  1.0000
  C   C3        1.0  0.42090  0.36550  0.02360  1.0000
  C   C4        1.0  0.57910  0.86550  0.97640  1.0000
  C   C5        1.0  0.78790  0.43420  0.21690  1.0000
  C   C6        1.0  0.21210  0.93420  0.78310  1.0000
  C   C7        1.0  0.74640  0.37300  0.23140  1.0000
  C   C8        1.0  0.25360  0.87300  0.76860  1.0000
  C   C9        1.0  0.89810  0.43080  0.54720  1.0000
  C   C10       1.0  0.10190  0.93080  0.45280  1.0000
  C   C11       1.0  0.96550  0.37360  0.57950  1.0000
  C   C12       1.0  0.03450  0.87360  0.42050  1.0000
  C   C13       1.0  0.77090  0.43040  0.75200  1.0000
  C   C14       1.0  0.22910  0.93040  0.24800  1.0000
  C   C15       1.0  0.75820  0.36910  0.69830  1.0000
  C   C16       1.0  0.24180  0.86910  0.30170  1.0000
  C   C17       1.0  0.44520  0.42950  0.53820  1.0000
  C   C18       1.0  0.55480  0.92950  0.46180  1.0000
  C   C19       1.0  0.41160  0.37050  0.56800  1.0000
  C   C20       1.0  0.58840  0.87050  0.43200  1.0000
  C   C21       1.0  0.23480  0.42630  0.20370  1.0000
  C   C22       1.0  0.76520  0.92630  0.79630  1.0000
  C   C23       1.0  0.29720  0.36770  0.24370  1.0000
  C   C24       1.0  0.70280  0.86770  0.75630  1.0000
  C   C25       1.0  0.11560  0.43630  0.87770  1.0000
  C   C26       1.0  0.88440  0.93630  0.12230  1.0000
  C   C27       1.0  0.09010  0.37460  0.90840  1.0000
  C   C28       1.0  0.90990  0.87460  0.09160  1.0000
  C   C29       1.0  0.55870  0.43460  0.87140  1.0000
  C   C30       1.0  0.44130  0.93460  0.12860  1.0000
  C   C31       1.0  0.62340  0.37650  0.89730  1.0000
  C   C32       1.0  0.37660  0.87650  0.10270  1.0000
  C   C33       1.0  0.11410  0.43470  0.42250  1.0000
  C   C34       1.0  0.88590  0.93470  0.57750  1.0000
  C   C35       1.0  0.08210  0.37320  0.36800  1.0000
  C   C36       1.0  0.91790  0.87320  0.63200  1.0000
  O   O1        1.0  0.39120  0.44451  0.10970  1.0000
  O   O2        1.0  0.60880  0.94451  0.89030  1.0000
  O   O3        1.0  0.33930  0.34475  0.00360  1.0000
  O   O4        1.0  0.66070  0.84475  0.99640  1.0000
  O   O5        1.0  0.52710  0.45118  0.10250  1.0000
  O   O6        1.0  0.47290  0.95118  0.89750  1.0000
  O   O7        1.0  0.47840  0.34294  0.00020  1.0000
  O   O8        1.0  0.52160  0.84294  0.99980  1.0000
  O   O9        1.0  0.74190  0.46241  0.14160  1.0000
  O   O10       1.0  0.25810  0.96241  0.85840  1.0000
  O   O11       1.0  0.66750  0.35573  0.16360  1.0000
  O   O12       1.0  0.33250  0.85573  0.83640  1.0000
  O   O13       1.0  0.86680  0.45175  0.28440  1.0000
  O   O14       1.0  0.13320  0.95175  0.71560  1.0000
  O   O15       1.0  0.79200  0.34493  0.30730  1.0000
  O   O16       1.0  0.20800  0.84493  0.69270  1.0000
  O   O17       1.0  0.86700  0.44699  0.46280  1.0000
  O   O18       1.0  0.13300  0.94699  0.53720  1.0000
  O   O19       1.0  0.98210  0.35091  0.51690  1.0000
  O   O20       1.0  0.01790  0.85091  0.48310  1.0000
  O   O21       1.0  0.87970  0.45635  0.60650  1.0000
  O   O22       1.0  0.12030  0.95635  0.39350  1.0000
  O   O23       1.0  0.99690  0.35511  0.66190  1.0000
  O   O24       1.0  0.00310  0.85511  0.33810  1.0000
  O   O25       1.0  0.84710  0.45895  0.77830  1.0000
  O   O26       1.0  0.15290  0.95895  0.22170  1.0000
  O   O27       1.0  0.82890  0.35238  0.68680  1.0000
  O   O28       1.0  0.17110  0.85238  0.31320  1.0000
  O   O29       1.0  0.70220  0.44781  0.76460  1.0000
  O   O30       1.0  0.29780  0.94781  0.23540  1.0000
  O   O31       1.0  0.68250  0.34053  0.66960  1.0000
  O   O32       1.0  0.31750  0.84053  0.33040  1.0000
  O   O33       1.0  0.52840  0.44758  0.59600  1.0000
  O   O34       1.0  0.47160  0.94758  0.40400  1.0000
  O   O35       1.0  0.46940  0.34745  0.64630  1.0000
  O   O36       1.0  0.53060  0.84745  0.35370  1.0000
  O   O37       1.0  0.39120  0.45450  0.46260  1.0000
  O   O38       1.0  0.60880  0.95450  0.53740  1.0000
  O   O39       1.0  0.33120  0.34957  0.51310  1.0000
  O   O40       1.0  0.66880  0.84957  0.48690  1.0000
  O   O41       1.0  0.20620  0.45275  0.25510  1.0000
  O   O42       1.0  0.79380  0.95275  0.74490  1.0000
  O   O43       1.0  0.31490  0.35246  0.32720  1.0000
  O   O44       1.0  0.68510  0.85246  0.67280  1.0000
  O   O45       1.0  0.21720  0.44341  0.12240  1.0000
  O   O46       1.0  0.78280  0.94341  0.87760  1.0000
  O   O47       1.0  0.32350  0.34010  0.19390  1.0000
  O   O48       1.0  0.67650  0.84010  0.80610  1.0000
  O   O49       1.0  0.19640  0.45844  0.92750  1.0000
  O   O50       1.0  0.80360  0.95844  0.07250  1.0000
  O   O51       1.0  0.15040  0.34968  0.98250  1.0000
  O   O52       1.0  0.84960  0.84968  0.01750  1.0000
  O   O53       1.0  0.05130  0.46044  0.80250  1.0000
  O   O54       1.0  0.94870  0.96044  0.19750  1.0000
  O   O55       1.0  0.00890  0.35318  0.85520  1.0000
  O   O56       1.0  0.99110  0.85318  0.14480  1.0000
  O   O57       1.0  0.54670  0.45790  0.93740  1.0000
  O   O58       1.0  0.45330  0.95790  0.06260  1.0000
  O   O59       1.0  0.65850  0.35901  0.98170  1.0000
  O   O60       1.0  0.34150  0.85901  0.01830  1.0000
  O   O61       1.0  0.52450  0.45493  0.79010  1.0000
  O   O62       1.0  0.47550  0.95493  0.20990  1.0000
  O   O63       1.0  0.63490  0.35080  0.83430  1.0000
  O   O64       1.0  0.36510  0.85080  0.16570  1.0000
  O   O65       1.0  0.06130  0.45901  0.45060  1.0000
  O   O66       1.0  0.93870  0.95901  0.54940  1.0000
  O   O67       1.0  0.00210  0.35191  0.35100  1.0000
  O   O68       1.0  0.99790  0.85191  0.64900  1.0000
  O   O69       1.0  0.19240  0.45674  0.43400  1.0000
  O   O70       1.0  0.80760  0.95674  0.56600  1.0000
  O   O71       1.0  0.13920  0.34862  0.34380  1.0000
  O   O72       1.0  0.86080  0.84862  0.65620  1.0000
  Cu  Cu1       1.0  0.27283  0.39363  0.05731  1.0000
  Cu  Cu2       1.0  0.72717  0.89363  0.94269  1.0000
  Cu  Cu3       1.0  0.60777  0.40945  0.05336  1.0000
  Cu  Cu4       1.0  0.39223  0.90945  0.94664  1.0000
  Cu  Cu5       1.0  0.92600  0.39835  0.39828  1.0000
  Cu  Cu6       1.0  0.07400  0.89835  0.60172  1.0000
  Cu  Cu7       1.0  0.93751  0.40942  0.73722  1.0000
  Cu  Cu8       1.0  0.06249  0.90942  0.26278  1.0000
  Cu  Cu9       1.0  0.58723  0.39563  0.71200  1.0000
  Cu  Cu10      1.0  0.41277  0.89563  0.28800  1.0000
  Cu  Cu11      1.0  0.26041  0.40608  0.38651  1.0000
  Cu  Cu12      1.0  0.73959  0.90608  0.61349  1.0000
