data_image0
_chemical_formula_structural       Mn4P4O4H2O2H2O8H2O2H2O16C8
_chemical_formula_sum              "Mn4 P4 O32 H8 C8"
_cell_length_a       7.6108
_cell_length_b       9.8476
_cell_length_c       15.2437
_cell_angle_alpha    100.023
_cell_angle_beta     102.032
_cell_angle_gamma    110.612

_space_group_name_H-M_alt    "P 1"
_space_group_IT_number       1

loop_
  _space_group_symop_operation_xyz
  'x, y, z'

loop_
  _atom_site_type_symbol
  _atom_site_label
  _atom_site_symmetry_multiplicity
  _atom_site_fract_x
  _atom_site_fract_y
  _atom_site_fract_z
  _atom_site_occupancy
  Mn  Mn1       1.0  0.50797  0.25373  0.07844  1.0000
  Mn  Mn2       1.0  0.49203  0.74627  0.92156  1.0000
  Mn  Mn3       1.0  0.52881  0.28112  0.46289  1.0000
  Mn  Mn4       1.0  0.47119  0.71888  0.53711  1.0000
  P   P1        1.0  0.81322  0.11498  0.98498  1.0000
  P   P2        1.0  0.18678  0.88502  0.01502  1.0000
  P   P3        1.0  0.17954  0.37504  0.50155  1.0000
  P   P4        1.0  0.82046  0.62496  0.49845  1.0000
  O   O1        1.0  0.65730  0.16580  0.00000  1.0000
  O   O2        1.0  0.34270  0.83420  0.00000  1.0000
  O   O3        1.0  0.97820  0.16740  0.08050  1.0000
  O   O4        1.0  0.02180  0.83260  0.91950  1.0000
  H   H1        1.0  0.06050  0.13380  0.07390  1.0000
  H   H2        1.0  0.93950  0.86620  0.92610  1.0000
  O   O5        1.0  0.91370  0.19940  0.91900  1.0000
  O   O6        1.0  0.08630  0.80060  0.08100  1.0000
  H   H3        1.0  0.03330  0.23480  0.94150  1.0000
  H   H4        1.0  0.96670  0.76520  0.05850  1.0000
  O   O7        1.0  0.74530  0.94840  0.94410  1.0000
  O   O8        1.0  0.25470  0.05160  0.05590  1.0000
  O   O9        1.0  0.35730  0.34780  0.53770  1.0000
  O   O10       1.0  0.64270  0.65220  0.46230  1.0000
  O   O11       1.0  0.21130  0.51140  0.46330  1.0000
  O   O12       1.0  0.78870  0.48860  0.53670  1.0000
  O   O13       1.0  0.09440  0.39790  0.58620  1.0000
  O   O14       1.0  0.90560  0.60210  0.41380  1.0000
  H   H5        1.0  0.00440  0.42460  0.57150  1.0000
  H   H6        1.0  0.99560  0.57540  0.42850  1.0000
  O   O15       1.0  0.02650  0.23010  0.42580  1.0000
  O   O16       1.0  0.97350  0.76990  0.57420  1.0000
  H   H7        1.0  0.92460  0.24130  0.40720  1.0000
  H   H8        1.0  0.07540  0.75870  0.59280  1.0000
  O   O17       1.0  0.70160  0.25820  0.21290  1.0000
  O   O18       1.0  0.29840  0.74180  0.78710  1.0000
  O   O19       1.0  0.68890  0.23870  0.35590  1.0000
  O   O20       1.0  0.31110  0.76130  0.64410  1.0000
  O   O21       1.0  0.39310  0.33320  0.19314  1.0000
  O   O22       1.0  0.60690  0.66680  0.80686  1.0000
  O   O23       1.0  0.37850  0.30910  0.33390  1.0000
  O   O24       1.0  0.62150  0.69090  0.66610  1.0000
  O   O25       1.0  0.68790  0.48710  0.08100  1.0000
  O   O26       1.0  0.31210  0.51290  0.91900  1.0000
  O   O27       1.0  0.68860  0.67550  0.01820  1.0000
  O   O28       1.0  0.31140  0.32450  0.98180  1.0000
  O   O29       1.0  0.33320  0.03580  0.42070  1.0000
  O   O30       1.0  0.66680  0.96420  0.57930  1.0000
  O   O31       1.0  0.31740  0.81960  0.45040  1.0000
  O   O32       1.0  0.68260  0.18040  0.54960  1.0000
  C   C1        1.0  0.63020  0.26330  0.27980  1.0000
  C   C2        1.0  0.36980  0.73670  0.72020  1.0000
  C   C3        1.0  0.45110  0.30520  0.26800  1.0000
  C   C4        1.0  0.54890  0.69480  0.73200  1.0000
  C   C5        1.0  0.60900  0.54610  0.02900  1.0000
  C   C6        1.0  0.39100  0.45390  0.97100  1.0000
  C   C7        1.0  0.39820  0.95710  0.46280  1.0000
  C   C8        1.0  0.60180  0.04290  0.53720  1.0000
