data_image0
_chemical_formula_structural       Eu4O40H16O8H16O4H8C24H8C16
_chemical_formula_sum              "Eu4 O52 H48 C40"
_cell_length_a       13.0689
_cell_length_b       11.2535
_cell_length_c       15.4306
_cell_angle_alpha    90
_cell_angle_beta     105.908
_cell_angle_gamma    90

_space_group_name_H-M_alt    "P 1"
_space_group_IT_number       1

loop_
  _space_group_symop_operation_xyz
  'x, y, z'

loop_
  _atom_site_type_symbol
  _atom_site_label
  _atom_site_symmetry_multiplicity
  _atom_site_fract_x
  _atom_site_fract_y
  _atom_site_fract_z
  _atom_site_occupancy
  Eu  Eu1       1.0  0.00000  0.11863  0.25000  1.0000
  Eu  Eu2       1.0  0.50000  0.61863  0.25000  1.0000
  Eu  Eu3       1.0  0.00000  0.88137  0.75000  1.0000
  Eu  Eu4       1.0  0.50000  0.38137  0.75000  1.0000
  O   O1        1.0  0.91072  0.24921  0.11500  1.0000
  O   O2        1.0  0.08928  0.24921  0.38500  1.0000
  O   O3        1.0  0.41072  0.74921  0.11500  1.0000
  O   O4        1.0  0.58928  0.74921  0.38500  1.0000
  O   O5        1.0  0.08928  0.75079  0.88500  1.0000
  O   O6        1.0  0.91072  0.75079  0.61500  1.0000
  O   O7        1.0  0.58928  0.25079  0.88500  1.0000
  O   O8        1.0  0.41072  0.25079  0.61500  1.0000
  O   O9        1.0  0.07543  0.28897  0.18877  1.0000
  O   O10       1.0  0.92457  0.28897  0.31123  1.0000
  O   O11       1.0  0.57543  0.78897  0.18877  1.0000
  O   O12       1.0  0.42457  0.78897  0.31123  1.0000
  O   O13       1.0  0.92457  0.71103  0.81123  1.0000
  O   O14       1.0  0.07543  0.71103  0.68877  1.0000
  O   O15       1.0  0.42457  0.21103  0.81123  1.0000
  O   O16       1.0  0.57543  0.21103  0.68877  1.0000
  O   O17       1.0  0.99376  0.17647  0.96236  1.0000
  O   O18       1.0  0.00624  0.17647  0.53764  1.0000
  O   O19       1.0  0.49376  0.67647  0.96236  1.0000
  O   O20       1.0  0.50624  0.67647  0.53764  1.0000
  O   O21       1.0  0.00624  0.82353  0.03764  1.0000
  O   O22       1.0  0.99376  0.82353  0.46236  1.0000
  O   O23       1.0  0.50624  0.32353  0.03764  1.0000
  O   O24       1.0  0.49376  0.32353  0.46236  1.0000
  O   O25       1.0  0.88590  0.26014  0.84268  1.0000
  O   O26       1.0  0.11410  0.26014  0.65732  1.0000
  O   O27       1.0  0.38590  0.76014  0.84268  1.0000
  O   O28       1.0  0.61410  0.76014  0.65732  1.0000
  O   O29       1.0  0.11410  0.73986  0.15732  1.0000
  O   O30       1.0  0.88590  0.73986  0.34268  1.0000
  O   O31       1.0  0.61410  0.23986  0.15732  1.0000
  O   O32       1.0  0.38590  0.23986  0.34268  1.0000
  O   O33       1.0  0.03159  0.04014  0.11475  1.0000
  O   O34       1.0  0.96841  0.04014  0.38525  1.0000
  O   O35       1.0  0.53159  0.54014  0.11475  1.0000
  O   O36       1.0  0.46841  0.54014  0.38525  1.0000
  O   O37       1.0  0.96841  0.95986  0.88525  1.0000
  O   O38       1.0  0.03159  0.95986  0.61475  1.0000
  O   O39       1.0  0.46841  0.45986  0.88525  1.0000
  O   O40       1.0  0.53159  0.45986  0.61475  1.0000
  H   H1        1.0  0.01590  0.96960  0.11010  1.0000
  H   H2        1.0  0.98410  0.96960  0.38990  1.0000
  H   H3        1.0  0.51590  0.46960  0.11010  1.0000
  H   H4        1.0  0.48410  0.46960  0.38990  1.0000
  H   H5        1.0  0.98410  0.03040  0.88990  1.0000
  H   H6        1.0  0.01590  0.03040  0.61010  1.0000
  H   H7        1.0  0.48410  0.53040  0.88990  1.0000
  H   H8        1.0  0.51590  0.53040  0.61010  1.0000
  H   H9        1.0  0.02760  0.07840  0.07670  1.0000
  H   H10       1.0  0.97240  0.07840  0.42330  1.0000
  H   H11       1.0  0.52760  0.57840  0.07670  1.0000
  H   H12       1.0  0.47240  0.57840  0.42330  1.0000
  H   H13       1.0  0.97240  0.92160  0.92330  1.0000
  H   H14       1.0  0.02760  0.92160  0.57670  1.0000
  H   H15       1.0  0.47240  0.42160  0.92330  1.0000
  H   H16       1.0  0.52760  0.42160  0.57670  1.0000
  O   O41       1.0  0.18974  0.07880  0.29984  1.0000
  O   O42       1.0  0.81026  0.07880  0.20016  1.0000
  O   O43       1.0  0.68974  0.57880  0.29984  1.0000
  O   O44       1.0  0.31026  0.57880  0.20016  1.0000
  O   O45       1.0  0.81026  0.92120  0.70016  1.0000
  O   O46       1.0  0.18974  0.92120  0.79984  1.0000
  O   O47       1.0  0.31026  0.42120  0.70016  1.0000
  O   O48       1.0  0.68974  0.42120  0.79984  1.0000
  H   H17       1.0  0.19930  0.03140  0.26540  1.0000
  H   H18       1.0  0.80070  0.03140  0.23460  1.0000
  H   H19       1.0  0.69930  0.53140  0.26540  1.0000
  H   H20       1.0  0.30070  0.53140  0.23460  1.0000
  H   H21       1.0  0.80070  0.96860  0.73460  1.0000
  H   H22       1.0  0.19930  0.96860  0.76540  1.0000
  H   H23       1.0  0.30070  0.46860  0.73460  1.0000
  H   H24       1.0  0.69930  0.46860  0.76540  1.0000
  H   H25       1.0  0.23030  0.13000  0.31250  1.0000
  H   H26       1.0  0.76970  0.13000  0.18750  1.0000
  H   H27       1.0  0.73030  0.63000  0.31250  1.0000
  H   H28       1.0  0.26970  0.63000  0.18750  1.0000
  H   H29       1.0  0.76970  0.87000  0.68750  1.0000
  H   H30       1.0  0.23030  0.87000  0.81250  1.0000
  H   H31       1.0  0.26970  0.37000  0.68750  1.0000
  H   H32       1.0  0.73030  0.37000  0.81250  1.0000
  O   O49       1.0  0.00000  0.89680  0.25000  1.0000
  O   O50       1.0  0.50000  0.39680  0.25000  1.0000
  O   O51       1.0  0.00000  0.10320  0.75000  1.0000
  O   O52       1.0  0.50000  0.60320  0.75000  1.0000
  H   H33       1.0  0.02150  0.85510  0.20970  1.0000
  H   H34       1.0  0.97850  0.85510  0.29030  1.0000
  H   H35       1.0  0.52150  0.35510  0.20970  1.0000
  H   H36       1.0  0.47850  0.35510  0.29030  1.0000
  H   H37       1.0  0.97850  0.14490  0.79030  1.0000
  H   H38       1.0  0.02150  0.14490  0.70970  1.0000
  H   H39       1.0  0.47850  0.64490  0.79030  1.0000
  H   H40       1.0  0.52150  0.64490  0.70970  1.0000
  C   C1        1.0  0.99934  0.40404  0.05722  1.0000
  C   C2        1.0  0.00066  0.40404  0.44278  1.0000
  C   C3        1.0  0.49934  0.90404  0.05722  1.0000
  C   C4        1.0  0.50066  0.90404  0.44278  1.0000
  C   C5        1.0  0.00066  0.59596  0.94278  1.0000
  C   C6        1.0  0.99934  0.59596  0.55722  1.0000
  C   C7        1.0  0.50066  0.09596  0.94278  1.0000
  C   C8        1.0  0.49934  0.09596  0.55722  1.0000
  C   C9        1.0  0.97151  0.38586  0.96424  1.0000
  C   C10       1.0  0.02849  0.38586  0.53576  1.0000
  C   C11       1.0  0.47151  0.88586  0.96424  1.0000
  C   C12       1.0  0.52849  0.88586  0.53576  1.0000
  C   C13       1.0  0.02849  0.61414  0.03576  1.0000
  C   C14       1.0  0.97151  0.61414  0.46424  1.0000
  C   C15       1.0  0.52849  0.11414  0.03576  1.0000
  C   C16       1.0  0.47151  0.11414  0.46424  1.0000
  C   C17       1.0  0.02755  0.51726  0.09181  1.0000
  C   C18       1.0  0.97245  0.51726  0.40819  1.0000
  C   C19       1.0  0.52755  0.01726  0.09181  1.0000
  C   C20       1.0  0.47245  0.01726  0.40819  1.0000
  C   C21       1.0  0.97245  0.48274  0.90819  1.0000
  C   C22       1.0  0.02755  0.48274  0.59181  1.0000
  C   C23       1.0  0.47245  0.98274  0.90819  1.0000
  C   C24       1.0  0.52755  0.98274  0.59181  1.0000
  H   H41       1.0  0.04620  0.52860  0.15390  1.0000
  H   H42       1.0  0.95380  0.52860  0.34610  1.0000
  H   H43       1.0  0.54620  0.02860  0.15390  1.0000
  H   H44       1.0  0.45380  0.02860  0.34610  1.0000
  H   H45       1.0  0.95380  0.47140  0.84610  1.0000
  H   H46       1.0  0.04620  0.47140  0.65390  1.0000
  H   H47       1.0  0.45380  0.97140  0.84610  1.0000
  H   H48       1.0  0.54620  0.97140  0.65390  1.0000
  C   C25       1.0  0.99439  0.30746  0.12342  1.0000
  C   C26       1.0  0.00561  0.30746  0.37658  1.0000
  C   C27       1.0  0.49439  0.80746  0.12342  1.0000
  C   C28       1.0  0.50561  0.80746  0.37658  1.0000
  C   C29       1.0  0.00561  0.69254  0.87658  1.0000
  C   C30       1.0  0.99439  0.69254  0.62342  1.0000
  C   C31       1.0  0.50561  0.19254  0.87658  1.0000
  C   C32       1.0  0.49439  0.19254  0.62342  1.0000
  C   C33       1.0  0.94750  0.26452  0.92071  1.0000
  C   C34       1.0  0.05250  0.26452  0.57929  1.0000
  C   C35       1.0  0.44750  0.76452  0.92071  1.0000
  C   C36       1.0  0.55250  0.76452  0.57929  1.0000
  C   C37       1.0  0.05250  0.73548  0.07929  1.0000
  C   C38       1.0  0.94750  0.73548  0.42071  1.0000
  C   C39       1.0  0.55250  0.23548  0.07929  1.0000
  C   C40       1.0  0.44750  0.23548  0.42071  1.0000
