data_image0
_chemical_formula_structural       CoO12H4O2H4C6H2C2H2C4H2C2H2C4H2C2H2C4H2C2H2C2
_chemical_formula_sum              "Co1 O14 H24 C28"
_cell_length_a       7.542
_cell_length_b       10.225
_cell_length_c       14.384
_cell_angle_alpha    77.564
_cell_angle_beta     80.507
_cell_angle_gamma    78.017

_space_group_name_H-M_alt    "P 1"
_space_group_IT_number       1

loop_
  _space_group_symop_operation_xyz
  'x, y, z'

loop_
  _atom_site_type_symbol
  _atom_site_label
  _atom_site_symmetry_multiplicity
  _atom_site_fract_x
  _atom_site_fract_y
  _atom_site_fract_z
  _atom_site_occupancy
  Co  Co1       1.0  0.00000  0.50000  0.50000  1.0000
  O   O1        1.0  0.02300  0.15700  0.00950  1.0000
  O   O2        1.0  0.97700  0.84300  0.99050  1.0000
  O   O3        1.0  0.98920  0.20010  0.44390  1.0000
  O   O4        1.0  0.01080  0.79990  0.55610  1.0000
  O   O5        1.0  0.03130  0.41170  0.37540  1.0000
  O   O6        1.0  0.96870  0.58830  0.62460  1.0000
  O   O7        1.0  0.53440  0.33760  0.62290  1.0000
  O   O8        1.0  0.46560  0.66240  0.37710  1.0000
  O   O9        1.0  0.73480  0.27710  0.72860  1.0000
  O   O10       1.0  0.26520  0.72290  0.27140  1.0000
  O   O11       1.0  0.27710  0.48820  0.49540  1.0000
  O   O12       1.0  0.72290  0.51180  0.50460  1.0000
  H   H1        1.0  0.29740  0.52030  0.54170  1.0000
  H   H2        1.0  0.70260  0.47970  0.45830  1.0000
  H   H3        1.0  0.31800  0.53410  0.44250  1.0000
  H   H4        1.0  0.68200  0.46590  0.55750  1.0000
  O   O13       1.0  0.00970  0.30550  0.59020  1.0000
  O   O14       1.0  0.99030  0.69450  0.40980  1.0000
  H   H5        1.0  0.99910  0.31400  0.64850  1.0000
  H   H6        1.0  0.00090  0.68600  0.35150  1.0000
  H   H7        1.0  0.92260  0.26960  0.58210  1.0000
  H   H8        1.0  0.07740  0.73040  0.41790  1.0000
  C   C1        1.0  0.01280  0.29360  0.37000  1.0000
  C   C2        1.0  0.98720  0.70640  0.63000  1.0000
  C   C3        1.0  0.02050  0.25730  0.27420  1.0000
  C   C4        1.0  0.97950  0.74270  0.72580  1.0000
  C   C5        1.0  0.05060  0.35250  0.19070  1.0000
  C   C6        1.0  0.94940  0.64750  0.80930  1.0000
  H   H9        1.0  0.06640  0.43890  0.19460  1.0000
  H   H10       1.0  0.93360  0.56110  0.80540  1.0000
  C   C7        1.0  0.05710  0.31890  0.10180  1.0000
  C   C8        1.0  0.94290  0.68110  0.89820  1.0000
  H   H11       1.0  0.07810  0.38240  0.04610  1.0000
  H   H12       1.0  0.92190  0.61760  0.95390  1.0000
  C   C9        1.0  0.03270  0.19250  0.09610  1.0000
  C   C10       1.0  0.96730  0.80750  0.90390  1.0000
  C   C11       1.0  0.00280  0.09490  0.17850  1.0000
  C   C12       1.0  0.99720  0.90510  0.82150  1.0000
  H   H13       1.0  0.98710  0.00860  0.17420  1.0000
  H   H14       1.0  0.01290  0.99140  0.82580  1.0000
  C   C13       1.0  0.99720  0.13010  0.26760  1.0000
  C   C14       1.0  0.00280  0.86990  0.73240  1.0000
  H   H15       1.0  0.97750  0.06640  0.32330  1.0000
  H   H16       1.0  0.02250  0.93360  0.67670  1.0000
  C   C15       1.0  0.16130  0.18870  0.93570  1.0000
  C   C16       1.0  0.83870  0.81130  0.06430  1.0000
  C   C17       1.0  0.34330  0.14440  0.94780  1.0000
  C   C18       1.0  0.65670  0.85560  0.05220  1.0000
  H   H17       1.0  0.37530  0.09290  0.00620  1.0000
  H   H18       1.0  0.62470  0.90710  0.99380  1.0000
  C   C19       1.0  0.47760  0.17590  0.87380  1.0000
  C   C20       1.0  0.52240  0.82410  0.12620  1.0000
  H   H19       1.0  0.60000  0.14650  0.88260  1.0000
  H   H20       1.0  0.40000  0.85350  0.11740  1.0000
  C   C21       1.0  0.43040  0.25190  0.78580  1.0000
  C   C22       1.0  0.56960  0.74810  0.21420  1.0000
  C   C23       1.0  0.24610  0.29180  0.77360  1.0000
  C   C24       1.0  0.75390  0.70820  0.22640  1.0000
  H   H21       1.0  0.21330  0.34150  0.71480  1.0000
  H   H22       1.0  0.78670  0.65850  0.28520  1.0000
  C   C25       1.0  0.11070  0.25860  0.84770  1.0000
  C   C26       1.0  0.88930  0.74140  0.15230  1.0000
  H   H23       1.0  0.98820  0.28290  0.83850  1.0000
  H   H24       1.0  0.01180  0.71710  0.16150  1.0000
  C   C27       1.0  0.57820  0.29060  0.70850  1.0000
  C   C28       1.0  0.42180  0.70940  0.29150  1.0000
