data_image0
_chemical_formula_structural       Ni3O6H4O4N2O2H4O2N2O10N2O2C2H2C2O2C2H2C6H2C8H2C2O2C4H2C4H2C2H2C2H2C2H2C2H2C2H2C2H2C6H2C4H4C2H2C2H4C6H4C2H2C4H4C8H4C2H2C8H2C2H2C4H2C2H2C8H2C2H6C2H2C2H2C2H6C2H2C4H2C4H2C2H2C2H6C2H2C2H2C2H2C2H6C2H6C2H2C2H2C2H6C2H2C2H2C4H2C2O2H2O2C2O2C2H4C2H2C2H2C4H2C2H2C2O4H2C2
_chemical_formula_sum              "Ni3 O40 H150 N6 C168"
_cell_length_a       13.709
_cell_length_b       17.722
_cell_length_c       23.81
_cell_angle_alpha    70.746
_cell_angle_beta     77.493
_cell_angle_gamma    88.4

_space_group_name_H-M_alt    "P 1"
_space_group_IT_number       1

loop_
  _space_group_symop_operation_xyz
  'x, y, z'

loop_
  _atom_site_type_symbol
  _atom_site_label
  _atom_site_symmetry_multiplicity
  _atom_site_fract_x
  _atom_site_fract_y
  _atom_site_fract_z
  _atom_site_occupancy
  Ni  Ni1       1.0  0.00000  0.00000  0.00000  1.0000
  Ni  Ni2       1.0  0.59279  0.84975  0.26776  1.0000
  Ni  Ni3       1.0  0.40721  0.15025  0.73224  1.0000
  O   O1        1.0  0.99107  0.87673  0.02538  1.0000
  O   O2        1.0  0.00893  0.12327  0.97462  1.0000
  O   O3        1.0  0.61450  0.96033  0.20333  1.0000
  O   O4        1.0  0.38550  0.03967  0.79667  1.0000
  O   O5        1.0  0.97178  0.98677  0.09279  1.0000
  O   O6        1.0  0.02822  0.01323  0.90721  1.0000
  H   H1        1.0  0.00110  0.94600  0.11190  1.0000
  H   H2        1.0  0.99890  0.05400  0.88810  1.0000
  H   H3        1.0  0.90860  0.97990  0.10790  1.0000
  H   H4        1.0  0.09140  0.02010  0.89210  1.0000
  O   O7        1.0  0.44010  0.86885  0.26664  1.0000
  O   O8        1.0  0.55990  0.13115  0.73336  1.0000
  O   O9        1.0  0.59300  0.79948  0.19992  1.0000
  O   O10       1.0  0.40700  0.20052  0.80008  1.0000
  N   N1        1.0  0.15610  0.99316  0.00161  1.0000
  N   N2        1.0  0.84390  0.00684  0.99839  1.0000
  O   O11       1.0  0.74370  0.83749  0.26463  1.0000
  O   O12       1.0  0.25630  0.16251  0.73537  1.0000
  H   H5        1.0  0.77580  0.84940  0.28790  1.0000
  H   H6        1.0  0.22420  0.15060  0.71210  1.0000
  H   H7        1.0  0.78420  0.81980  0.23960  1.0000
  H   H8        1.0  0.21580  0.18020  0.76040  1.0000
  O   O13       1.0  0.64510  0.30346  0.00830  1.0000
  O   O14       1.0  0.35490  0.69654  0.99170  1.0000
  N   N3        1.0  0.56000  0.73634  0.33315  1.0000
  N   N4        1.0  0.44000  0.26366  0.66685  1.0000
  O   O15       1.0  0.44830  0.88568  0.16836  1.0000
  O   O16       1.0  0.55170  0.11432  0.83164  1.0000
  O   O17       1.0  0.97710  0.86205  0.93739  1.0000
  O   O18       1.0  0.02290  0.13795  0.06261  1.0000
  O   O19       1.0  0.99670  0.49919  0.08977  1.0000
  O   O20       1.0  0.00330  0.50081  0.91023  1.0000
  O   O21       1.0  0.78070  0.97453  0.17424  1.0000
  O   O22       1.0  0.21930  0.02547  0.82576  1.0000
  O   O23       1.0  0.65360  0.66380  0.97703  1.0000
  O   O24       1.0  0.34640  0.33620  0.02297  1.0000
  N   N5        1.0  0.57390  0.90253  0.33555  1.0000
  N   N6        1.0  0.42610  0.09747  0.66445  1.0000
  O   O25       1.0  0.14790  0.15049  0.21140  1.0000
  O   O26       1.0  0.85210  0.84951  0.78860  1.0000
  C   C1        1.0  0.22300  0.05170  0.96901  1.0000
  C   C2        1.0  0.77700  0.94830  0.03099  1.0000
  H   H9        1.0  0.20090  0.09800  0.94370  1.0000
  H   H10       1.0  0.79910  0.90200  0.05630  1.0000
  C   C3        1.0  0.99300  0.74563  0.01930  1.0000
  C   C4        1.0  0.00700  0.25437  0.98070  1.0000
  O   O27       1.0  0.73620  0.74330  0.20140  1.0000
  O   O28       1.0  0.26380  0.25670  0.79860  1.0000
  C   C5        1.0  0.18950  0.92680  0.03620  1.0000
  C   C6        1.0  0.81050  0.07320  0.96380  1.0000
  H   H11       1.0  0.14420  0.88390  0.05900  1.0000
  H   H12       1.0  0.85580  0.11610  0.94100  1.0000
  C   C7        1.0  0.98610  0.83522  0.99352  1.0000
  C   C8        1.0  0.01390  0.16478  0.00648  1.0000
  C   C9        1.0  0.35980  0.98190  0.00585  1.0000
  C   C10       1.0  0.64020  0.01810  0.99415  1.0000
  C   C11       1.0  0.99800  0.69730  0.98363  1.0000
  C   C12       1.0  0.00200  0.30270  0.01637  1.0000
  H   H13       1.0  0.99760  0.72050  0.94250  1.0000
  H   H14       1.0  0.00240  0.27950  0.05750  1.0000
  C   C13       1.0  0.68110  0.07960  0.12703  1.0000
  C   C14       1.0  0.31890  0.92040  0.87297  1.0000
  C   C15       1.0  0.66310  0.23010  0.04670  1.0000
  C   C16       1.0  0.33690  0.76990  0.95330  1.0000
  C   C17       1.0  0.69500  0.99910  0.17093  1.0000
  C   C18       1.0  0.30500  0.00090  0.82907  1.0000
  C   C19       1.0  0.99590  0.71070  0.08111  1.0000
  C   C20       1.0  0.00410  0.28930  0.91889  1.0000
  H   H15       1.0  0.99590  0.74230  0.10550  1.0000
  H   H16       1.0  0.00410  0.25770  0.89450  1.0000
  C   C21       1.0  0.41280  0.90280  0.21906  1.0000
  C   C22       1.0  0.58720  0.09720  0.78094  1.0000
  O   O29       1.0  0.70480  0.22590  0.27632  1.0000
  O   O30       1.0  0.29520  0.77410  0.72368  1.0000
  C   C23       1.0  0.00050  0.58100  0.06882  1.0000
  C   C24       1.0  0.99950  0.41900  0.93118  1.0000
  C   C25       1.0  0.60770  0.71410  0.37810  1.0000
  C   C26       1.0  0.39230  0.28590  0.62190  1.0000
  H   H17       1.0  0.65950  0.74710  0.37790  1.0000
  H   H18       1.0  0.34050  0.25290  0.62210  1.0000
  C   C27       1.0  0.65470  0.73680  0.12580  1.0000
  C   C28       1.0  0.34530  0.26320  0.87420  1.0000
  C   C29       1.0  0.76520  0.13090  0.09458  1.0000
  C   C30       1.0  0.23480  0.86910  0.90542  1.0000
  H   H19       1.0  0.82880  0.11440  0.09940  1.0000
  H   H20       1.0  0.17120  0.88560  0.90060  1.0000
  C   C31       1.0  0.46400  0.97190  0.01104  1.0000
  C   C32       1.0  0.53600  0.02810  0.98896  1.0000
  H   H21       1.0  0.48100  0.92080  0.03200  1.0000
  H   H22       1.0  0.51900  0.07920  0.96800  1.0000
  C   C33       1.0  0.58890  0.10450  0.11853  1.0000
  C   C34       1.0  0.41110  0.89550  0.88147  1.0000
  H   H23       1.0  0.53280  0.07070  0.14000  1.0000
  H   H24       1.0  0.46720  0.92930  0.86000  1.0000
  C   C35       1.0  0.75340  0.20620  0.05530  1.0000
  C   C36       1.0  0.24660  0.79380  0.94470  1.0000
  H   H25       1.0  0.80920  0.24060  0.03450  1.0000
  H   H26       1.0  0.19080  0.75940  0.96550  1.0000
  C   C37       1.0  0.32210  0.04960  0.96964  1.0000
  C   C38       1.0  0.67790  0.95040  0.03036  1.0000
  H   H27       1.0  0.36470  0.09370  0.94570  1.0000
  H   H28       1.0  0.63530  0.90630  0.05430  1.0000
  C   C39       1.0  0.57740  0.18020  0.07790  1.0000
  C   C40       1.0  0.42260  0.81980  0.92210  1.0000
  H   H29       1.0  0.51450  0.19690  0.07190  1.0000
  H   H30       1.0  0.48550  0.80310  0.92810  1.0000
  C   C41       1.0  0.99890  0.62760  0.10519  1.0000
  C   C42       1.0  0.00110  0.37240  0.89481  1.0000
  H   H31       1.0  0.99980  0.60350  0.14620  1.0000
  H   H32       1.0  0.00020  0.39650  0.85380  1.0000
  C   C43       1.0  0.04360  0.32230  0.15830  1.0000
  C   C44       1.0  0.95640  0.67770  0.84170  1.0000
  C   C45       1.0  0.61020  0.55990  0.94290  1.0000
  C   C46       1.0  0.38980  0.44010  0.05710  1.0000
  C   C47       1.0  0.56630  0.73020  0.11015  1.0000
  C   C48       1.0  0.43370  0.26980  0.88985  1.0000
  H   H33       1.0  0.50820  0.74330  0.13280  1.0000
  H   H34       1.0  0.49180  0.25670  0.86720  1.0000
  C   C49       1.0  0.66210  0.76230  0.17840  1.0000
  C   C50       1.0  0.33790  0.23770  0.82160  1.0000
  C   C51       1.0  0.72970  0.35810  0.97450  1.0000
  C   C52       1.0  0.27030  0.64190  0.02550  1.0000
  H   H35       1.0  0.77310  0.33700  0.94590  1.0000
  H   H36       1.0  0.22690  0.66300  0.05410  1.0000
  H   H37       1.0  0.76800  0.36640  0.00200  1.0000
  H   H38       1.0  0.23200  0.63360  0.99800  1.0000
  C   C53       1.0  0.28800  0.91870  0.03994  1.0000
  C   C54       1.0  0.71200  0.08130  0.96006  1.0000
  H   H39       1.0  0.30760  0.87130  0.06510  1.0000
  H   H40       1.0  0.69240  0.12870  0.93490  1.0000
  C   C55       1.0  0.98460  0.45900  0.15390  1.0000
  C   C56       1.0  0.01540  0.54100  0.84610  1.0000
  H   H41       1.0  0.92870  0.47970  0.17630  1.0000
  H   H42       1.0  0.07130  0.52030  0.82370  1.0000
  H   H43       1.0  0.04460  0.46710  0.16700  1.0000
  H   H44       1.0  0.95540  0.53290  0.83300  1.0000
  C   C57       1.0  0.96520  0.37050  0.16532  1.0000
  C   C58       1.0  0.03480  0.62950  0.83468  1.0000
  C   C59       1.0  0.21300  0.09050  0.20800  1.0000
  C   C60       1.0  0.78700  0.90950  0.79200  1.0000
  C   C61       1.0  0.57180  0.61470  0.97880  1.0000
  C   C62       1.0  0.42820  0.38530  0.02120  1.0000
  H   H45       1.0  0.52110  0.64780  0.96130  1.0000
  H   H46       1.0  0.47890  0.35220  0.03870  1.0000
  H   H47       1.0  0.54190  0.58340  0.02070  1.0000
  H   H48       1.0  0.45810  0.41660  0.97930  1.0000
  C   C63       1.0  0.00350  0.61580  0.00770  1.0000
  C   C64       1.0  0.99650  0.38420  0.99230  1.0000
  H   H49       1.0  0.00930  0.58440  0.98270  1.0000
  H   H50       1.0  0.99070  0.41560  0.01730  1.0000
  C   C65       1.0  0.64980  0.68860  0.02530  1.0000
  C   C66       1.0  0.35020  0.31140  0.97470  1.0000
  C   C67       1.0  0.74220  0.22440  0.21570  1.0000
  C   C68       1.0  0.25780  0.77560  0.78430  1.0000
  H   H51       1.0  0.70310  0.25740  0.18810  1.0000
  H   H52       1.0  0.29690  0.74260  0.81190  1.0000
  H   H53       1.0  0.73950  0.17020  0.21480  1.0000
  H   H54       1.0  0.26050  0.82980  0.78520  1.0000
  C   C69       1.0  0.68830  0.43600  0.94100  1.0000
  C   C70       1.0  0.31170  0.56400  0.05900  1.0000
  C   C71       1.0  0.34230  0.96730  0.21423  1.0000
  C   C72       1.0  0.65770  0.03270  0.78577  1.0000
  C   C73       1.0  0.59930  0.57470  0.88470  1.0000
  C   C74       1.0  0.40070  0.42530  0.11530  1.0000
  C   C75       1.0  0.10950  0.18840  0.15690  1.0000
  C   C76       1.0  0.89050  0.81160  0.84310  1.0000
  H   H55       1.0  0.08540  0.14800  0.14330  1.0000
  H   H56       1.0  0.91460  0.85200  0.85670  1.0000
  H   H57       1.0  0.16220  0.22110  0.12440  1.0000
  H   H58       1.0  0.83780  0.77890  0.87560  1.0000
  C   C77       1.0  0.24040  0.05300  0.26270  1.0000
  C   C78       1.0  0.75960  0.94700  0.73730  1.0000
  H   H59       1.0  0.21510  0.06820  0.29670  1.0000
  H   H60       1.0  0.78490  0.93180  0.70330  1.0000
  C   C79       1.0  0.62620  0.52060  0.85400  1.0000
  C   C80       1.0  0.37380  0.47940  0.14600  1.0000
  C   C81       1.0  0.02480  0.24010  0.17221  1.0000
  C   C82       1.0  0.97520  0.75990  0.82779  1.0000
  C   C83       1.0  0.84930  0.25730  0.19760  1.0000
  C   C84       1.0  0.15070  0.74270  0.80240  1.0000
  C   C85       1.0  0.30770  0.99090  0.26558  1.0000
  C   C86       1.0  0.69230  0.00910  0.73442  1.0000
  H   H61       1.0  0.32910  0.96570  0.30140  1.0000
  H   H62       1.0  0.67090  0.03430  0.69860  1.0000
  C   C87       1.0  0.49050  0.68640  0.33270  1.0000
  C   C88       1.0  0.50950  0.31360  0.66730  1.0000
  H   H63       1.0  0.45980  0.70060  0.29970  1.0000
  H   H64       1.0  0.54020  0.29940  0.70030  1.0000
  C   C89       1.0  0.65810  0.49010  0.97190  1.0000
  C   C90       1.0  0.34190  0.50990  0.02810  1.0000
  C   C91       1.0  0.49360  0.88520  0.38140  1.0000
  C   C92       1.0  0.50640  0.11480  0.61860  1.0000
  H   H65       1.0  0.44530  0.84920  0.38170  1.0000
  H   H66       1.0  0.55470  0.15080  0.61830  1.0000
  C   C93       1.0  0.58160  0.64120  0.42670  1.0000
  C   C94       1.0  0.41840  0.35880  0.57330  1.0000
  H   H67       1.0  0.61280  0.62890  0.45930  1.0000
  H   H68       1.0  0.38720  0.37110  0.54070  1.0000
  C   C95       1.0  0.51320  0.59000  0.42640  1.0000
  C   C96       1.0  0.48680  0.41000  0.57360  1.0000
  C   C97       1.0  0.55230  0.96760  0.42900  1.0000
  C   C98       1.0  0.44770  0.03240  0.57100  1.0000
  C   C99       1.0  0.67220  0.44950  0.88290  1.0000
  C   C100      1.0  0.32780  0.55050  0.11710  1.0000
  C   C101      1.0  0.24650  0.06840  0.15790  1.0000
  C   C102      1.0  0.75350  0.93160  0.84210  1.0000
  H   H69       1.0  0.22560  0.09440  0.12200  1.0000
  H   H70       1.0  0.77440  0.90560  0.87800  1.0000
  C   C103      1.0  0.55460  0.65380  0.85180  1.0000
  C   C104      1.0  0.44540  0.34620  0.14820  1.0000
  H   H71       1.0  0.56260  0.69280  0.87070  1.0000
  H   H72       1.0  0.43740  0.30720  0.12930  1.0000
  H   H73       1.0  0.48480  0.64450  0.85470  1.0000
  H   H74       1.0  0.51520  0.35550  0.14530  1.0000
  H   H75       1.0  0.58880  0.67320  0.80970  1.0000
  H   H76       1.0  0.41120  0.32680  0.19030  1.0000
  C   C105      1.0  0.48200  0.51440  0.47550  1.0000
  C   C106      1.0  0.51800  0.48560  0.52450  1.0000
  H   H77       1.0  0.43160  0.48370  0.47160  1.0000
  H   H78       1.0  0.56840  0.51630  0.52840  1.0000
  C   C107      1.0  0.74050  0.72400  0.08940  1.0000
  C   C108      1.0  0.25950  0.27600  0.91060  1.0000
  H   H79       1.0  0.80180  0.73280  0.09750  1.0000
  H   H80       1.0  0.19820  0.26720  0.90250  1.0000
  C   C109      1.0  0.77920  0.39410  0.18480  1.0000
  C   C110      1.0  0.22080  0.60590  0.81520  1.0000
  H   H81       1.0  0.77800  0.41550  0.21710  1.0000
  H   H82       1.0  0.22200  0.58450  0.78290  1.0000
  H   H83       1.0  0.71790  0.36380  0.19270  1.0000
  H   H84       1.0  0.28210  0.63620  0.80730  1.0000
  H   H85       1.0  0.78650  0.43720  0.14680  1.0000
  H   H86       1.0  0.21350  0.56280  0.85320  1.0000
  C   C111      1.0  0.31250  0.00610  0.16060  1.0000
  C   C112      1.0  0.68750  0.99390  0.83940  1.0000
  H   H87       1.0  0.33610  0.99100  0.12630  1.0000
  H   H88       1.0  0.66390  0.00900  0.87370  1.0000
  C   C113      1.0  0.92790  0.20760  0.19505  1.0000
  C   C114      1.0  0.07210  0.79240  0.80495  1.0000
  C   C115      1.0  0.55910  0.70420  0.06040  1.0000
  C   C116      1.0  0.44090  0.29580  0.93960  1.0000
  H   H89       1.0  0.49770  0.69780  0.05150  1.0000
  H   H90       1.0  0.50230  0.30220  0.94850  1.0000
  C   C117      1.0  0.86780  0.33940  0.18140  1.0000
  C   C118      1.0  0.13220  0.66060  0.81860  1.0000
  C   C119      1.0  0.73860  0.69800  0.04030  1.0000
  C   C120      1.0  0.26140  0.30200  0.95970  1.0000
  H   H91       1.0  0.79810  0.68710  0.01760  1.0000
  H   H92       1.0  0.20190  0.31290  0.98240  1.0000
  C   C121      1.0  0.47680  0.91580  0.42730  1.0000
  C   C122      1.0  0.52320  0.08420  0.57270  1.0000
  H   H93       1.0  0.41760  0.90330  0.45700  1.0000
  H   H94       1.0  0.58240  0.09670  0.54300  1.0000
  C   C123      1.0  0.67710  0.47780  0.03370  1.0000
  C   C124      1.0  0.32290  0.52220  0.96630  1.0000
  H   H95       1.0  0.71540  0.52300  0.03250  1.0000
  H   H96       1.0  0.28460  0.47700  0.96750  1.0000
  H   H97       1.0  0.71350  0.43020  0.04590  1.0000
  H   H98       1.0  0.28650  0.56980  0.95410  1.0000
  H   H99       1.0  0.61440  0.47210  0.06250  1.0000
  H   H100      1.0  0.38560  0.52790  0.93750  1.0000
  C   C125      1.0  0.64450  0.95160  0.33780  1.0000
  C   C126      1.0  0.35550  0.04840  0.66220  1.0000
  H   H101      1.0  0.70290  0.96330  0.30750  1.0000
  H   H102      1.0  0.29710  0.03670  0.69250  1.0000
  C   C127      1.0  0.46100  0.61350  0.37900  1.0000
  C   C128      1.0  0.53900  0.38650  0.62100  1.0000
  H   H103      1.0  0.40870  0.58150  0.37860  1.0000
  H   H104      1.0  0.59130  0.41850  0.62140  1.0000
  C   C129      1.0  0.54290  0.17100  0.27740  1.0000
  C   C130      1.0  0.45710  0.82900  0.72260  1.0000
  H   H105      1.0  0.56270  0.16920  0.23790  1.0000
  H   H106      1.0  0.43730  0.83080  0.76210  1.0000
  C   C131      1.0  0.15170  0.35570  0.13880  1.0000
  C   C132      1.0  0.84830  0.64430  0.86120  1.0000
  H   H107      1.0  0.15490  0.40990  0.11170  1.0000
  H   H108      1.0  0.84510  0.59010  0.88830  1.0000
  H   H109      1.0  0.19270  0.32370  0.11810  1.0000
  H   H110      1.0  0.80730  0.67630  0.88190  1.0000
  H   H111      1.0  0.17560  0.35430  0.17410  1.0000
  H   H112      1.0  0.82440  0.64570  0.82590  1.0000
  C   C133      1.0  0.90970  0.11730  0.21590  1.0000
  C   C134      1.0  0.09030  0.88270  0.78410  1.0000
  H   H113      1.0  0.92020  0.10000  0.18100  1.0000
  H   H114      1.0  0.07980  0.90000  0.81900  1.0000
  H   H115      1.0  0.84210  0.10320  0.23890  1.0000
  H   H116      1.0  0.15790  0.89680  0.76110  1.0000
  H   H117      1.0  0.95520  0.09180  0.24110  1.0000
  H   H118      1.0  0.04480  0.90820  0.75890  1.0000
  C   C135      1.0  0.57660  0.21140  0.35910  1.0000
  C   C136      1.0  0.42340  0.78860  0.64090  1.0000
  H   H119      1.0  0.61980  0.23500  0.37440  1.0000
  H   H120      1.0  0.38020  0.76500  0.62560  1.0000
  C   C137      1.0  0.63410  0.98580  0.38380  1.0000
  C   C138      1.0  0.36590  0.01420  0.61620  1.0000
  H   H121      1.0  0.68380  0.02100  0.38290  1.0000
  H   H122      1.0  0.31620  0.97900  0.61710  1.0000
  C   C139      1.0  0.70360  0.38680  0.85260  1.0000
  C   C140      1.0  0.29640  0.61320  0.14740  1.0000
  H   H123      1.0  0.77520  0.38610  0.84290  1.0000
  H   H124      1.0  0.22480  0.61390  0.15710  1.0000
  H   H125      1.0  0.67890  0.39940  0.81600  1.0000
  H   H126      1.0  0.32110  0.60060  0.18400  1.0000
  H   H127      1.0  0.67640  0.33510  0.88000  1.0000
  H   H128      1.0  0.32360  0.66490  0.12000  1.0000
  C   C141      1.0  0.45070  0.14360  0.31130  1.0000
  C   C142      1.0  0.54930  0.85640  0.68870  1.0000
  H   H129      1.0  0.40960  0.11700  0.29680  1.0000
  H   H130      1.0  0.59040  0.88300  0.70320  1.0000
  C   C143      1.0  0.54190  0.00450  0.47740  1.0000
  C   C144      1.0  0.45810  0.99550  0.52260  1.0000
  H   H131      1.0  0.59570  0.03560  0.47700  1.0000
  H   H132      1.0  0.40430  0.96440  0.52300  1.0000
  C   C145      1.0  0.60670  0.20150  0.30230  1.0000
  C   C146      1.0  0.39330  0.79850  0.69770  1.0000
  C   C147      1.0  0.47720  0.18420  0.39310  1.0000
  C   C148      1.0  0.52280  0.81580  0.60690  1.0000
  H   H133      1.0  0.45590  0.18720  0.43210  1.0000
  H   H134      1.0  0.54410  0.81280  0.56790  1.0000
  C   C149      1.0  0.41510  0.15460  0.36870  1.0000
  C   C150      1.0  0.58490  0.84540  0.63130  1.0000
  O   O31       1.0  0.26770  0.06530  0.39350  1.0000
  O   O32       1.0  0.73230  0.93470  0.60650  1.0000
  H   H135      1.0  0.22700  0.03760  0.42340  1.0000
  H   H136      1.0  0.77300  0.96240  0.57660  1.0000
  O   O33       1.0  0.29440  0.13650  0.45850  1.0000
  O   O34       1.0  0.70560  0.86350  0.54150  1.0000
  C   C151      1.0  0.32160  0.11280  0.41010  1.0000
  C   C152      1.0  0.67840  0.88720  0.58990  1.0000
  O   O35       1.0  0.52390  0.49640  0.79660  1.0000
  O   O36       1.0  0.47610  0.50360  0.20340  1.0000
  C   C153      1.0  0.61860  0.53410  0.79190  1.0000
  C   C154      1.0  0.38140  0.46590  0.20810  1.0000
  H   H137      1.0  0.67320  0.51030  0.77120  1.0000
  H   H138      1.0  0.32680  0.48970  0.22880  1.0000
  H   H139      1.0  0.62020  0.59090  0.76960  1.0000
  H   H140      1.0  0.37980  0.40910  0.23040  1.0000
  C   C155      1.0  0.40040  0.48430  0.74590  1.0000
  C   C156      1.0  0.59960  0.51570  0.25410  1.0000
  H   H141      1.0  0.36760  0.44580  0.78190  1.0000
  H   H142      1.0  0.63240  0.55420  0.21810  1.0000
  C   C157      1.0  0.35590  0.50960  0.69600  1.0000
  C   C158      1.0  0.64410  0.49040  0.30400  1.0000
  H   H143      1.0  0.29340  0.48800  0.69850  1.0000
  H   H144      1.0  0.70660  0.51200  0.30150  1.0000
  C   C159      1.0  0.40490  0.56720  0.64230  1.0000
  C   C160      1.0  0.59510  0.43280  0.35770  1.0000
  C   C161      1.0  0.49830  0.59940  0.63860  1.0000
  C   C162      1.0  0.50170  0.40060  0.36140  1.0000
  H   H145      1.0  0.53110  0.63790  0.60260  1.0000
  H   H146      1.0  0.46890  0.36210  0.39740  1.0000
  C   C163      1.0  0.54280  0.57410  0.68850  1.0000
  C   C164      1.0  0.45720  0.42590  0.31150  1.0000
  H   H147      1.0  0.60530  0.59570  0.68590  1.0000
  H   H148      1.0  0.39470  0.40430  0.31410  1.0000
  C   C165      1.0  0.49380  0.51650  0.74220  1.0000
  C   C166      1.0  0.50620  0.48350  0.25780  1.0000
  O   O37       1.0  0.28420  0.55830  0.59230  1.0000
  O   O38       1.0  0.71580  0.44170  0.40770  1.0000
  O   O39       1.0  0.41760  0.67300  0.54220  1.0000
  O   O40       1.0  0.58240  0.32700  0.45780  1.0000
  H   H149      1.0  0.42260  0.70860  0.55640  1.0000
  H   H150      1.0  0.57740  0.29140  0.44360  1.0000
  C   C167      1.0  0.35850  0.60810  0.58720  1.0000
  C   C168      1.0  0.64150  0.39190  0.41280  1.0000
