data_image0
_chemical_formula_structural       Nd4O4H4O46N8C6H2C4H2C4H2C8H2C4H2C4H2C8H2C4H2C4H2C8H2C4H2C4H2C2
_chemical_formula_sum              "Nd4 O50 H28 N8 C64"
_cell_length_a       10.637
_cell_length_b       15.543
_cell_length_c       17.656
_cell_angle_alpha    72.04
_cell_angle_beta     75.44
_cell_angle_gamma    77.33

_space_group_name_H-M_alt    "P 1"
_space_group_IT_number       1

loop_
  _space_group_symop_operation_xyz
  'x, y, z'

loop_
  _atom_site_type_symbol
  _atom_site_label
  _atom_site_symmetry_multiplicity
  _atom_site_fract_x
  _atom_site_fract_y
  _atom_site_fract_z
  _atom_site_occupancy
  Nd  Nd1       1.0  0.63474  0.69657  0.23815  1.0000
  Nd  Nd2       1.0  0.36526  0.30343  0.76185  1.0000
  Nd  Nd3       1.0  0.92309  0.52040  0.11527  1.0000
  Nd  Nd4       1.0  0.07691  0.47960  0.88473  1.0000
  O   O1        1.0  0.68270  0.83160  0.12510  1.0000
  O   O2        1.0  0.31730  0.16840  0.87490  1.0000
  O   O3        1.0  0.04820  0.48880  0.22570  1.0000
  O   O4        1.0  0.95180  0.51120  0.77430  1.0000
  H   H1        1.0  0.03370  0.44650  0.26940  1.0000
  H   H2        1.0  0.96630  0.55350  0.73060  1.0000
  H   H3        1.0  0.12260  0.50670  0.20600  1.0000
  H   H4        1.0  0.87740  0.49330  0.79400  1.0000
  O   O5        1.0  0.69380  0.97840  0.06260  1.0000
  O   O6        1.0  0.30620  0.02160  0.93740  1.0000
  O   O7        1.0  0.93060  0.60170  0.97460  1.0000
  O   O8        1.0  0.06940  0.39830  0.02540  1.0000
  O   O9        1.0  0.01780  0.64960  0.84510  1.0000
  O   O10       1.0  0.98220  0.35040  0.15490  1.0000
  O   O11       1.0  0.06000  0.04770  0.82700  1.0000
  O   O12       1.0  0.94000  0.95230  0.17300  1.0000
  O   O13       1.0  0.07250  0.97930  0.73900  1.0000
  O   O14       1.0  0.92750  0.02070  0.26100  1.0000
  O   O15       1.0  0.84460  0.72840  0.25760  1.0000
  O   O16       1.0  0.15540  0.27160  0.74240  1.0000
  O   O17       1.0  0.89090  0.66340  0.15710  1.0000
  O   O18       1.0  0.10910  0.33660  0.84290  1.0000
  O   O19       1.0  0.24270  0.80240  0.32410  1.0000
  O   O20       1.0  0.75730  0.19760  0.67590  1.0000
  O   O21       1.0  0.43100  0.79490  0.23390  1.0000
  O   O22       1.0  0.56900  0.20510  0.76610  1.0000
  O   O23       1.0  0.40450  0.82850  0.95630  1.0000
  O   O24       1.0  0.59550  0.17150  0.04370  1.0000
  O   O25       1.0  0.22530  0.82190  0.92620  1.0000
  O   O26       1.0  0.77470  0.17810  0.07380  1.0000
  O   O27       1.0  0.71680  0.54600  0.32320  1.0000
  O   O28       1.0  0.28320  0.45400  0.67680  1.0000
  O   O29       1.0  0.77320  0.46060  0.23700  1.0000
  O   O30       1.0  0.22680  0.53940  0.76300  1.0000
  O   O31       1.0  0.53870  0.37050  0.62660  1.0000
  O   O32       1.0  0.46130  0.62950  0.37340  1.0000
  O   O33       1.0  0.41490  0.27110  0.62970  1.0000
  O   O34       1.0  0.58510  0.72890  0.37030  1.0000
  O   O35       1.0  0.57530  0.09450  0.43270  1.0000
  O   O36       1.0  0.42470  0.90550  0.56730  1.0000
  O   O37       1.0  0.68230  0.15330  0.31280  1.0000
  O   O38       1.0  0.31770  0.84670  0.68720  1.0000
  O   O39       1.0  0.78460  0.45620  0.06470  1.0000
  O   O40       1.0  0.21540  0.54380  0.93530  1.0000
  O   O41       1.0  0.85060  0.44650  0.93620  1.0000
  O   O42       1.0  0.14940  0.55350  0.06380  1.0000
  O   O43       1.0  0.31000  0.37300  0.88440  1.0000
  O   O44       1.0  0.69000  0.62700  0.11560  1.0000
  O   O45       1.0  0.50410  0.39130  0.80800  1.0000
  O   O46       1.0  0.49590  0.60870  0.19200  1.0000
  O   O47       1.0  0.41130  0.30900  0.23180  1.0000
  O   O48       1.0  0.58870  0.69100  0.76820  1.0000
  O   O49       1.0  0.29290  0.26250  0.17730  1.0000
  O   O50       1.0  0.70710  0.73750  0.82270  1.0000
  N   N1        1.0  0.03740  0.98690  0.80710  1.0000
  N   N2        1.0  0.96260  0.01310  0.19290  1.0000
  N   N3        1.0  0.29110  0.81680  0.97490  1.0000
  N   N4        1.0  0.70890  0.18320  0.02510  1.0000
  N   N5        1.0  0.62640  0.15700  0.38160  1.0000
  N   N6        1.0  0.37360  0.84300  0.61840  1.0000
  N   N7        1.0  0.37910  0.30470  0.17260  1.0000
  N   N8        1.0  0.62090  0.69530  0.82740  1.0000
  C   C1        1.0  0.72380  0.89480  0.06650  1.0000
  C   C2        1.0  0.27620  0.10520  0.93350  1.0000
  C   C3        1.0  0.81780  0.87240  0.99320  1.0000
  C   C4        1.0  0.18220  0.12760  0.00680  1.0000
  C   C5        1.0  0.84160  0.78390  0.98450  1.0000
  C   C6        1.0  0.15840  0.21610  0.01550  1.0000
  H   H5        1.0  0.79890  0.73870  0.02400  1.0000
  H   H6        1.0  0.20110  0.26130  0.97600  1.0000
  C   C7        1.0  0.92860  0.76260  0.91710  1.0000
  C   C8        1.0  0.07140  0.23740  0.08290  1.0000
  C   C9        1.0  0.99060  0.83040  0.85690  1.0000
  C   C10       1.0  0.00940  0.16960  0.14310  1.0000
  H   H7        1.0  0.04670  0.81770  0.81060  1.0000
  H   H8        1.0  0.95330  0.18230  0.18940  1.0000
  C   C11       1.0  0.96580  0.91710  0.86820  1.0000
  C   C12       1.0  0.03420  0.08290  0.13180  1.0000
  C   C13       1.0  0.88260  0.93970  0.93470  1.0000
  C   C14       1.0  0.11740  0.06030  0.06530  1.0000
  H   H9        1.0  0.86980  0.99870  0.94040  1.0000
  H   H10       1.0  0.13020  0.00130  0.05960  1.0000
  C   C15       1.0  0.96110  0.66580  0.91110  1.0000
  C   C16       1.0  0.03890  0.33420  0.08890  1.0000
  C   C17       1.0  0.92210  0.70840  0.19700  1.0000
  C   C18       1.0  0.07790  0.29160  0.80300  1.0000
  C   C19       1.0  0.05310  0.74110  0.16860  1.0000
  C   C20       1.0  0.94690  0.25890  0.83140  1.0000
  C   C21       1.0  0.11550  0.75480  0.22310  1.0000
  C   C22       1.0  0.88450  0.24520  0.77690  1.0000
  H   H11       1.0  0.07490  0.74490  0.27760  1.0000
  H   H12       1.0  0.92510  0.25510  0.72240  1.0000
  C   C23       1.0  0.23890  0.78330  0.19700  1.0000
  C   C24       1.0  0.76110  0.21670  0.80300  1.0000
  C   C25       1.0  0.29550  0.80300  0.11580  1.0000
  C   C26       1.0  0.70450  0.19700  0.88420  1.0000
  H   H13       1.0  0.37690  0.82290  0.09760  1.0000
  H   H14       1.0  0.62310  0.17710  0.90240  1.0000
  C   C27       1.0  0.23040  0.79300  0.06200  1.0000
  C   C28       1.0  0.76960  0.20700  0.93800  1.0000
  C   C29       1.0  0.11130  0.76080  0.08640  1.0000
  C   C30       1.0  0.88870  0.23920  0.91360  1.0000
  H   H15       1.0  0.07090  0.75250  0.04870  1.0000
  H   H16       1.0  0.92910  0.24750  0.95130  1.0000
  C   C31       1.0  0.30860  0.79410  0.25760  1.0000
  C   C32       1.0  0.69140  0.20590  0.74240  1.0000
  C   C33       1.0  0.72330  0.47240  0.30610  1.0000
  C   C34       1.0  0.27670  0.52760  0.69390  1.0000
  C   C35       1.0  0.67070  0.39230  0.37000  1.0000
  C   C36       1.0  0.32930  0.60770  0.63000  1.0000
  C   C37       1.0  0.61550  0.39580  0.44940  1.0000
  C   C38       1.0  0.38450  0.60420  0.55060  1.0000
  H   H17       1.0  0.61270  0.44850  0.46470  1.0000
  H   H18       1.0  0.38730  0.55150  0.53530  1.0000
  C   C39       1.0  0.56420  0.32100  0.50650  1.0000
  C   C40       1.0  0.43580  0.67900  0.49350  1.0000
  C   C41       1.0  0.56710  0.24280  0.48360  1.0000
  C   C42       1.0  0.43290  0.75720  0.51640  1.0000
  H   H19       1.0  0.53210  0.19270  0.52070  1.0000
  H   H20       1.0  0.46790  0.80730  0.47930  1.0000
  C   C43       1.0  0.62290  0.24080  0.40470  1.0000
  C   C44       1.0  0.37710  0.75920  0.59530  1.0000
  C   C45       1.0  0.67440  0.31380  0.34710  1.0000
  C   C46       1.0  0.32560  0.68620  0.65290  1.0000
  H   H21       1.0  0.71060  0.31050  0.29410  1.0000
  H   H22       1.0  0.28940  0.68950  0.70590  1.0000
  C   C47       1.0  0.50260  0.32180  0.59290  1.0000
  C   C48       1.0  0.49740  0.67820  0.40710  1.0000
  C   C49       1.0  0.76990  0.43960  0.00260  1.0000
  C   C50       1.0  0.23010  0.56040  0.99740  1.0000
  C   C51       1.0  0.64230  0.40820  0.00920  1.0000
  C   C52       1.0  0.35770  0.59180  0.99080  1.0000
  C   C53       1.0  0.59840  0.41060  0.94120  1.0000
  C   C54       1.0  0.40160  0.58940  0.05880  1.0000
  H   H23       1.0  0.65030  0.42930  0.89000  1.0000
  H   H24       1.0  0.34970  0.57070  0.11000  1.0000
  C   C55       1.0  0.47620  0.38500  0.94870  1.0000
  C   C56       1.0  0.52380  0.61500  0.05130  1.0000
  C   C57       1.0  0.40290  0.35290  0.02480  1.0000
  C   C58       1.0  0.59710  0.64710  0.97520  1.0000
  H   H25       1.0  0.32180  0.33580  0.03060  1.0000
  H   H26       1.0  0.67820  0.66420  0.96940  1.0000
  C   C59       1.0  0.45100  0.34630  0.09270  1.0000
  C   C60       1.0  0.54900  0.65370  0.90730  1.0000
  C   C61       1.0  0.56770  0.37570  0.08640  1.0000
  C   C62       1.0  0.43230  0.62430  0.91360  1.0000
  H   H27       1.0  0.59610  0.37380  0.13270  1.0000
  H   H28       1.0  0.40390  0.62620  0.86730  1.0000
  C   C63       1.0  0.42750  0.38590  0.87470  1.0000
  C   C64       1.0  0.57250  0.61410  0.12530  1.0000
