data_image0
_chemical_formula_structural       La4O2H4O48N2C2N4C6H2C4H2C4H2C8H2C4H2C4H2N2C6H2C4H2C4H2C8H2C4H2C4H2C2
_chemical_formula_sum              "La4 O50 H28 N8 C64"
_cell_length_a       10.714
_cell_length_b       15.599
_cell_length_c       17.739
_cell_angle_alpha    71.82
_cell_angle_beta     75.14
_cell_angle_gamma    76.64

_space_group_name_H-M_alt    "P 1"
_space_group_IT_number       1

loop_
  _space_group_symop_operation_xyz
  'x, y, z'

loop_
  _atom_site_type_symbol
  _atom_site_label
  _atom_site_symmetry_multiplicity
  _atom_site_fract_x
  _atom_site_fract_y
  _atom_site_fract_z
  _atom_site_occupancy
  La  La1       1.0  0.07740  0.47793  0.38505  1.0000
  La  La2       1.0  0.92260  0.52207  0.61495  1.0000
  La  La3       1.0  0.36877  0.30003  0.26326  1.0000
  La  La4       1.0  0.63123  0.69997  0.73674  1.0000
  O   O1        1.0  0.94940  0.51218  0.27216  1.0000
  O   O2        1.0  0.05060  0.48782  0.72784  1.0000
  H   H1        1.0  0.87080  0.50310  0.28290  1.0000
  H   H2        1.0  0.12920  0.49690  0.71710  1.0000
  H   H3        1.0  0.96290  0.55590  0.22970  1.0000
  H   H4        1.0  0.03710  0.44410  0.77030  1.0000
  O   O3        1.0  0.02200  0.65287  0.34141  1.0000
  O   O4        1.0  0.97800  0.34713  0.65859  1.0000
  O   O5        1.0  0.93100  0.60407  0.47005  1.0000
  O   O6        1.0  0.06900  0.39593  0.52995  1.0000
  O   O7        1.0  0.68000  0.83566  0.62018  1.0000
  O   O8        1.0  0.32000  0.16434  0.37982  1.0000
  O   O9        1.0  0.69140  0.98175  0.55756  1.0000
  O   O10       1.0  0.30860  0.01825  0.44244  1.0000
  O   O11       1.0  0.06760  0.04460  0.32700  1.0000
  O   O12       1.0  0.93240  0.95540  0.67300  1.0000
  O   O13       1.0  0.06800  0.98260  0.23630  1.0000
  O   O14       1.0  0.93200  0.01740  0.76370  1.0000
  O   O15       1.0  0.31290  0.36951  0.38851  1.0000
  O   O16       1.0  0.68710  0.63049  0.61149  1.0000
  O   O17       1.0  0.50520  0.38878  0.31190  1.0000
  O   O18       1.0  0.49480  0.61122  0.68810  1.0000
  O   O19       1.0  0.29110  0.26620  0.68110  1.0000
  O   O20       1.0  0.70890  0.73380  0.31890  1.0000
  O   O21       1.0  0.41920  0.30290  0.73370  1.0000
  O   O22       1.0  0.58080  0.69710  0.26630  1.0000
  O   O23       1.0  0.78180  0.45550  0.56453  1.0000
  O   O24       1.0  0.21820  0.54450  0.43547  1.0000
  O   O25       1.0  0.84830  0.44290  0.43777  1.0000
  O   O26       1.0  0.15170  0.55710  0.56223  1.0000
  O   O27       1.0  0.54030  0.36243  0.12726  1.0000
  O   O28       1.0  0.45970  0.63757  0.87274  1.0000
  O   O29       1.0  0.42340  0.26220  0.12933  1.0000
  O   O30       1.0  0.57660  0.73780  0.87067  1.0000
  O   O31       1.0  0.71340  0.54682  0.83112  1.0000
  O   O32       1.0  0.28660  0.45318  0.16888  1.0000
  O   O33       1.0  0.76670  0.46990  0.73985  1.0000
  O   O34       1.0  0.23330  0.53010  0.26015  1.0000
  O   O35       1.0  0.69020  0.16060  0.80480  1.0000
  O   O36       1.0  0.30980  0.83940  0.19520  1.0000
  O   O37       1.0  0.58300  0.09840  0.92220  1.0000
  O   O38       1.0  0.41700  0.90160  0.07780  1.0000
  O   O39       1.0  0.57670  0.19956  0.26934  1.0000
  O   O40       1.0  0.42330  0.80044  0.73066  1.0000
  O   O41       1.0  0.76530  0.19420  0.17906  1.0000
  O   O42       1.0  0.23470  0.80580  0.82094  1.0000
  O   O43       1.0  0.15740  0.26612  0.24333  1.0000
  O   O44       1.0  0.84260  0.73388  0.75667  1.0000
  O   O45       1.0  0.11220  0.33232  0.34208  1.0000
  O   O46       1.0  0.88780  0.66768  0.65792  1.0000
  O   O47       1.0  0.77860  0.17980  0.57475  1.0000
  O   O48       1.0  0.22140  0.82020  0.42525  1.0000
  O   O49       1.0  0.59940  0.17341  0.54581  1.0000
  O   O50       1.0  0.40060  0.82659  0.45419  1.0000
  N   N1        1.0  0.03980  0.98750  0.30480  1.0000
  N   N2        1.0  0.96020  0.01250  0.69520  1.0000
  C   C1        1.0  0.76770  0.43780  0.50397  1.0000
  C   C2        1.0  0.23230  0.56220  0.49603  1.0000
  N   N3        1.0  0.63460  0.16160  0.87370  1.0000
  N   N4        1.0  0.36540  0.83840  0.12630  1.0000
  N   N5        1.0  0.71330  0.18460  0.52661  1.0000
  N   N6        1.0  0.28670  0.81540  0.47339  1.0000
  C   C3        1.0  0.96300  0.66820  0.40692  1.0000
  C   C4        1.0  0.03700  0.33180  0.59308  1.0000
  C   C5        1.0  0.92860  0.76430  0.41406  1.0000
  C   C6        1.0  0.07140  0.23570  0.58594  1.0000
  C   C7        1.0  0.84180  0.78660  0.48101  1.0000
  C   C8        1.0  0.15820  0.21340  0.51899  1.0000
  H   H5        1.0  0.79970  0.74160  0.52060  1.0000
  H   H6        1.0  0.20030  0.25840  0.47940  1.0000
  C   C9        1.0  0.81720  0.87440  0.48959  1.0000
  C   C10       1.0  0.18280  0.12560  0.51041  1.0000
  C   C11       1.0  0.88390  0.94100  0.43180  1.0000
  C   C12       1.0  0.11610  0.05900  0.56820  1.0000
  H   H7        1.0  0.87190  0.99960  0.43780  1.0000
  H   H8        1.0  0.12810  0.00040  0.56220  1.0000
  C   C13       1.0  0.96770  0.91770  0.36590  1.0000
  C   C14       1.0  0.03230  0.08230  0.63410  1.0000
  C   C15       1.0  0.99150  0.83200  0.35424  1.0000
  C   C16       1.0  0.00850  0.16800  0.64576  1.0000
  H   H9        1.0  0.04750  0.81930  0.30810  1.0000
  H   H10       1.0  0.95250  0.18070  0.69190  1.0000
  C   C17       1.0  0.72190  0.89800  0.56210  1.0000
  C   C18       1.0  0.27810  0.10200  0.43790  1.0000
  C   C19       1.0  0.42910  0.38260  0.37890  1.0000
  C   C20       1.0  0.57090  0.61740  0.62110  1.0000
  C   C21       1.0  0.47630  0.38340  0.45104  1.0000
  C   C22       1.0  0.52370  0.61660  0.54896  1.0000
  C   C23       1.0  0.40250  0.35180  0.52827  1.0000
  C   C24       1.0  0.59750  0.64820  0.47173  1.0000
  H   H11       1.0  0.32170  0.33520  0.53480  1.0000
  H   H12       1.0  0.67830  0.66480  0.46520  1.0000
  C   C25       1.0  0.45170  0.34570  0.59474  1.0000
  C   C26       1.0  0.54830  0.65430  0.40526  1.0000
  C   C27       1.0  0.56700  0.37510  0.58838  1.0000
  C   C28       1.0  0.43300  0.62490  0.41162  1.0000
  H   H13       1.0  0.59460  0.37390  0.63440  1.0000
  H   H14       1.0  0.40540  0.62610  0.36560  1.0000
  C   C29       1.0  0.64100  0.40660  0.51130  1.0000
  C   C30       1.0  0.35900  0.59340  0.48870  1.0000
  C   C31       1.0  0.59710  0.40860  0.44379  1.0000
  C   C32       1.0  0.40290  0.59140  0.55621  1.0000
  H   H15       1.0  0.64880  0.42690  0.39260  1.0000
  H   H16       1.0  0.35120  0.57310  0.60740  1.0000
  N   N7        1.0  0.38130  0.30320  0.67584  1.0000
  N   N8        1.0  0.61870  0.69680  0.32416  1.0000
  C   C33       1.0  0.50720  0.31400  0.09355  1.0000
  C   C34       1.0  0.49280  0.68600  0.90645  1.0000
  C   C35       1.0  0.56840  0.31650  0.00620  1.0000
  C   C36       1.0  0.43160  0.68350  0.99380  1.0000
  C   C37       1.0  0.61720  0.39340  0.95171  1.0000
  C   C38       1.0  0.38280  0.60660  0.04829  1.0000
  H   H17       1.0  0.61350  0.44440  0.96920  1.0000
  H   H18       1.0  0.38650  0.55560  0.03080  1.0000
  C   C39       1.0  0.67140  0.39390  0.87118  1.0000
  C   C40       1.0  0.32860  0.60610  0.12882  1.0000
  C   C41       1.0  0.67810  0.31760  0.84540  1.0000
  C   C42       1.0  0.32190  0.68240  0.15460  1.0000
  H   H19       1.0  0.71530  0.31680  0.79210  1.0000
  H   H20       1.0  0.28470  0.68320  0.20790  1.0000
  C   C43       1.0  0.62840  0.24260  0.90020  1.0000
  C   C44       1.0  0.37160  0.75740  0.09980  1.0000
  C   C45       1.0  0.57290  0.24110  0.97970  1.0000
  C   C46       1.0  0.42710  0.75890  0.02030  1.0000
  H   H21       1.0  0.53900  0.19000  0.01500  1.0000
  H   H22       1.0  0.46100  0.81000  0.98500  1.0000
  C   C47       1.0  0.72140  0.47620  0.81060  1.0000
  C   C48       1.0  0.27860  0.52380  0.18940  1.0000
  C   C49       1.0  0.69840  0.20180  0.24570  1.0000
  C   C50       1.0  0.30160  0.79820  0.75430  1.0000
  C   C51       1.0  0.76730  0.21280  0.30510  1.0000
  C   C52       1.0  0.23270  0.78720  0.69490  1.0000
  C   C53       1.0  0.88950  0.24030  0.27960  1.0000
  C   C54       1.0  0.11050  0.75970  0.72040  1.0000
  H   H23       1.0  0.93050  0.24940  0.22540  1.0000
  H   H24       1.0  0.06950  0.75060  0.77460  1.0000
  C   C55       1.0  0.95120  0.25450  0.33340  1.0000
  C   C56       1.0  0.04880  0.74550  0.66660  1.0000
  C   C57       1.0  0.89330  0.23730  0.41530  1.0000
  C   C58       1.0  0.10670  0.76270  0.58470  1.0000
  H   H25       1.0  0.93270  0.24680  0.45230  1.0000
  H   H26       1.0  0.06730  0.75320  0.54770  1.0000
  C   C59       1.0  0.77510  0.20540  0.43966  1.0000
  C   C60       1.0  0.22490  0.79460  0.56034  1.0000
  C   C61       1.0  0.70870  0.19490  0.38710  1.0000
  C   C62       1.0  0.29130  0.80510  0.61290  1.0000
  H   H27       1.0  0.62710  0.17640  0.40570  1.0000
  H   H28       1.0  0.37290  0.82360  0.59430  1.0000
  C   C63       1.0  0.08090  0.28680  0.30370  1.0000
  C   C64       1.0  0.91910  0.71320  0.69630  1.0000
