data_image0
_chemical_formula_structural       C2Zn3O6C2H2O4C2H4O2C2H2C4H2C4H2O6H4C2
_chemical_formula_sum              "C18 Zn3 O18 H16"
_cell_length_a       9.2129
_cell_length_b       9.6417
_cell_length_c       9.9945
_cell_angle_alpha    65.041
_cell_angle_beta     80.05
_cell_angle_gamma    66.997

_space_group_name_H-M_alt    "P 1"
_space_group_IT_number       1

loop_
  _space_group_symop_operation_xyz
  'x, y, z'

loop_
  _atom_site_type_symbol
  _atom_site_label
  _atom_site_symmetry_multiplicity
  _atom_site_fract_x
  _atom_site_fract_y
  _atom_site_fract_z
  _atom_site_occupancy
  C   C1        1.0  0.51190  0.53330  0.22230  1.0000
  C   C2        1.0  0.48810  0.46670  0.77770  1.0000
  Zn  Zn1       1.0  0.78785  0.38159  0.31949  1.0000
  Zn  Zn2       1.0  0.21215  0.61841  0.68051  1.0000
  Zn  Zn3       1.0  0.00000  0.50000  0.50000  1.0000
  O   O1        1.0  0.60070  0.39810  0.21360  1.0000
  O   O2        1.0  0.39930  0.60190  0.78640  1.0000
  O   O3        1.0  0.00170  0.43000  0.32740  1.0000
  O   O4        1.0  0.99830  0.57000  0.67260  1.0000
  O   O5        1.0  0.90140  0.74070  0.36720  1.0000
  O   O6        1.0  0.09860  0.25930  0.63280  1.0000
  C   C3        1.0  0.07350  0.77110  0.15290  1.0000
  C   C4        1.0  0.92650  0.22890  0.84710  1.0000
  H   H1        1.0  0.06650  0.86190  0.05680  1.0000
  H   H2        1.0  0.93350  0.13810  0.94320  1.0000
  O   O7        1.0  0.87270  0.55140  0.12420  1.0000
  O   O8        1.0  0.12730  0.44860  0.87580  1.0000
  O   O9        1.0  0.84160  0.97700  0.18160  1.0000
  O   O10       1.0  0.15840  0.02300  0.81840  1.0000
  C   C5        1.0  0.27060  0.50960  0.14950  1.0000
  C   C6        1.0  0.72940  0.49040  0.85050  1.0000
  H   H3        1.0  0.31560  0.46800  0.07280  1.0000
  H   H4        1.0  0.68440  0.53200  0.92720  1.0000
  H   H5        1.0  0.28170  0.41770  0.24380  1.0000
  H   H6        1.0  0.71830  0.58230  0.75620  1.0000
  O   O11       1.0  0.55870  0.59450  0.28440  1.0000
  O   O12       1.0  0.44130  0.40550  0.71560  1.0000
  C   C7        1.0  0.09680  0.61890  0.11840  1.0000
  C   C8        1.0  0.90320  0.38110  0.88160  1.0000
  H   H7        1.0  0.08190  0.65920  0.01200  1.0000
  H   H8        1.0  0.91810  0.34080  0.98800  1.0000
  C   C9        1.0  0.98430  0.53030  0.19440  1.0000
  C   C10       1.0  0.01570  0.46970  0.80560  1.0000
  C   C11       1.0  0.35190  0.61990  0.15180  1.0000
  C   C12       1.0  0.64810  0.38010  0.84820  1.0000
  H   H9        1.0  0.36600  0.68880  0.04890  1.0000
  H   H10       1.0  0.63400  0.31120  0.95110  1.0000
  C   C13       1.0  0.92670  0.83200  0.23920  1.0000
  C   C14       1.0  0.07330  0.16800  0.76080  1.0000
  C   C15       1.0  0.23100  0.73340  0.22270  1.0000
  C   C16       1.0  0.76900  0.26660  0.77730  1.0000
  H   H11       1.0  0.25260  0.83460  0.19050  1.0000
  H   H12       1.0  0.74740  0.16540  0.80950  1.0000
  O   O13       1.0  0.76140  0.26960  0.53970  1.0000
  O   O14       1.0  0.23860  0.73040  0.46030  1.0000
  O   O15       1.0  0.22480  0.51170  0.45110  1.0000
  O   O16       1.0  0.77520  0.48830  0.54890  1.0000
  O   O17       1.0  0.93010  0.16450  0.29960  1.0000
  O   O18       1.0  0.06990  0.83550  0.70040  1.0000
  H   H13       1.0  0.97910  0.18660  0.21750  1.0000
  H   H14       1.0  0.02090  0.81340  0.78250  1.0000
  H   H15       1.0  0.87880  0.10960  0.30310  1.0000
  H   H16       1.0  0.12120  0.89040  0.69690  1.0000
  C   C17       1.0  0.23320  0.65230  0.38960  1.0000
  C   C18       1.0  0.76680  0.34770  0.61040  1.0000
