data_image0
_chemical_formula_structural       C2Co3O6C2H2O4C2H4O2C2H2C4H2C4H2O6H4C2
_chemical_formula_sum              "C18 Co3 O18 H16"
_cell_length_a       9.2406
_cell_length_b       9.5665
_cell_length_c       9.8746
_cell_angle_alpha    66.661
_cell_angle_beta     80.464
_cell_angle_gamma    67.465

_space_group_name_H-M_alt    "P 1"
_space_group_IT_number       1

loop_
  _space_group_symop_operation_xyz
  'x, y, z'

loop_
  _atom_site_type_symbol
  _atom_site_label
  _atom_site_symmetry_multiplicity
  _atom_site_fract_x
  _atom_site_fract_y
  _atom_site_fract_z
  _atom_site_occupancy
  C   C1        1.0  0.51330  0.53230  0.22400  1.0000
  C   C2        1.0  0.48670  0.46770  0.77600  1.0000
  Co  Co1       1.0  0.78842  0.39139  0.31212  1.0000
  Co  Co2       1.0  0.21158  0.60861  0.68788  1.0000
  Co  Co3       1.0  0.00000  0.50000  0.50000  1.0000
  O   O1        1.0  0.59700  0.39420  0.21880  1.0000
  O   O2        1.0  0.40300  0.60580  0.78120  1.0000
  O   O3        1.0  0.00400  0.43120  0.32500  1.0000
  O   O4        1.0  0.99600  0.56880  0.67500  1.0000
  O   O5        1.0  0.90190  0.74140  0.36900  1.0000
  O   O6        1.0  0.09810  0.25860  0.63100  1.0000
  C   C3        1.0  0.07830  0.77030  0.15750  1.0000
  C   C4        1.0  0.92170  0.22970  0.84250  1.0000
  H   H1        1.0  0.07200  0.85990  0.06250  1.0000
  H   H2        1.0  0.92800  0.14010  0.93750  1.0000
  O   O7        1.0  0.87310  0.55490  0.12390  1.0000
  O   O8        1.0  0.12690  0.44510  0.87610  1.0000
  O   O9        1.0  0.85060  0.97930  0.19080  1.0000
  O   O10       1.0  0.14940  0.02070  0.80920  1.0000
  C   C5        1.0  0.27190  0.50900  0.15170  1.0000
  C   C6        1.0  0.72810  0.49100  0.84830  1.0000
  H   H3        1.0  0.31690  0.46480  0.07500  1.0000
  H   H4        1.0  0.68310  0.53520  0.92500  1.0000
  H   H5        1.0  0.28110  0.41990  0.24580  1.0000
  H   H6        1.0  0.71890  0.58010  0.75420  1.0000
  O   O11       1.0  0.56630  0.59840  0.27860  1.0000
  O   O12       1.0  0.43370  0.40160  0.72140  1.0000
  C   C7        1.0  0.09950  0.61930  0.11970  1.0000
  C   C8        1.0  0.90050  0.38070  0.88030  1.0000
  H   H7        1.0  0.08610  0.65810  0.01300  1.0000
  H   H8        1.0  0.91390  0.34190  0.98700  1.0000
  C   C9        1.0  0.98730  0.53210  0.19290  1.0000
  C   C10       1.0  0.01270  0.46790  0.80710  1.0000
  C   C11       1.0  0.35360  0.61980  0.15480  1.0000
  C   C12       1.0  0.64640  0.38020  0.84520  1.0000
  H   H9        1.0  0.36780  0.68680  0.05220  1.0000
  H   H10       1.0  0.63220  0.31320  0.94780  1.0000
  C   C13       1.0  0.93270  0.83240  0.24520  1.0000
  C   C14       1.0  0.06730  0.16760  0.75480  1.0000
  C   C15       1.0  0.23520  0.73320  0.22750  1.0000
  C   C16       1.0  0.76480  0.26680  0.77250  1.0000
  H   H11       1.0  0.25790  0.83340  0.19740  1.0000
  H   H12       1.0  0.74210  0.16660  0.80260  1.0000
  O   O13       1.0  0.75180  0.27080  0.53200  1.0000
  O   O14       1.0  0.24820  0.72920  0.46800  1.0000
  O   O15       1.0  0.22050  0.51710  0.45460  1.0000
  O   O16       1.0  0.77950  0.48290  0.54540  1.0000
  O   O17       1.0  0.93480  0.18260  0.27780  1.0000
  O   O18       1.0  0.06520  0.81740  0.72220  1.0000
  H   H13       1.0  0.95490  0.13310  0.36920  1.0000
  H   H14       1.0  0.04510  0.86690  0.63080  1.0000
  H   H15       1.0  0.88350  0.12770  0.28130  1.0000
  H   H16       1.0  0.11650  0.87230  0.71870  1.0000
  C   C17       1.0  0.23500  0.65430  0.39420  1.0000
  C   C18       1.0  0.76500  0.34570  0.60580  1.0000
