data_image0
_chemical_formula_structural       Zn4O6H2O6H2O6H2O6H2O2H2O2H4C8H2C2H2C2H2C2H2C2H2C12H2C2H2C2H2C2H2C2H2C16H2C2H2C2H2C2H2C2H2C12H2C2H2C2H2C2H2C2H2C8
_chemical_formula_sum              "Zn4 O28 H54 C88"
_cell_length_a       13.796
_cell_length_b       14.348
_cell_length_c       15.22
_cell_angle_alpha    109.84
_cell_angle_beta     94.01
_cell_angle_gamma    110.34

_space_group_name_H-M_alt    "P 1"
_space_group_IT_number       1

loop_
  _space_group_symop_operation_xyz
  'x, y, z'

loop_
  _atom_site_type_symbol
  _atom_site_label
  _atom_site_symmetry_multiplicity
  _atom_site_fract_x
  _atom_site_fract_y
  _atom_site_fract_z
  _atom_site_occupancy
  Zn  Zn1       1.0  0.20958  0.60842  0.65476  1.0000
  Zn  Zn2       1.0  0.79042  0.39158  0.34524  1.0000
  Zn  Zn3       1.0  0.96611  0.37901  0.49412  1.0000
  Zn  Zn4       1.0  0.03389  0.62099  0.50588  1.0000
  O   O1        1.0  0.06870  0.32400  0.53190  1.0000
  O   O2        1.0  0.93130  0.67600  0.46810  1.0000
  O   O3        1.0  0.22880  0.46400  0.58680  1.0000
  O   O4        1.0  0.77120  0.53600  0.41320  1.0000
  O   O5        1.0  0.39910  0.43010  0.62910  1.0000
  O   O6        1.0  0.60090  0.56990  0.37090  1.0000
  H   H1        1.0  0.37420  0.46410  0.60760  1.0000
  H   H2        1.0  0.62580  0.53590  0.39240  1.0000
  O   O7        1.0  0.85630  0.35970  0.57540  1.0000
  O   O8        1.0  0.14370  0.64030  0.42460  1.0000
  O   O9        1.0  0.73100  0.34030  0.45850  1.0000
  O   O10       1.0  0.26900  0.65970  0.54150  1.0000
  O   O11       1.0  0.53190  0.26770  0.47120  1.0000
  O   O12       1.0  0.46810  0.73230  0.52880  1.0000
  H   H3        1.0  0.58070  0.29500  0.44810  1.0000
  H   H4        1.0  0.41930  0.70500  0.55190  1.0000
  O   O13       1.0  0.11170  0.77750  0.61610  1.0000
  O   O14       1.0  0.88830  0.22250  0.38390  1.0000
  O   O15       1.0  0.20740  0.75960  0.73300  1.0000
  O   O16       1.0  0.79260  0.24040  0.26700  1.0000
  O   O17       1.0  0.27090  0.90590  0.90390  1.0000
  O   O18       1.0  0.72910  0.09410  0.09610  1.0000
  H   H5        1.0  0.26020  0.84850  0.86010  1.0000
  H   H6        1.0  0.73980  0.15150  0.13990  1.0000
  O   O19       1.0  0.62730  0.32460  0.28510  1.0000
  O   O20       1.0  0.37270  0.67540  0.71490  1.0000
  O   O21       1.0  0.63600  0.30330  0.13200  1.0000
  O   O22       1.0  0.36400  0.69670  0.86800  1.0000
  O   O23       1.0  0.47040  0.19500  0.99830  1.0000
  O   O24       1.0  0.52960  0.80500  0.00170  1.0000
  H   H7        1.0  0.53350  0.22820  0.02340  1.0000
  H   H8        1.0  0.46650  0.77180  0.97660  1.0000
  O   O25       1.0  0.04950  0.54650  0.59400  1.0000
  O   O26       1.0  0.95050  0.45350  0.40600  1.0000
  H   H9        1.0  0.01030  0.56270  0.64440  1.0000
  H   H10       1.0  0.98970  0.43730  0.35560  1.0000
  O   O27       1.0  0.16840  0.56050  0.77500  1.0000
  O   O28       1.0  0.83160  0.43950  0.22500  1.0000
  H   H11       1.0  0.11780  0.51590  0.78440  1.0000
  H   H12       1.0  0.88220  0.48410  0.21560  1.0000
  H   H13       1.0  0.23050  0.61010  0.81700  1.0000
  H   H14       1.0  0.76950  0.38990  0.18300  1.0000
  C   C1        1.0  0.37950  0.24800  0.58490  1.0000
  C   C2        1.0  0.62050  0.75200  0.41510  1.0000
  C   C3        1.0  0.33380  0.32190  0.58760  1.0000
  C   C4        1.0  0.66620  0.67810  0.41240  1.0000
  C   C5        1.0  0.22110  0.28530  0.55110  1.0000
  C   C6        1.0  0.77890  0.71470  0.44890  1.0000
  C   C7        1.0  0.15940  0.17490  0.50960  1.0000
  C   C8        1.0  0.84060  0.82510  0.49040  1.0000
  H   H15       1.0  0.08780  0.15150  0.48410  1.0000
  H   H16       1.0  0.91220  0.84850  0.51590  1.0000
  C   C9        1.0  0.17940  0.90770  0.46180  1.0000
  C   C10       1.0  0.82060  0.09230  0.53820  1.0000
  H   H17       1.0  0.13670  0.83440  0.43470  1.0000
  H   H18       1.0  0.86330  0.16560  0.56530  1.0000
  C   C11       1.0  0.13780  0.98260  0.46380  1.0000
  C   C12       1.0  0.86220  0.01740  0.53620  1.0000
  H   H19       1.0  0.06630  0.95900  0.43800  1.0000
  H   H20       1.0  0.93370  0.04100  0.56200  1.0000
  C   C13       1.0  0.28790  0.94420  0.50160  1.0000
  C   C14       1.0  0.71210  0.05580  0.49840  1.0000
  H   H21       1.0  0.31600  0.89400  0.50190  1.0000
  H   H22       1.0  0.68400  0.10600  0.49810  1.0000
  C   C15       1.0  0.35390  0.05330  0.54030  1.0000
  C   C16       1.0  0.64610  0.94670  0.45970  1.0000
  H   H23       1.0  0.42540  0.07470  0.56450  1.0000
  H   H24       1.0  0.57460  0.92530  0.43550  1.0000
  C   C17       1.0  0.31270  0.13290  0.54320  1.0000
  C   C18       1.0  0.68730  0.86710  0.45680  1.0000
  C   C19       1.0  0.20250  0.09720  0.50500  1.0000
  C   C20       1.0  0.79750  0.90280  0.49500  1.0000
  C   C21       1.0  0.49680  0.28910  0.62630  1.0000
  C   C22       1.0  0.50320  0.71090  0.37370  1.0000
  C   C23       1.0  0.56910  0.29610  0.56780  1.0000
  C   C24       1.0  0.43090  0.70390  0.43220  1.0000
  C   C25       1.0  0.68150  0.33130  0.60420  1.0000
  C   C26       1.0  0.31850  0.66870  0.39580  1.0000
  C   C27       1.0  0.71560  0.35950  0.70180  1.0000
  C   C28       1.0  0.28440  0.64050  0.29820  1.0000
  H   H25       1.0  0.78720  0.38090  0.72590  1.0000
  H   H26       1.0  0.21280  0.61910  0.27410  1.0000
  C   C29       1.0  0.68180  0.39100  0.86710  1.0000
  C   C30       1.0  0.31820  0.60900  0.13290  1.0000
  H   H27       1.0  0.75330  0.41370  0.89220  1.0000
  H   H28       1.0  0.24670  0.58630  0.10780  1.0000
  C   C31       1.0  0.61230  0.39050  0.92740  1.0000
  C   C32       1.0  0.38770  0.60950  0.07260  1.0000
  H   H29       1.0  0.63710  0.41330  0.99270  1.0000
  H   H30       1.0  0.36290  0.58670  0.00730  1.0000
  C   C33       1.0  0.50400  0.35580  0.89090  1.0000
  C   C34       1.0  0.49600  0.64420  0.10910  1.0000
  H   H31       1.0  0.45790  0.35620  0.93260  1.0000
  H   H32       1.0  0.54210  0.64380  0.06740  1.0000
  C   C35       1.0  0.46390  0.32060  0.79340  1.0000
  C   C36       1.0  0.53610  0.67940  0.20660  1.0000
  H   H33       1.0  0.39160  0.29640  0.77070  1.0000
  H   H34       1.0  0.60840  0.70360  0.22930  1.0000
  C   C37       1.0  0.53390  0.32140  0.72760  1.0000
  C   C38       1.0  0.46610  0.67860  0.27240  1.0000
  C   C39       1.0  0.64630  0.35690  0.76500  1.0000
  C   C40       1.0  0.35370  0.64310  0.23500  1.0000
  C   C41       1.0  0.16970  0.36460  0.55820  1.0000
  C   C42       1.0  0.83030  0.63540  0.44180  1.0000
  C   C43       1.0  0.76240  0.34470  0.54280  1.0000
  C   C44       1.0  0.23760  0.65530  0.45720  1.0000
  C   C45       1.0  0.25370  0.07180  0.93000  1.0000
  C   C46       1.0  0.74630  0.92820  0.07000  1.0000
  C   C47       1.0  0.23840  0.97050  0.86810  1.0000
  C   C48       1.0  0.76160  0.02950  0.13190  1.0000
  C   C49       1.0  0.18970  0.92930  0.76790  1.0000
  C   C50       1.0  0.81030  0.07070  0.23210  1.0000
  C   C51       1.0  0.16230  0.99570  0.73260  1.0000
  C   C52       1.0  0.83770  0.00430  0.26740  1.0000
  H   H35       1.0  0.13230  0.96950  0.66800  1.0000
  H   H36       1.0  0.86770  0.03050  0.33200  1.0000
  C   C53       1.0  0.14910  0.17210  0.75670  1.0000
  C   C54       1.0  0.85090  0.82790  0.24330  1.0000
  H   H37       1.0  0.11950  0.14690  0.69200  1.0000
  H   H38       1.0  0.88050  0.85310  0.30800  1.0000
  C   C55       1.0  0.16390  0.27560  0.81610  1.0000
  C   C56       1.0  0.83610  0.72440  0.18390  1.0000
  H   H39       1.0  0.14830  0.32100  0.79150  1.0000
  H   H40       1.0  0.85170  0.67900  0.20850  1.0000
  C   C57       1.0  0.20370  0.31120  0.91650  1.0000
  C   C58       1.0  0.79630  0.68880  0.08350  1.0000
  H   H41       1.0  0.20920  0.37860  0.95780  1.0000
  H   H42       1.0  0.79080  0.62140  0.04220  1.0000
  C   C59       1.0  0.23390  0.24790  0.95280  1.0000
  C   C60       1.0  0.76610  0.75210  0.04720  1.0000
  H   H43       1.0  0.26230  0.27500  0.01790  1.0000
  H   H44       1.0  0.73770  0.72500  0.98210  1.0000
  C   C61       1.0  0.22340  0.14210  0.89460  1.0000
  C   C62       1.0  0.77660  0.85790  0.10540  1.0000
  C   C63       1.0  0.17840  0.10290  0.79220  1.0000
  C   C64       1.0  0.82160  0.89710  0.20780  1.0000
  C   C65       1.0  0.30480  0.11380  0.03510  1.0000
  C   C66       1.0  0.69520  0.88620  0.96490  1.0000
  C   C67       1.0  0.41380  0.17710  0.06620  1.0000
  C   C68       1.0  0.58620  0.82290  0.93380  1.0000
  C   C69       1.0  0.46580  0.22280  0.16620  1.0000
  C   C70       1.0  0.53420  0.77720  0.83380  1.0000
  C   C71       1.0  0.40550  0.20170  0.23300  1.0000
  C   C72       1.0  0.59450  0.79830  0.76700  1.0000
  H   H45       1.0  0.43820  0.22950  0.29710  1.0000
  H   H46       1.0  0.56180  0.77050  0.70290  1.0000
  C   C73       1.0  0.23180  0.11820  0.27210  1.0000
  C   C74       1.0  0.76820  0.88180  0.72790  1.0000
  H   H47       1.0  0.26390  0.14910  0.33670  1.0000
  H   H48       1.0  0.73610  0.85090  0.66330  1.0000
  C   C75       1.0  0.12380  0.05340  0.24370  1.0000
  C   C76       1.0  0.87620  0.94660  0.75630  1.0000
  H   H49       1.0  0.08450  0.04000  0.28850  1.0000
  H   H50       1.0  0.91550  0.96000  0.71150  1.0000
  C   C77       1.0  0.07410  0.00750  0.14380  1.0000
  C   C78       1.0  0.92590  0.99250  0.85620  1.0000
  H   H51       1.0  0.00250  0.96280  0.12390  1.0000
  H   H52       1.0  0.99750  0.03720  0.87610  1.0000
  C   C79       1.0  0.13120  0.02890  0.07800  1.0000
  C   C80       1.0  0.86880  0.97110  0.92200  1.0000
  H   H53       1.0  0.09620  0.00160  0.01450  1.0000
  H   H54       1.0  0.90380  0.99840  0.98550  1.0000
  C   C81       1.0  0.24420  0.09280  0.10340  1.0000
  C   C82       1.0  0.75580  0.90720  0.89660  1.0000
  C   C83       1.0  0.29520  0.13850  0.20350  1.0000
  C   C84       1.0  0.70480  0.86150  0.79650  1.0000
  C   C85       1.0  0.16880  0.81370  0.70020  1.0000
  C   C86       1.0  0.83120  0.18630  0.29980  1.0000
  C   C87       1.0  0.58450  0.29000  0.19740  1.0000
  C   C88       1.0  0.41550  0.71000  0.80260  1.0000
