data_image0
_chemical_formula_structural       Ag16Zn16O144H32N32C48H16C16H16C16H16C80H16C16H16C16H16C32
_chemical_formula_sum              "Ag16 Zn16 O144 H128 N32 C224"
_cell_length_a       21.4977
_cell_length_b       21.4977
_cell_length_c       14.4793
_cell_angle_alpha    90
_cell_angle_beta     90
_cell_angle_gamma    90

_space_group_name_H-M_alt    "P 1"
_space_group_IT_number       1

loop_
  _space_group_symop_operation_xyz
  'x, y, z'

loop_
  _atom_site_type_symbol
  _atom_site_label
  _atom_site_symmetry_multiplicity
  _atom_site_fract_x
  _atom_site_fract_y
  _atom_site_fract_z
  _atom_site_occupancy
  Ag  Ag1       1.0  0.72949  0.52036  0.10720  1.0000
  Ag  Ag2       1.0  0.77051  0.47964  0.60720  1.0000
  Ag  Ag3       1.0  0.22964  0.97949  0.35720  1.0000
  Ag  Ag4       1.0  0.27036  0.02051  0.85720  1.0000
  Ag  Ag5       1.0  0.22949  0.02036  0.60720  1.0000
  Ag  Ag6       1.0  0.27051  0.97964  0.10720  1.0000
  Ag  Ag7       1.0  0.72964  0.47949  0.85720  1.0000
  Ag  Ag8       1.0  0.77036  0.52051  0.35720  1.0000
  Ag  Ag9       1.0  0.27051  0.47964  0.89280  1.0000
  Ag  Ag10      1.0  0.22949  0.52036  0.39280  1.0000
  Ag  Ag11      1.0  0.77036  0.02051  0.64280  1.0000
  Ag  Ag12      1.0  0.72964  0.97949  0.14280  1.0000
  Ag  Ag13      1.0  0.77051  0.97964  0.39280  1.0000
  Ag  Ag14      1.0  0.72949  0.02036  0.89280  1.0000
  Ag  Ag15      1.0  0.27036  0.52051  0.14280  1.0000
  Ag  Ag16      1.0  0.22964  0.47949  0.64280  1.0000
  Zn  Zn1       1.0  0.73844  0.75110  0.99742  1.0000
  Zn  Zn2       1.0  0.76156  0.24890  0.49742  1.0000
  Zn  Zn3       1.0  0.99890  0.98844  0.24742  1.0000
  Zn  Zn4       1.0  0.50110  0.01156  0.74742  1.0000
  Zn  Zn5       1.0  0.23844  0.25110  0.49742  1.0000
  Zn  Zn6       1.0  0.26156  0.74890  0.99742  1.0000
  Zn  Zn7       1.0  0.49890  0.48844  0.74742  1.0000
  Zn  Zn8       1.0  0.00110  0.51156  0.24742  1.0000
  Zn  Zn9       1.0  0.26156  0.24890  0.00258  1.0000
  Zn  Zn10      1.0  0.23844  0.75110  0.50258  1.0000
  Zn  Zn11      1.0  0.00110  0.01156  0.75258  1.0000
  Zn  Zn12      1.0  0.49890  0.98844  0.25258  1.0000
  Zn  Zn13      1.0  0.76156  0.74890  0.50258  1.0000
  Zn  Zn14      1.0  0.73844  0.25110  0.00258  1.0000
  Zn  Zn15      1.0  0.50110  0.51156  0.25258  1.0000
  Zn  Zn16      1.0  0.99890  0.48844  0.75258  1.0000
  O   O1        1.0  0.65733  0.77620  0.09021  1.0000
  O   O2        1.0  0.84267  0.22380  0.59021  1.0000
  O   O3        1.0  0.97380  0.90733  0.34021  1.0000
  O   O4        1.0  0.52620  0.09267  0.84021  1.0000
  O   O5        1.0  0.15733  0.27620  0.59021  1.0000
  O   O6        1.0  0.34267  0.72380  0.09021  1.0000
  O   O7        1.0  0.47380  0.40733  0.84021  1.0000
  O   O8        1.0  0.02620  0.59267  0.34021  1.0000
  O   O9        1.0  0.34267  0.22380  0.90979  1.0000
  O   O10       1.0  0.15733  0.77620  0.40979  1.0000
  O   O11       1.0  0.02620  0.09267  0.65979  1.0000
  O   O12       1.0  0.47380  0.90733  0.15979  1.0000
  O   O13       1.0  0.84267  0.72380  0.40979  1.0000
  O   O14       1.0  0.65733  0.27620  0.90979  1.0000
  O   O15       1.0  0.52620  0.59267  0.15979  1.0000
  O   O16       1.0  0.97380  0.40733  0.65979  1.0000
  O   O17       1.0  0.64122  0.81892  0.22909  1.0000
  O   O18       1.0  0.85878  0.18108  0.72909  1.0000
  O   O19       1.0  0.93108  0.89122  0.47909  1.0000
  O   O20       1.0  0.56892  0.10878  0.97909  1.0000
  O   O21       1.0  0.14122  0.31892  0.72909  1.0000
  O   O22       1.0  0.35878  0.68108  0.22909  1.0000
  O   O23       1.0  0.43108  0.39122  0.97909  1.0000
  O   O24       1.0  0.06892  0.60878  0.47909  1.0000
  O   O25       1.0  0.35878  0.18108  0.77091  1.0000
  O   O26       1.0  0.14122  0.81892  0.27091  1.0000
  O   O27       1.0  0.06892  0.10878  0.52091  1.0000
  O   O28       1.0  0.43108  0.89122  0.02091  1.0000
  O   O29       1.0  0.85878  0.68108  0.27091  1.0000
  O   O30       1.0  0.64122  0.31892  0.77091  1.0000
  O   O31       1.0  0.56892  0.60878  0.02091  1.0000
  O   O32       1.0  0.93108  0.39122  0.52091  1.0000
  O   O33       1.0  0.84017  0.74152  0.96518  1.0000
  O   O34       1.0  0.65983  0.25848  0.46518  1.0000
  O   O35       1.0  0.00848  0.09017  0.21518  1.0000
  O   O36       1.0  0.49152  0.90983  0.71518  1.0000
  O   O37       1.0  0.34017  0.24152  0.46518  1.0000
  O   O38       1.0  0.15983  0.75848  0.96518  1.0000
  O   O39       1.0  0.50848  0.59017  0.71518  1.0000
  O   O40       1.0  0.99152  0.40983  0.21518  1.0000
  O   O41       1.0  0.15983  0.25848  0.03482  1.0000
  O   O42       1.0  0.34017  0.74152  0.53482  1.0000
  O   O43       1.0  0.99152  0.90983  0.78482  1.0000
  O   O44       1.0  0.50848  0.09017  0.28482  1.0000
  O   O45       1.0  0.65983  0.75848  0.53482  1.0000
  O   O46       1.0  0.84017  0.24152  0.03482  1.0000
  O   O47       1.0  0.49152  0.40983  0.28482  1.0000
  O   O48       1.0  0.00848  0.59017  0.78482  1.0000
  O   O49       1.0  0.93049  0.77916  0.01720  1.0000
  O   O50       1.0  0.56951  0.22084  0.51720  1.0000
  O   O51       1.0  0.97084  0.18049  0.26720  1.0000
  O   O52       1.0  0.52916  0.81951  0.76720  1.0000
  O   O53       1.0  0.43049  0.27916  0.51720  1.0000
  O   O54       1.0  0.06951  0.72084  0.01720  1.0000
  O   O55       1.0  0.47084  0.68049  0.76720  1.0000
  O   O56       1.0  0.02916  0.31951  0.26720  1.0000
  O   O57       1.0  0.06951  0.22084  0.98280  1.0000
  O   O58       1.0  0.43049  0.77916  0.48280  1.0000
  O   O59       1.0  0.02916  0.81951  0.73280  1.0000
  O   O60       1.0  0.47084  0.18049  0.23280  1.0000
  O   O61       1.0  0.56951  0.72084  0.48280  1.0000
  O   O62       1.0  0.93049  0.27916  0.98280  1.0000
  O   O63       1.0  0.52916  0.31951  0.23280  1.0000
  O   O64       1.0  0.97084  0.68049  0.73280  1.0000
  O   O65       1.0  0.72660  0.83274  0.91729  1.0000
  O   O66       1.0  0.77340  0.16726  0.41729  1.0000
  O   O67       1.0  0.91726  0.97660  0.16729  1.0000
  O   O68       1.0  0.58274  0.02340  0.66729  1.0000
  O   O69       1.0  0.22660  0.33274  0.41729  1.0000
  O   O70       1.0  0.27340  0.66726  0.91729  1.0000
  O   O71       1.0  0.41726  0.47660  0.66729  1.0000
  O   O72       1.0  0.08274  0.52340  0.16729  1.0000
  O   O73       1.0  0.27340  0.16726  0.08271  1.0000
  O   O74       1.0  0.22660  0.83274  0.58271  1.0000
  O   O75       1.0  0.08274  0.02340  0.83271  1.0000
  O   O76       1.0  0.41726  0.97660  0.33271  1.0000
  O   O77       1.0  0.77340  0.66726  0.58271  1.0000
  O   O78       1.0  0.72660  0.33274  0.08271  1.0000
  O   O79       1.0  0.58274  0.52340  0.33271  1.0000
  O   O80       1.0  0.91726  0.47660  0.83271  1.0000
  O   O81       1.0  0.69108  0.86177  0.77810  1.0000
  O   O82       1.0  0.80892  0.13823  0.27810  1.0000
  O   O83       1.0  0.88823  0.94108  0.02810  1.0000
  O   O84       1.0  0.61177  0.05892  0.52810  1.0000
  O   O85       1.0  0.19108  0.36177  0.27810  1.0000
  O   O86       1.0  0.30892  0.63823  0.77810  1.0000
  O   O87       1.0  0.38823  0.44108  0.52810  1.0000
  O   O88       1.0  0.11177  0.55892  0.02810  1.0000
  O   O89       1.0  0.30892  0.13823  0.22190  1.0000
  O   O90       1.0  0.19108  0.86177  0.72190  1.0000
  O   O91       1.0  0.11177  0.05892  0.97190  1.0000
  O   O92       1.0  0.38823  0.94108  0.47190  1.0000
  O   O93       1.0  0.80892  0.63823  0.72190  1.0000
  O   O94       1.0  0.69108  0.36177  0.22190  1.0000
  O   O95       1.0  0.61177  0.55892  0.47190  1.0000
  O   O96       1.0  0.88823  0.44108  0.97190  1.0000
  O   O97       1.0  0.73153  0.65400  0.03277  1.0000
  O   O98       1.0  0.76847  0.34600  0.53277  1.0000
  O   O99       1.0  0.09600  0.98153  0.28277  1.0000
  O   O100      1.0  0.40400  0.01847  0.78277  1.0000
  O   O101      1.0  0.23153  0.15400  0.53277  1.0000
  O   O102      1.0  0.26847  0.84600  0.03277  1.0000
  O   O103      1.0  0.59600  0.48153  0.78277  1.0000
  O   O104      1.0  0.90400  0.51847  0.28277  1.0000
  O   O105      1.0  0.26847  0.34600  0.96723  1.0000
  O   O106      1.0  0.23153  0.65400  0.46723  1.0000
  O   O107      1.0  0.90400  0.01847  0.71723  1.0000
  O   O108      1.0  0.59600  0.98153  0.21723  1.0000
  O   O109      1.0  0.76847  0.84600  0.46723  1.0000
  O   O110      1.0  0.73153  0.15400  0.96723  1.0000
  O   O111      1.0  0.40400  0.51847  0.21723  1.0000
  O   O112      1.0  0.09600  0.48153  0.71723  1.0000
  O   O113      1.0  0.70816  0.56346  0.96740  1.0000
  O   O114      1.0  0.79184  0.43654  0.46740  1.0000
  O   O115      1.0  0.18654  0.95816  0.21740  1.0000
  O   O116      1.0  0.31346  0.04184  0.71740  1.0000
  O   O117      1.0  0.20816  0.06346  0.46740  1.0000
  O   O118      1.0  0.29184  0.93654  0.96740  1.0000
  O   O119      1.0  0.68654  0.45816  0.71740  1.0000
  O   O120      1.0  0.81346  0.54184  0.21740  1.0000
  O   O121      1.0  0.29184  0.43654  0.03260  1.0000
  O   O122      1.0  0.20816  0.56346  0.53260  1.0000
  O   O123      1.0  0.81346  0.04184  0.78260  1.0000
  O   O124      1.0  0.68654  0.95816  0.28260  1.0000
  O   O125      1.0  0.79184  0.93654  0.53260  1.0000
  O   O126      1.0  0.70816  0.06346  0.03260  1.0000
  O   O127      1.0  0.31346  0.54184  0.28260  1.0000
  O   O128      1.0  0.18654  0.45816  0.78260  1.0000
  O   O129      1.0  0.76530  0.43852  0.99620  1.0000
  O   O130      1.0  0.73470  0.56148  0.49620  1.0000
  O   O131      1.0  0.31148  0.01530  0.24620  1.0000
  O   O132      1.0  0.18852  0.98470  0.74620  1.0000
  O   O133      1.0  0.26530  0.93852  0.49620  1.0000
  O   O134      1.0  0.23470  0.06148  0.99620  1.0000
  O   O135      1.0  0.81148  0.51530  0.74620  1.0000
  O   O136      1.0  0.68852  0.48470  0.24620  1.0000
  O   O137      1.0  0.23470  0.56148  0.00380  1.0000
  O   O138      1.0  0.26530  0.43852  0.50380  1.0000
  O   O139      1.0  0.68852  0.98470  0.75380  1.0000
  O   O140      1.0  0.81148  0.01530  0.25380  1.0000
  O   O141      1.0  0.73470  0.06148  0.50380  1.0000
  O   O142      1.0  0.76530  0.93852  0.00380  1.0000
  O   O143      1.0  0.18852  0.48470  0.25380  1.0000
  O   O144      1.0  0.31148  0.51530  0.75380  1.0000
  H   H1        1.0  0.80410  0.44230  0.99200  1.0000
  H   H2        1.0  0.69590  0.55770  0.49200  1.0000
  H   H3        1.0  0.30770  0.05410  0.24200  1.0000
  H   H4        1.0  0.19230  0.94590  0.74200  1.0000
  H   H5        1.0  0.30410  0.94230  0.49200  1.0000
  H   H6        1.0  0.19590  0.05770  0.99200  1.0000
  H   H7        1.0  0.80770  0.55410  0.74200  1.0000
  H   H8        1.0  0.69230  0.44590  0.24200  1.0000
  H   H9        1.0  0.19590  0.55770  0.00800  1.0000
  H   H10       1.0  0.30410  0.44230  0.50800  1.0000
  H   H11       1.0  0.69230  0.94590  0.75800  1.0000
  H   H12       1.0  0.80770  0.05410  0.25800  1.0000
  H   H13       1.0  0.69590  0.05770  0.50800  1.0000
  H   H14       1.0  0.80410  0.94230  0.00800  1.0000
  H   H15       1.0  0.19230  0.44590  0.25800  1.0000
  H   H16       1.0  0.30770  0.55410  0.75800  1.0000
  H   H17       1.0  0.75450  0.40500  0.02200  1.0000
  H   H18       1.0  0.74550  0.59500  0.52200  1.0000
  H   H19       1.0  0.34500  0.00450  0.27200  1.0000
  H   H20       1.0  0.15500  0.99550  0.77200  1.0000
  H   H21       1.0  0.25450  0.90500  0.52200  1.0000
  H   H22       1.0  0.24550  0.09500  0.02200  1.0000
  H   H23       1.0  0.84500  0.50450  0.77200  1.0000
  H   H24       1.0  0.65500  0.49550  0.27200  1.0000
  H   H25       1.0  0.24550  0.59500  0.97800  1.0000
  H   H26       1.0  0.25450  0.40500  0.47800  1.0000
  H   H27       1.0  0.65500  0.99550  0.72800  1.0000
  H   H28       1.0  0.84500  0.00450  0.22800  1.0000
  H   H29       1.0  0.74550  0.09500  0.47800  1.0000
  H   H30       1.0  0.75450  0.90500  0.97800  1.0000
  H   H31       1.0  0.15500  0.49550  0.22800  1.0000
  H   H32       1.0  0.34500  0.50450  0.72800  1.0000
  N   N1        1.0  0.77857  0.78926  0.10474  1.0000
  N   N2        1.0  0.72143  0.21074  0.60474  1.0000
  N   N3        1.0  0.96074  0.02857  0.35474  1.0000
  N   N4        1.0  0.53926  0.97143  0.85474  1.0000
  N   N5        1.0  0.27857  0.28926  0.60474  1.0000
  N   N6        1.0  0.22143  0.71074  0.10474  1.0000
  N   N7        1.0  0.46074  0.52857  0.85474  1.0000
  N   N8        1.0  0.03926  0.47143  0.35474  1.0000
  N   N9        1.0  0.22143  0.21074  0.89526  1.0000
  N   N10       1.0  0.27857  0.78926  0.39526  1.0000
  N   N11       1.0  0.03926  0.97143  0.64526  1.0000
  N   N12       1.0  0.46074  0.02857  0.14526  1.0000
  N   N13       1.0  0.72143  0.71074  0.39526  1.0000
  N   N14       1.0  0.77857  0.28926  0.89526  1.0000
  N   N15       1.0  0.53926  0.47143  0.14526  1.0000
  N   N16       1.0  0.96074  0.52857  0.64526  1.0000
  N   N17       1.0  0.69963  0.71745  0.88884  1.0000
  N   N18       1.0  0.80037  0.28255  0.38884  1.0000
  N   N19       1.0  0.03255  0.94963  0.13884  1.0000
  N   N20       1.0  0.46745  0.05037  0.63884  1.0000
  N   N21       1.0  0.19963  0.21745  0.38884  1.0000
  N   N22       1.0  0.30037  0.78255  0.88884  1.0000
  N   N23       1.0  0.53255  0.44963  0.63884  1.0000
  N   N24       1.0  0.96745  0.55037  0.13884  1.0000
  N   N25       1.0  0.30037  0.28255  0.11116  1.0000
  N   N26       1.0  0.19963  0.71745  0.61116  1.0000
  N   N27       1.0  0.96745  0.05037  0.86116  1.0000
  N   N28       1.0  0.53255  0.94963  0.36116  1.0000
  N   N29       1.0  0.80037  0.78255  0.61116  1.0000
  N   N30       1.0  0.69963  0.21745  0.11116  1.0000
  N   N31       1.0  0.46745  0.55037  0.36116  1.0000
  N   N32       1.0  0.03255  0.44963  0.86116  1.0000
  C   C1        1.0  0.67486  0.80106  0.16380  1.0000
  C   C2        1.0  0.82514  0.19894  0.66380  1.0000
  C   C3        1.0  0.94894  0.92486  0.41380  1.0000
  C   C4        1.0  0.55106  0.07514  0.91380  1.0000
  C   C5        1.0  0.17486  0.30106  0.66380  1.0000
  C   C6        1.0  0.32514  0.69894  0.16380  1.0000
  C   C7        1.0  0.44894  0.42486  0.91380  1.0000
  C   C8        1.0  0.05106  0.57514  0.41380  1.0000
  C   C9        1.0  0.32514  0.19894  0.83620  1.0000
  C   C10       1.0  0.17486  0.80106  0.33620  1.0000
  C   C11       1.0  0.05106  0.07514  0.58620  1.0000
  C   C12       1.0  0.44894  0.92486  0.08620  1.0000
  C   C13       1.0  0.82514  0.69894  0.33620  1.0000
  C   C14       1.0  0.67486  0.30106  0.83620  1.0000
  C   C15       1.0  0.55106  0.57514  0.08620  1.0000
  C   C16       1.0  0.94894  0.42486  0.58620  1.0000
  C   C17       1.0  0.74416  0.81083  0.17470  1.0000
  C   C18       1.0  0.75584  0.18917  0.67470  1.0000
  C   C19       1.0  0.93917  0.99416  0.42470  1.0000
  C   C20       1.0  0.56083  0.00584  0.92470  1.0000
  C   C21       1.0  0.24416  0.31083  0.67470  1.0000
  C   C22       1.0  0.25584  0.68917  0.17470  1.0000
  C   C23       1.0  0.43917  0.49416  0.92470  1.0000
  C   C24       1.0  0.06083  0.50584  0.42470  1.0000
  C   C25       1.0  0.25584  0.18917  0.82530  1.0000
  C   C26       1.0  0.24416  0.81083  0.32530  1.0000
  C   C27       1.0  0.06083  0.00584  0.57530  1.0000
  C   C28       1.0  0.43917  0.99416  0.07530  1.0000
  C   C29       1.0  0.75584  0.68917  0.32530  1.0000
  C   C30       1.0  0.74416  0.31083  0.82530  1.0000
  C   C31       1.0  0.56083  0.50584  0.07530  1.0000
  C   C32       1.0  0.93917  0.49416  0.57530  1.0000
  C   C33       1.0  0.77112  0.83869  0.25060  1.0000
  C   C34       1.0  0.72888  0.16131  0.75060  1.0000
  C   C35       1.0  0.91131  0.02112  0.50060  1.0000
  C   C36       1.0  0.58869  0.97888  0.00060  1.0000
  C   C37       1.0  0.27112  0.33869  0.75060  1.0000
  C   C38       1.0  0.22888  0.66131  0.25060  1.0000
  C   C39       1.0  0.41131  0.52112  0.00060  1.0000
  C   C40       1.0  0.08869  0.47888  0.50060  1.0000
  C   C41       1.0  0.22888  0.16131  0.74940  1.0000
  C   C42       1.0  0.27112  0.83869  0.24940  1.0000
  C   C43       1.0  0.08869  0.97888  0.49940  1.0000
  C   C44       1.0  0.41131  0.02112  0.99940  1.0000
  C   C45       1.0  0.72888  0.66131  0.24940  1.0000
  C   C46       1.0  0.77112  0.33869  0.74940  1.0000
  C   C47       1.0  0.58869  0.47888  0.99940  1.0000
  C   C48       1.0  0.91131  0.52112  0.49940  1.0000
  H   H33       1.0  0.74670  0.85310  0.29920  1.0000
  H   H34       1.0  0.75330  0.14690  0.79920  1.0000
  H   H35       1.0  0.89690  0.99670  0.54920  1.0000
  H   H36       1.0  0.60310  0.00330  0.04920  1.0000
  H   H37       1.0  0.24670  0.35310  0.79920  1.0000
  H   H38       1.0  0.25330  0.64690  0.29920  1.0000
  H   H39       1.0  0.39690  0.49670  0.04920  1.0000
  H   H40       1.0  0.10310  0.50330  0.54920  1.0000
  H   H41       1.0  0.25330  0.14690  0.70080  1.0000
  H   H42       1.0  0.24670  0.85310  0.20080  1.0000
  H   H43       1.0  0.10310  0.00330  0.45080  1.0000
  H   H44       1.0  0.39690  0.99670  0.95080  1.0000
  H   H45       1.0  0.75330  0.64690  0.20080  1.0000
  H   H46       1.0  0.74670  0.35310  0.70080  1.0000
  H   H47       1.0  0.60310  0.50330  0.95080  1.0000
  H   H48       1.0  0.89690  0.49670  0.45080  1.0000
  C   C49       1.0  0.83527  0.84481  0.25310  1.0000
  C   C50       1.0  0.66473  0.15519  0.75310  1.0000
  C   C51       1.0  0.90519  0.08527  0.50310  1.0000
  C   C52       1.0  0.59481  0.91473  0.00310  1.0000
  C   C53       1.0  0.33527  0.34481  0.75310  1.0000
  C   C54       1.0  0.16473  0.65519  0.25310  1.0000
  C   C55       1.0  0.40519  0.58527  0.00310  1.0000
  C   C56       1.0  0.09481  0.41473  0.50310  1.0000
  C   C57       1.0  0.16473  0.15519  0.74690  1.0000
  C   C58       1.0  0.33527  0.84481  0.24690  1.0000
  C   C59       1.0  0.09481  0.91473  0.49690  1.0000
  C   C60       1.0  0.40519  0.08527  0.99690  1.0000
  C   C61       1.0  0.66473  0.65519  0.24690  1.0000
  C   C62       1.0  0.83527  0.34481  0.74690  1.0000
  C   C63       1.0  0.59481  0.41473  0.99690  1.0000
  C   C64       1.0  0.90519  0.58527  0.49690  1.0000
  H   H49       1.0  0.85440  0.86340  0.30370  1.0000
  H   H50       1.0  0.64560  0.13660  0.80370  1.0000
  H   H51       1.0  0.88660  0.10440  0.55370  1.0000
  H   H52       1.0  0.61340  0.89560  0.05370  1.0000
  H   H53       1.0  0.35440  0.36340  0.80370  1.0000
  H   H54       1.0  0.14560  0.63660  0.30370  1.0000
  H   H55       1.0  0.38660  0.60440  0.05370  1.0000
  H   H56       1.0  0.11340  0.39560  0.55370  1.0000
  H   H57       1.0  0.14560  0.13660  0.69630  1.0000
  H   H58       1.0  0.35440  0.86340  0.19630  1.0000
  H   H59       1.0  0.11340  0.89560  0.44630  1.0000
  H   H60       1.0  0.38660  0.10440  0.94630  1.0000
  H   H61       1.0  0.64560  0.63660  0.19630  1.0000
  H   H62       1.0  0.85440  0.36340  0.69630  1.0000
  H   H63       1.0  0.61340  0.39560  0.94630  1.0000
  H   H64       1.0  0.88660  0.60440  0.44630  1.0000
  C   C65       1.0  0.87061  0.82323  0.18020  1.0000
  C   C66       1.0  0.62939  0.17677  0.68020  1.0000
  C   C67       1.0  0.92677  0.12061  0.43020  1.0000
  C   C68       1.0  0.57323  0.87939  0.93020  1.0000
  C   C69       1.0  0.37061  0.32323  0.68020  1.0000
  C   C70       1.0  0.12939  0.67677  0.18020  1.0000
  C   C71       1.0  0.42677  0.62061  0.93020  1.0000
  C   C72       1.0  0.07323  0.37939  0.43020  1.0000
  C   C73       1.0  0.12939  0.17677  0.81980  1.0000
  C   C74       1.0  0.37061  0.82323  0.31980  1.0000
  C   C75       1.0  0.07323  0.87939  0.56980  1.0000
  C   C76       1.0  0.42677  0.12061  0.06980  1.0000
  C   C77       1.0  0.62939  0.67677  0.31980  1.0000
  C   C78       1.0  0.87061  0.32323  0.81980  1.0000
  C   C79       1.0  0.57323  0.37939  0.06980  1.0000
  C   C80       1.0  0.92677  0.62061  0.56980  1.0000
  H   H65       1.0  0.91370  0.82750  0.18070  1.0000
  H   H66       1.0  0.58630  0.17250  0.68070  1.0000
  H   H67       1.0  0.92250  0.16370  0.43070  1.0000
  H   H68       1.0  0.57750  0.83630  0.93070  1.0000
  H   H69       1.0  0.41370  0.32750  0.68070  1.0000
  H   H70       1.0  0.08630  0.67250  0.18070  1.0000
  H   H71       1.0  0.42250  0.66370  0.93070  1.0000
  H   H72       1.0  0.07750  0.33630  0.43070  1.0000
  H   H73       1.0  0.08630  0.17250  0.81930  1.0000
  H   H74       1.0  0.41370  0.82750  0.31930  1.0000
  H   H75       1.0  0.07750  0.83630  0.56930  1.0000
  H   H76       1.0  0.42250  0.16370  0.06930  1.0000
  H   H77       1.0  0.58630  0.67250  0.31930  1.0000
  H   H78       1.0  0.91370  0.32750  0.81930  1.0000
  H   H79       1.0  0.57750  0.33630  0.06930  1.0000
  H   H80       1.0  0.92250  0.66370  0.56930  1.0000
  C   C81       1.0  0.84076  0.79520  0.10650  1.0000
  C   C82       1.0  0.65924  0.20480  0.60650  1.0000
  C   C83       1.0  0.95480  0.09076  0.35650  1.0000
  C   C84       1.0  0.54520  0.90924  0.85650  1.0000
  C   C85       1.0  0.34076  0.29520  0.60650  1.0000
  C   C86       1.0  0.15924  0.70480  0.10650  1.0000
  C   C87       1.0  0.45480  0.59076  0.85650  1.0000
  C   C88       1.0  0.04520  0.40924  0.35650  1.0000
  C   C89       1.0  0.15924  0.20480  0.89350  1.0000
  C   C90       1.0  0.34076  0.79520  0.39350  1.0000
  C   C91       1.0  0.04520  0.90924  0.64350  1.0000
  C   C92       1.0  0.45480  0.09076  0.14350  1.0000
  C   C93       1.0  0.65924  0.70480  0.39350  1.0000
  C   C94       1.0  0.84076  0.29520  0.89350  1.0000
  C   C95       1.0  0.54520  0.40924  0.14350  1.0000
  C   C96       1.0  0.95480  0.59076  0.64350  1.0000
  C   C97       1.0  0.87196  0.76931  0.02200  1.0000
  C   C98       1.0  0.62804  0.23069  0.52200  1.0000
  C   C99       1.0  0.98069  0.12196  0.27200  1.0000
  C   C100      1.0  0.51931  0.87804  0.77200  1.0000
  C   C101      1.0  0.37196  0.26931  0.52200  1.0000
  C   C102      1.0  0.12804  0.73069  0.02200  1.0000
  C   C103      1.0  0.48069  0.62196  0.77200  1.0000
  C   C104      1.0  0.01931  0.37804  0.27200  1.0000
  C   C105      1.0  0.12804  0.23069  0.97800  1.0000
  C   C106      1.0  0.37196  0.76931  0.47800  1.0000
  C   C107      1.0  0.01931  0.87804  0.72800  1.0000
  C   C108      1.0  0.48069  0.12196  0.22800  1.0000
  C   C109      1.0  0.62804  0.73069  0.47800  1.0000
  C   C110      1.0  0.87196  0.26931  0.97800  1.0000
  C   C111      1.0  0.51931  0.37804  0.22800  1.0000
  C   C112      1.0  0.98069  0.62196  0.72800  1.0000
  C   C113      1.0  0.70185  0.82333  0.83860  1.0000
  C   C114      1.0  0.79815  0.17667  0.33860  1.0000
  C   C115      1.0  0.92667  0.95185  0.08860  1.0000
  C   C116      1.0  0.57333  0.04815  0.58860  1.0000
  C   C117      1.0  0.20185  0.32333  0.33860  1.0000
  C   C118      1.0  0.29815  0.67667  0.83860  1.0000
  C   C119      1.0  0.42667  0.45185  0.58860  1.0000
  C   C120      1.0  0.07333  0.54815  0.08860  1.0000
  C   C121      1.0  0.29815  0.17667  0.16140  1.0000
  C   C122      1.0  0.20185  0.82333  0.66140  1.0000
  C   C123      1.0  0.07333  0.04815  0.91140  1.0000
  C   C124      1.0  0.42667  0.95185  0.41140  1.0000
  C   C125      1.0  0.79815  0.67667  0.66140  1.0000
  C   C126      1.0  0.70185  0.32333  0.16140  1.0000
  C   C127      1.0  0.57333  0.54815  0.41140  1.0000
  C   C128      1.0  0.92667  0.45185  0.91140  1.0000
  C   C129      1.0  0.68354  0.75594  0.82080  1.0000
  C   C130      1.0  0.81646  0.24406  0.32080  1.0000
  C   C131      1.0  0.99406  0.93354  0.07080  1.0000
  C   C132      1.0  0.50594  0.06646  0.57080  1.0000
  C   C133      1.0  0.18354  0.25594  0.32080  1.0000
  C   C134      1.0  0.31646  0.74406  0.82080  1.0000
  C   C135      1.0  0.49406  0.43354  0.57080  1.0000
  C   C136      1.0  0.00594  0.56646  0.07080  1.0000
  C   C137      1.0  0.31646  0.24406  0.17920  1.0000
  C   C138      1.0  0.18354  0.75594  0.67920  1.0000
  C   C139      1.0  0.00594  0.06646  0.92920  1.0000
  C   C140      1.0  0.49406  0.93354  0.42920  1.0000
  C   C141      1.0  0.81646  0.74406  0.67920  1.0000
  C   C142      1.0  0.68354  0.25594  0.17920  1.0000
  C   C143      1.0  0.50594  0.56646  0.42920  1.0000
  C   C144      1.0  0.99406  0.43354  0.92920  1.0000
  C   C145      1.0  0.65363  0.73431  0.74330  1.0000
  C   C146      1.0  0.84637  0.26569  0.24330  1.0000
  C   C147      1.0  0.01569  0.90363  0.99330  1.0000
  C   C148      1.0  0.48431  0.09637  0.49330  1.0000
  C   C149      1.0  0.15363  0.23431  0.24330  1.0000
  C   C150      1.0  0.34637  0.76569  0.74330  1.0000
  C   C151      1.0  0.51569  0.40363  0.49330  1.0000
  C   C152      1.0  0.98431  0.59637  0.99330  1.0000
  C   C153      1.0  0.34637  0.26569  0.25670  1.0000
  C   C154      1.0  0.15363  0.73431  0.75670  1.0000
  C   C155      1.0  0.98431  0.09637  0.00670  1.0000
  C   C156      1.0  0.51569  0.90363  0.50670  1.0000
  C   C157      1.0  0.84637  0.76569  0.75670  1.0000
  C   C158      1.0  0.65363  0.23431  0.25670  1.0000
  C   C159      1.0  0.48431  0.59637  0.50670  1.0000
  C   C160      1.0  0.01569  0.40363  0.00670  1.0000
  H   H81       1.0  0.64270  0.76130  0.69580  1.0000
  H   H82       1.0  0.85730  0.23870  0.19580  1.0000
  H   H83       1.0  0.98870  0.89270  0.94580  1.0000
  H   H84       1.0  0.51130  0.10730  0.44580  1.0000
  H   H85       1.0  0.14270  0.26130  0.19580  1.0000
  H   H86       1.0  0.35730  0.73870  0.69580  1.0000
  H   H87       1.0  0.48870  0.39270  0.44580  1.0000
  H   H88       1.0  0.01130  0.60730  0.94580  1.0000
  H   H89       1.0  0.35730  0.23870  0.30420  1.0000
  H   H90       1.0  0.14270  0.76130  0.80420  1.0000
  H   H91       1.0  0.01130  0.10730  0.05420  1.0000
  H   H92       1.0  0.48870  0.89270  0.55420  1.0000
  H   H93       1.0  0.85730  0.73870  0.80420  1.0000
  H   H94       1.0  0.64270  0.26130  0.30420  1.0000
  H   H95       1.0  0.51130  0.60730  0.55420  1.0000
  H   H96       1.0  0.98870  0.39270  0.05420  1.0000
  C   C161      1.0  0.64026  0.67189  0.73760  1.0000
  C   C162      1.0  0.85974  0.32811  0.23760  1.0000
  C   C163      1.0  0.07811  0.89026  0.98760  1.0000
  C   C164      1.0  0.42189  0.10974  0.48760  1.0000
  C   C165      1.0  0.14026  0.17189  0.23760  1.0000
  C   C166      1.0  0.35974  0.82811  0.73760  1.0000
  C   C167      1.0  0.57811  0.39026  0.48760  1.0000
  C   C168      1.0  0.92189  0.60974  0.98760  1.0000
  C   C169      1.0  0.35974  0.32811  0.26240  1.0000
  C   C170      1.0  0.14026  0.67189  0.76240  1.0000
  C   C171      1.0  0.92189  0.10974  0.01240  1.0000
  C   C172      1.0  0.57811  0.89026  0.51240  1.0000
  C   C173      1.0  0.85974  0.82811  0.76240  1.0000
  C   C174      1.0  0.64026  0.17189  0.26240  1.0000
  C   C175      1.0  0.42189  0.60974  0.51240  1.0000
  C   C176      1.0  0.07811  0.39026  0.01240  1.0000
  H   H97       1.0  0.61970  0.65640  0.68600  1.0000
  H   H98       1.0  0.88030  0.34360  0.18600  1.0000
  H   H99       1.0  0.09360  0.86970  0.93600  1.0000
  H   H100      1.0  0.40640  0.13030  0.43600  1.0000
  H   H101      1.0  0.11970  0.15640  0.18600  1.0000
  H   H102      1.0  0.38030  0.84360  0.68600  1.0000
  H   H103      1.0  0.59360  0.36970  0.43600  1.0000
  H   H104      1.0  0.90640  0.63030  0.93600  1.0000
  H   H105      1.0  0.38030  0.34360  0.31400  1.0000
  H   H106      1.0  0.11970  0.65640  0.81400  1.0000
  H   H107      1.0  0.90640  0.13030  0.06400  1.0000
  H   H108      1.0  0.59360  0.86970  0.56400  1.0000
  H   H109      1.0  0.88030  0.84360  0.81400  1.0000
  H   H110      1.0  0.61970  0.15640  0.31400  1.0000
  H   H111      1.0  0.40640  0.63030  0.56400  1.0000
  H   H112      1.0  0.09360  0.36970  0.06400  1.0000
  C   C177      1.0  0.65733  0.63164  0.80900  1.0000
  C   C178      1.0  0.84267  0.36836  0.30900  1.0000
  C   C179      1.0  0.11836  0.90733  0.05900  1.0000
  C   C180      1.0  0.38164  0.09267  0.55900  1.0000
  C   C181      1.0  0.15733  0.13164  0.30900  1.0000
  C   C182      1.0  0.34267  0.86836  0.80900  1.0000
  C   C183      1.0  0.61836  0.40733  0.55900  1.0000
  C   C184      1.0  0.88164  0.59267  0.05900  1.0000
  C   C185      1.0  0.34267  0.36836  0.19100  1.0000
  C   C186      1.0  0.15733  0.63164  0.69100  1.0000
  C   C187      1.0  0.88164  0.09267  0.94100  1.0000
  C   C188      1.0  0.61836  0.90733  0.44100  1.0000
  C   C189      1.0  0.84267  0.86836  0.69100  1.0000
  C   C190      1.0  0.65733  0.13164  0.19100  1.0000
  C   C191      1.0  0.38164  0.59267  0.44100  1.0000
  C   C192      1.0  0.11836  0.40733  0.94100  1.0000
  H   H113      1.0  0.64830  0.58940  0.80600  1.0000
  H   H114      1.0  0.85170  0.41060  0.30600  1.0000
  H   H115      1.0  0.16060  0.89830  0.05600  1.0000
  H   H116      1.0  0.33940  0.10170  0.55600  1.0000
  H   H117      1.0  0.14830  0.08940  0.30600  1.0000
  H   H118      1.0  0.35170  0.91060  0.80600  1.0000
  H   H119      1.0  0.66060  0.39830  0.55600  1.0000
  H   H120      1.0  0.83940  0.60170  0.05600  1.0000
  H   H121      1.0  0.35170  0.41060  0.19400  1.0000
  H   H122      1.0  0.14830  0.58940  0.69400  1.0000
  H   H123      1.0  0.83940  0.10170  0.94400  1.0000
  H   H124      1.0  0.66060  0.89830  0.44400  1.0000
  H   H125      1.0  0.85170  0.91060  0.69400  1.0000
  H   H126      1.0  0.64830  0.08940  0.19400  1.0000
  H   H127      1.0  0.33940  0.60170  0.44400  1.0000
  H   H128      1.0  0.16060  0.39830  0.94400  1.0000
  C   C193      1.0  0.68787  0.65651  0.88380  1.0000
  C   C194      1.0  0.81213  0.34349  0.38380  1.0000
  C   C195      1.0  0.09349  0.93787  0.13380  1.0000
  C   C196      1.0  0.40651  0.06213  0.63380  1.0000
  C   C197      1.0  0.18787  0.15651  0.38380  1.0000
  C   C198      1.0  0.31213  0.84349  0.88380  1.0000
  C   C199      1.0  0.59349  0.43787  0.63380  1.0000
  C   C200      1.0  0.90651  0.56213  0.13380  1.0000
  C   C201      1.0  0.31213  0.34349  0.11620  1.0000
  C   C202      1.0  0.18787  0.65651  0.61620  1.0000
  C   C203      1.0  0.90651  0.06213  0.86620  1.0000
  C   C204      1.0  0.59349  0.93787  0.36620  1.0000
  C   C205      1.0  0.81213  0.84349  0.61620  1.0000
  C   C206      1.0  0.68787  0.15651  0.11620  1.0000
  C   C207      1.0  0.40651  0.56213  0.36620  1.0000
  C   C208      1.0  0.09349  0.43787  0.86620  1.0000
  C   C209      1.0  0.71072  0.62166  0.96750  1.0000
  C   C210      1.0  0.78928  0.37834  0.46750  1.0000
  C   C211      1.0  0.12834  0.96072  0.21750  1.0000
  C   C212      1.0  0.37166  0.03928  0.71750  1.0000
  C   C213      1.0  0.21072  0.12166  0.46750  1.0000
  C   C214      1.0  0.28928  0.87834  0.96750  1.0000
  C   C215      1.0  0.62834  0.46072  0.71750  1.0000
  C   C216      1.0  0.87166  0.53928  0.21750  1.0000
  C   C217      1.0  0.28928  0.37834  0.03250  1.0000
  C   C218      1.0  0.21072  0.62166  0.53250  1.0000
  C   C219      1.0  0.87166  0.03928  0.78250  1.0000
  C   C220      1.0  0.62834  0.96072  0.28250  1.0000
  C   C221      1.0  0.78928  0.87834  0.53250  1.0000
  C   C222      1.0  0.71072  0.12166  0.03250  1.0000
  C   C223      1.0  0.37166  0.53928  0.28250  1.0000
  C   C224      1.0  0.12834  0.46072  0.78250  1.0000
