data_image0
_chemical_formula_structural       Sb2F4O8C4Sb2F4O8C4
_chemical_formula_sum              "Sb4 F8 O16 C8"
_cell_length_a       9.523
_cell_length_b       10.6568
_cell_length_c       10.7489
_cell_angle_alpha    115.937
_cell_angle_beta     108.831
_cell_angle_gamma    95.796

_space_group_name_H-M_alt    "P 1"
_space_group_IT_number       1

loop_
  _space_group_symop_operation_xyz
  'x, y, z'

loop_
  _atom_site_type_symbol
  _atom_site_label
  _atom_site_symmetry_multiplicity
  _atom_site_fract_x
  _atom_site_fract_y
  _atom_site_fract_z
  _atom_site_occupancy
  Sb  Sb1       1.0  0.52963  0.69430  0.33801  1.0000
  Sb  Sb2       1.0  0.47037  0.30570  0.66199  1.0000
  F   F1        1.0  0.68689  0.65191  0.47720  1.0000
  F   F2        1.0  0.31311  0.34809  0.52280  1.0000
  F   F3        1.0  0.70491  0.79948  0.33705  1.0000
  F   F4        1.0  0.29509  0.20052  0.66295  1.0000
  O   O1        1.0  0.58800  0.88840  0.56236  1.0000
  O   O2        1.0  0.41200  0.11160  0.43764  1.0000
  O   O3        1.0  0.59070  0.49780  0.17000  1.0000
  O   O4        1.0  0.40930  0.50220  0.83000  1.0000
  O   O5        1.0  0.57900  0.35520  0.93940  1.0000
  O   O6        1.0  0.42100  0.64480  0.06060  1.0000
  O   O7        1.0  0.54920  0.10082  0.69332  1.0000
  O   O8        1.0  0.45080  0.89918  0.30668  1.0000
  C   C1        1.0  0.53870  0.99810  0.57380  1.0000
  C   C2        1.0  0.46130  0.00190  0.42620  1.0000
  C   C3        1.0  0.54860  0.45750  0.03080  1.0000
  C   C4        1.0  0.45140  0.54250  0.96920  1.0000
  Sb  Sb3       1.0  0.00422  0.31487  0.67720  1.0000
  Sb  Sb4       1.0  0.99578  0.68513  0.32280  1.0000
  F   F5        1.0  0.91393  0.39159  0.53932  1.0000
  F   F6        1.0  0.08607  0.60841  0.46068  1.0000
  F   F7        1.0  0.79473  0.22517  0.62676  1.0000
  F   F8        1.0  0.20527  0.77483  0.37324  1.0000
  O   O9        1.0  0.95770  0.13079  0.44714  1.0000
  O   O10       1.0  0.04230  0.86921  0.55286  1.0000
  O   O11       1.0  0.98120  0.91103  0.31317  1.0000
  O   O12       1.0  0.01880  0.08897  0.68683  1.0000
  O   O13       1.0  0.93500  0.51030  0.83260  1.0000
  O   O14       1.0  0.06500  0.48970  0.16740  1.0000
  O   O15       1.0  0.93800  0.65630  0.05820  1.0000
  O   O16       1.0  0.06200  0.34370  0.94180  1.0000
  C   C5        1.0  0.98330  0.01120  0.43110  1.0000
  C   C6        1.0  0.01670  0.98880  0.56890  1.0000
  C   C7        1.0  0.96340  0.54760  0.96880  1.0000
  C   C8        1.0  0.03660  0.45240  0.03120  1.0000
