data_image0
_chemical_formula_structural       O4C2Zn2C8O2C2H2C2H2C4H2C2H2C2H2C4H2C2H2C4H2C2H2C8H2C2H2C4H2C12H2O2C2H2C2H2C4H2C4H2C2H2C2H2C2H2C2H2O2C2H2C8H2C2H2C2H2C2H2C2H2C4H2C2H2C2H2O4C2H2O2C2H2C2O2C2H8
_chemical_formula_sum              "O18 C114 Zn2 H72"
_cell_length_a       9.0389
_cell_length_b       32.075
_cell_length_c       9.1244
_cell_angle_alpha    90
_cell_angle_beta     101.553
_cell_angle_gamma    90

_space_group_name_H-M_alt    "P 1"
_space_group_IT_number       1

loop_
  _space_group_symop_operation_xyz
  'x, y, z'

loop_
  _atom_site_type_symbol
  _atom_site_label
  _atom_site_symmetry_multiplicity
  _atom_site_fract_x
  _atom_site_fract_y
  _atom_site_fract_z
  _atom_site_occupancy
  O   O1        1.0  0.79180  0.56152  0.28620  1.0000
  O   O2        1.0  0.20820  0.06152  0.71380  1.0000
  O   O3        1.0  0.70180  0.56520  0.49450  1.0000
  O   O4        1.0  0.29820  0.06520  0.50550  1.0000
  C   C1        1.0  0.71720  0.54680  0.38290  1.0000
  C   C2        1.0  0.28280  0.04680  0.61710  1.0000
  Zn  Zn1       1.0  0.15306  0.11874  0.65603  1.0000
  Zn  Zn2       1.0  0.84694  0.61874  0.34397  1.0000
  C   C3        1.0  0.42760  0.38640  0.23500  1.0000
  C   C4        1.0  0.57240  0.88640  0.76500  1.0000
  C   C5        1.0  0.76520  0.31320  0.68160  1.0000
  C   C6        1.0  0.23480  0.81320  0.31840  1.0000
  C   C7        1.0  0.98680  0.34980  0.62300  1.0000
  C   C8        1.0  0.01320  0.84980  0.37700  1.0000
  C   C9        1.0  0.92710  0.38770  0.66330  1.0000
  C   C10       1.0  0.07290  0.88770  0.33670  1.0000
  O   O5        1.0  0.90910  0.14000  0.98980  1.0000
  O   O6        1.0  0.09090  0.64000  0.01020  1.0000
  C   C11       1.0  0.57000  0.35300  0.77560  1.0000
  C   C12       1.0  0.43000  0.85300  0.22440  1.0000
  H   H1        1.0  0.51990  0.32860  0.79120  1.0000
  H   H2        1.0  0.48010  0.82860  0.20880  1.0000
  C   C13       1.0  0.51230  0.39010  0.80430  1.0000
  C   C14       1.0  0.48770  0.89010  0.19570  1.0000
  H   H3        1.0  0.41790  0.39100  0.83020  1.0000
  H   H4        1.0  0.58210  0.89100  0.16980  1.0000
  C   C15       1.0  0.70980  0.35080  0.72070  1.0000
  C   C16       1.0  0.29020  0.85080  0.27930  1.0000
  C   C17       1.0  0.49090  0.44820  0.40600  1.0000
  C   C18       1.0  0.50910  0.94820  0.59400  1.0000
  H   H5        1.0  0.43510  0.43690  0.47150  1.0000
  H   H6        1.0  0.56490  0.93690  0.52850  1.0000
  C   C19       1.0  0.95450  0.38250  0.08440  1.0000
  C   C20       1.0  0.04550  0.88250  0.91560  1.0000
  H   H7        1.0  0.85070  0.38150  0.04930  1.0000
  H   H8        1.0  0.14930  0.88150  0.95070  1.0000
  C   C21       1.0  0.22000  0.25490  0.92680  1.0000
  C   C22       1.0  0.78000  0.75490  0.07320  1.0000
  H   H9        1.0  0.27370  0.26910  0.86550  1.0000
  H   H10       1.0  0.72630  0.76910  0.13450  1.0000
  C   C23       1.0  0.78950  0.38950  0.70870  1.0000
  C   C24       1.0  0.21050  0.88950  0.29130  1.0000
  C   C25       1.0  0.12190  0.25000  0.14630  1.0000
  C   C26       1.0  0.87810  0.75000  0.85370  1.0000
  H   H11       1.0  0.10930  0.26110  0.23720  1.0000
  H   H12       1.0  0.89070  0.76110  0.76280  1.0000
  C   C27       1.0  0.75560  0.31600  0.26560  1.0000
  C   C28       1.0  0.24440  0.81600  0.73440  1.0000
  H   H13       1.0  0.86010  0.31750  0.29510  1.0000
  H   H14       1.0  0.13990  0.81750  0.70490  1.0000
  C   C29       1.0  0.51220  0.35050  0.22170  1.0000
  C   C30       1.0  0.48780  0.85050  0.77830  1.0000
  C   C31       1.0  0.09720  0.27380  0.54160  1.0000
  C   C32       1.0  0.90280  0.77380  0.45840  1.0000
  H   H15       1.0  0.13470  0.24860  0.51440  1.0000
  H   H16       1.0  0.86530  0.74860  0.48560  1.0000
  C   C33       1.0  0.65830  0.48330  0.21570  1.0000
  C   C34       1.0  0.34170  0.98330  0.78430  1.0000
  H   H17       1.0  0.71310  0.49500  0.14990  1.0000
  H   H18       1.0  0.28690  0.99500  0.85010  1.0000
  C   C35       1.0  0.43730  0.31300  0.16540  1.0000
  C   C36       1.0  0.56270  0.81300  0.83460  1.0000
  C   C37       1.0  0.26520  0.38580  0.18630  1.0000
  C   C38       1.0  0.73480  0.88580  0.81370  1.0000
  C   C39       1.0  0.67970  0.27410  0.68590  1.0000
  C   C40       1.0  0.32030  0.77410  0.31410  1.0000
  C   C41       1.0  0.53100  0.27630  0.16060  1.0000
  C   C42       1.0  0.46900  0.77630  0.83940  1.0000
  H   H19       1.0  0.48570  0.25140  0.12410  1.0000
  H   H20       1.0  0.51430  0.75140  0.87590  1.0000
  C   C43       1.0  0.96620  0.27480  0.59240  1.0000
  C   C44       1.0  0.03380  0.77480  0.40760  1.0000
  H   H21       1.0  0.91570  0.25000  0.60110  1.0000
  H   H22       1.0  0.08430  0.75000  0.39890  1.0000
  C   C45       1.0  0.19600  0.34740  0.12510  1.0000
  C   C46       1.0  0.80400  0.84740  0.87490  1.0000
  C   C47       1.0  0.15510  0.21750  0.88140  1.0000
  C   C48       1.0  0.84490  0.71750  0.11860  1.0000
  H   H23       1.0  0.16640  0.20660  0.78980  1.0000
  H   H24       1.0  0.83360  0.70660  0.21020  1.0000
  C   C49       1.0  0.07470  0.19570  0.96570  1.0000
  C   C50       1.0  0.92530  0.69570  0.03430  1.0000
  C   C51       1.0  0.27900  0.31150  0.11830  1.0000
  C   C52       1.0  0.72100  0.81150  0.88170  1.0000
  C   C53       1.0  0.20710  0.27180  0.06040  1.0000
  C   C54       1.0  0.79290  0.77180  0.93960  1.0000
  C   C55       1.0  0.18440  0.49840  0.65900  1.0000
  C   C56       1.0  0.81560  0.99840  0.34100  1.0000
  C   C57       1.0  0.50350  0.42650  0.27620  1.0000
  C   C58       1.0  0.49650  0.92650  0.72380  1.0000
  C   C59       1.0  0.17620  0.31110  0.53000  1.0000
  C   C60       1.0  0.82380  0.81110  0.47000  1.0000
  H   H25       1.0  0.26640  0.31040  0.49570  1.0000
  H   H26       1.0  0.73360  0.81040  0.50430  1.0000
  O   O7        1.0  0.28180  0.16350  0.60420  1.0000
  O   O8        1.0  0.71820  0.66350  0.39580  1.0000
  C   C61       1.0  0.56720  0.26360  0.56640  1.0000
  C   C62       1.0  0.43280  0.76360  0.43360  1.0000
  H   H27       1.0  0.55200  0.28000  0.48050  1.0000
  H   H28       1.0  0.44800  0.78000  0.51950  1.0000
  C   C63       1.0  0.56200  0.48710  0.43820  1.0000
  C   C64       1.0  0.43800  0.98710  0.56180  1.0000
  H   H29       1.0  0.55220  0.50130  0.52460  1.0000
  H   H30       1.0  0.44780  0.00130  0.47540  1.0000
  C   C65       1.0  0.01580  0.42710  0.65920  1.0000
  C   C66       1.0  0.98420  0.92710  0.34080  1.0000
  C   C67       1.0  0.17900  0.42110  0.19730  1.0000
  C   C68       1.0  0.82100  0.92110  0.80270  1.0000
  H   H31       1.0  0.22540  0.44580  0.23590  1.0000
  H   H32       1.0  0.77460  0.94580  0.76410  1.0000
  C   C69       1.0  0.90470  0.31220  0.63220  1.0000
  C   C70       1.0  0.09530  0.81220  0.36780  1.0000
  C   C71       1.0  0.12220  0.34710  0.56790  1.0000
  C   C72       1.0  0.87780  0.84710  0.43210  1.0000
  H   H33       1.0  0.17530  0.37140  0.55800  1.0000
  H   H34       1.0  0.82470  0.87140  0.44200  1.0000
  C   C73       1.0  0.47510  0.22870  0.57180  1.0000
  C   C74       1.0  0.52490  0.72870  0.42820  1.0000
  H   H35       1.0  0.39700  0.22260  0.49150  1.0000
  H   H36       1.0  0.60300  0.72260  0.50850  1.0000
  C   C75       1.0  0.59250  0.42850  0.79600  1.0000
  C   C76       1.0  0.40750  0.92850  0.20400  1.0000
  H   H37       1.0  0.55420  0.45390  0.82130  1.0000
  H   H38       1.0  0.44580  0.95390  0.17870  1.0000
  C   C77       1.0  0.59090  0.44550  0.18490  1.0000
  C   C78       1.0  0.40910  0.94550  0.81510  1.0000
  H   H39       1.0  0.60370  0.43160  0.09890  1.0000
  H   H40       1.0  0.39630  0.93160  0.90110  1.0000
  C   C79       1.0  0.03950  0.34900  0.07250  1.0000
  C   C80       1.0  0.96050  0.84900  0.92750  1.0000
  H   H41       1.0  0.99180  0.32530  0.02650  1.0000
  H   H42       1.0  0.00820  0.82530  0.97350  1.0000
  O   O9        1.0  0.03960  0.13440  0.81160  1.0000
  O   O10       1.0  0.96040  0.63440  0.18840  1.0000
  C   C81       1.0  0.99010  0.45330  0.53970  1.0000
  C   C82       1.0  0.00990  0.95330  0.46030  1.0000
  H   H43       1.0  0.91650  0.44640  0.45650  1.0000
  H   H44       1.0  0.08350  0.94640  0.54350  1.0000
  C   C83       1.0  0.00600  0.15420  0.91830  1.0000
  C   C84       1.0  0.99400  0.65420  0.08170  1.0000
  C   C85       1.0  0.64560  0.50430  0.34370  1.0000
  C   C86       1.0  0.35440  0.00430  0.65630  1.0000
  C   C87       1.0  0.50130  0.20280  0.69920  1.0000
  C   C88       1.0  0.49870  0.70280  0.30080  1.0000
  C   C89       1.0  0.06950  0.48940  0.53860  1.0000
  C   C90       1.0  0.93050  0.98940  0.46140  1.0000
  H   H45       1.0  0.04680  0.50770  0.45810  1.0000
  H   H46       1.0  0.95320  0.00770  0.54190  1.0000
  C   C91       1.0  0.67030  0.34910  0.27560  1.0000
  C   C92       1.0  0.32970  0.84910  0.72440  1.0000
  H   H47       1.0  0.71740  0.37290  0.32100  1.0000
  H   H48       1.0  0.28260  0.87290  0.67900  1.0000
  C   C93       1.0  0.12710  0.43720  0.77930  1.0000
  C   C94       1.0  0.87290  0.93720  0.22070  1.0000
  H   H49       1.0  0.14630  0.41930  0.86100  1.0000
  H   H50       1.0  0.85370  0.91930  0.13900  1.0000
  C   C95       1.0  0.72900  0.42640  0.74890  1.0000
  C   C96       1.0  0.27100  0.92640  0.25110  1.0000
  H   H51       1.0  0.78240  0.45100  0.74420  1.0000
  H   H52       1.0  0.21760  0.95100  0.25580  1.0000
  C   C97       1.0  0.70330  0.24800  0.80450  1.0000
  C   C98       1.0  0.29670  0.74800  0.19550  1.0000
  H   H53       1.0  0.78170  0.25400  0.88460  1.0000
  H   H54       1.0  0.21830  0.75400  0.11540  1.0000
  C   C99       1.0  0.39610  0.16730  0.70790  1.0000
  C   C100      1.0  0.60390  0.66730  0.29210  1.0000
  C   C101      1.0  0.02260  0.41950  0.15020  1.0000
  C   C102      1.0  0.97740  0.91950  0.84980  1.0000
  H   H55       1.0  0.96350  0.44250  0.16190  1.0000
  H   H56       1.0  0.03650  0.94250  0.83810  1.0000
  C   C103      1.0  0.21100  0.47290  0.78280  1.0000
  C   C104      1.0  0.78900  0.97290  0.21720  1.0000
  H   H57       1.0  0.28390  0.47980  0.86660  1.0000
  H   H58       1.0  0.71610  0.97980  0.13340  1.0000
  C   C105      1.0  0.68340  0.27780  0.20830  1.0000
  C   C106      1.0  0.31660  0.77780  0.79170  1.0000
  H   H59       1.0  0.74110  0.25400  0.20370  1.0000
  H   H60       1.0  0.25890  0.75400  0.79630  1.0000
  O   O11       1.0  0.26070  0.55990  0.54000  1.0000
  O   O12       1.0  0.73930  0.05990  0.46000  1.0000
  O   O13       1.0  0.42490  0.14280  0.81480  1.0000
  O   O14       1.0  0.57510  0.64280  0.18520  1.0000
  C   C107      1.0  0.05600  0.21250  0.09930  1.0000
  C   C108      1.0  0.94400  0.71250  0.90070  1.0000
  H   H61       1.0  0.99880  0.19850  0.15780  1.0000
  H   H62       1.0  0.00120  0.69850  0.84220  1.0000
  O   O15       1.0  0.36670  0.54760  0.77300  1.0000
  O   O16       1.0  0.63330  0.04760  0.22700  1.0000
  C   C109      1.0  0.61620  0.21260  0.81270  1.0000
  C   C110      1.0  0.38380  0.71260  0.18730  1.0000
  H   H63       1.0  0.63740  0.19560  0.89690  1.0000
  H   H64       1.0  0.36260  0.69560  0.10310  1.0000
  C   C111      1.0  0.28180  0.53820  0.65600  1.0000
  C   C112      1.0  0.71820  0.03820  0.34400  1.0000
  O   O17       1.0  0.96770  0.12300  0.48290  1.0000
  O   O18       1.0  0.03230  0.62300  0.51710  1.0000
  C   C113      1.0  0.99640  0.11210  0.33300  1.0000
  C   C114      1.0  0.00360  0.61210  0.66700  1.0000
  H   H65       1.0  0.07110  0.13060  0.30810  1.0000
  H   H66       1.0  0.92890  0.63060  0.69190  1.0000
  H   H67       1.0  0.90440  0.11470  0.25990  1.0000
  H   H68       1.0  0.09560  0.61470  0.74010  1.0000
  H   H69       1.0  0.03220  0.08390  0.33410  1.0000
  H   H70       1.0  0.96780  0.58390  0.66590  1.0000
  H   H71       1.0  0.91700  0.15300  0.47700  1.0000
  H   H72       1.0  0.08300  0.65300  0.52300  1.0000
