data_image0
_chemical_formula_structural       U8O24H4O40N48C8H8C4H8C4H8C4H8C4H8C4H8C4H8C12H4C4H4C8H8C4H8C8H4C4H4C8H8C4H8C8H4C4H4C8H8C4H8
_chemical_formula_sum              "U8 O64 H132 N48 C108"
_cell_length_a       13.8427
_cell_length_b       10.8346
_cell_length_c       27.9882
_cell_angle_alpha    90
_cell_angle_beta     97.554
_cell_angle_gamma    90

_space_group_name_H-M_alt    "P 1"
_space_group_IT_number       1

loop_
  _space_group_symop_operation_xyz
  'x, y, z'

loop_
  _atom_site_type_symbol
  _atom_site_label
  _atom_site_symmetry_multiplicity
  _atom_site_fract_x
  _atom_site_fract_y
  _atom_site_fract_z
  _atom_site_occupancy
  U   U1        1.0  0.40939  0.12083  0.47595  1.0000
  U   U2        1.0  0.09061  0.62083  0.02405  1.0000
  U   U3        1.0  0.59061  0.87917  0.52405  1.0000
  U   U4        1.0  0.90939  0.37917  0.97595  1.0000
  U   U5        1.0  0.44671  0.11329  0.61129  1.0000
  U   U6        1.0  0.05329  0.61329  0.88871  1.0000
  U   U7        1.0  0.55329  0.88671  0.38871  1.0000
  U   U8        1.0  0.94671  0.38671  0.11129  1.0000
  O   O1        1.0  0.49950  0.23740  0.47440  1.0000
  O   O2        1.0  0.00050  0.73740  0.02560  1.0000
  O   O3        1.0  0.50050  0.76260  0.52560  1.0000
  O   O4        1.0  0.99950  0.26260  0.97440  1.0000
  O   O5        1.0  0.31100  0.01450  0.47390  1.0000
  O   O6        1.0  0.18900  0.51450  0.02610  1.0000
  O   O7        1.0  0.68900  0.98550  0.52610  1.0000
  O   O8        1.0  0.81100  0.48550  0.97390  1.0000
  O   O9        1.0  0.53960  0.23040  0.61470  1.0000
  O   O10       1.0  0.96040  0.73040  0.88530  1.0000
  O   O11       1.0  0.46040  0.76960  0.38530  1.0000
  O   O12       1.0  0.03960  0.26960  0.11470  1.0000
  O   O13       1.0  0.35200  0.00250  0.61200  1.0000
  O   O14       1.0  0.14800  0.50250  0.88800  1.0000
  O   O15       1.0  0.64800  0.99750  0.38800  1.0000
  O   O16       1.0  0.85200  0.49750  0.11200  1.0000
  O   O17       1.0  0.49260  0.02870  0.54640  1.0000
  O   O18       1.0  0.00740  0.52870  0.95360  1.0000
  O   O19       1.0  0.50740  0.97130  0.45360  1.0000
  O   O20       1.0  0.99260  0.47130  0.04640  1.0000
  O   O21       1.0  0.36250  0.21550  0.54590  1.0000
  O   O22       1.0  0.13750  0.71550  0.95410  1.0000
  O   O23       1.0  0.63750  0.78450  0.45410  1.0000
  O   O24       1.0  0.86250  0.28450  0.04590  1.0000
  H   H1        1.0  0.39410  0.28520  0.54750  1.0000
  H   H2        1.0  0.10590  0.78520  0.95250  1.0000
  H   H3        1.0  0.60590  0.71480  0.45250  1.0000
  H   H4        1.0  0.89410  0.21480  0.04750  1.0000
  O   O25       1.0  0.84130  0.23390  0.14360  1.0000
  O   O26       1.0  0.65870  0.73390  0.35640  1.0000
  O   O27       1.0  0.15870  0.76610  0.85640  1.0000
  O   O28       1.0  0.34130  0.26610  0.64360  1.0000
  O   O29       1.0  0.93370  0.34000  0.19840  1.0000
  O   O30       1.0  0.56630  0.84000  0.30160  1.0000
  O   O31       1.0  0.06630  0.66000  0.80160  1.0000
  O   O32       1.0  0.43370  0.16000  0.69840  1.0000
  O   O33       1.0  0.37390  0.15210  0.38990  1.0000
  O   O34       1.0  0.12610  0.65210  0.11010  1.0000
  O   O35       1.0  0.62610  0.84790  0.61010  1.0000
  O   O36       1.0  0.87390  0.34790  0.88990  1.0000
  O   O37       1.0  0.43690  0.01910  0.34410  1.0000
  O   O38       1.0  0.06310  0.51910  0.15590  1.0000
  O   O39       1.0  0.56310  0.98090  0.65590  1.0000
  O   O40       1.0  0.93690  0.48090  0.84410  1.0000
  O   O41       1.0  0.27730  0.28440  0.45680  1.0000
  O   O42       1.0  0.22270  0.78440  0.04320  1.0000
  O   O43       1.0  0.72270  0.71560  0.54320  1.0000
  O   O44       1.0  0.77730  0.21560  0.95680  1.0000
  O   O45       1.0  0.02030  0.67070  0.34360  1.0000
  O   O46       1.0  0.47970  0.17070  0.15640  1.0000
  O   O47       1.0  0.97970  0.32930  0.65640  1.0000
  O   O48       1.0  0.52030  0.82930  0.84360  1.0000
  O   O49       1.0  0.34830  0.47210  0.54370  1.0000
  O   O50       1.0  0.15170  0.97210  0.95630  1.0000
  O   O51       1.0  0.65170  0.52790  0.45630  1.0000
  O   O52       1.0  0.84830  0.02790  0.04370  1.0000
  O   O53       1.0  0.08370  0.87080  0.43240  1.0000
  O   O54       1.0  0.41630  0.37080  0.06760  1.0000
  O   O55       1.0  0.91630  0.12920  0.56760  1.0000
  O   O56       1.0  0.58370  0.62920  0.93240  1.0000
  O   O57       1.0  0.18350  0.49720  0.64330  1.0000
  O   O58       1.0  0.31650  0.99720  0.85670  1.0000
  O   O59       1.0  0.81650  0.50280  0.35670  1.0000
  O   O60       1.0  0.68350  0.00280  0.14330  1.0000
  O   O61       1.0  0.94060  0.85620  0.52690  1.0000
  O   O62       1.0  0.55940  0.35620  0.97310  1.0000
  O   O63       1.0  0.05940  0.14380  0.47310  1.0000
  O   O64       1.0  0.44060  0.64380  0.02690  1.0000
  N   N1        1.0  0.17890  0.31490  0.38510  1.0000
  N   N2        1.0  0.32110  0.81490  0.11490  1.0000
  N   N3        1.0  0.82110  0.68510  0.61490  1.0000
  N   N4        1.0  0.67890  0.18510  0.88510  1.0000
  N   N5        1.0  0.28530  0.45980  0.41060  1.0000
  N   N6        1.0  0.21470  0.95980  0.08940  1.0000
  N   N7        1.0  0.71470  0.54020  0.58940  1.0000
  N   N8        1.0  0.78530  0.04020  0.91060  1.0000
  N   N9        1.0  0.18130  0.61470  0.36600  1.0000
  N   N10       1.0  0.31870  0.11470  0.13400  1.0000
  N   N11       1.0  0.81870  0.38530  0.63400  1.0000
  N   N12       1.0  0.68130  0.88530  0.86600  1.0000
  N   N13       1.0  0.07350  0.46930  0.34110  1.0000
  N   N14       1.0  0.42650  0.96930  0.15890  1.0000
  N   N15       1.0  0.92650  0.53070  0.65890  1.0000
  N   N16       1.0  0.57350  0.03070  0.84110  1.0000
  N   N17       1.0  0.32920  0.60130  0.47670  1.0000
  N   N18       1.0  0.17080  0.10130  0.02330  1.0000
  N   N19       1.0  0.67080  0.39870  0.52330  1.0000
  N   N20       1.0  0.82920  0.89870  0.97670  1.0000
  N   N21       1.0  0.28890  0.66800  0.54550  1.0000
  N   N22       1.0  0.21110  0.16800  0.95450  1.0000
  N   N23       1.0  0.71110  0.33200  0.45450  1.0000
  N   N24       1.0  0.78890  0.83200  0.04550  1.0000
  N   N25       1.0  0.18370  0.82570  0.50210  1.0000
  N   N26       1.0  0.31630  0.32570  0.99790  1.0000
  N   N27       1.0  0.81630  0.17430  0.49790  1.0000
  N   N28       1.0  0.68370  0.67430  0.00210  1.0000
  N   N29       1.0  0.22320  0.75450  0.43280  1.0000
  N   N30       1.0  0.27680  0.25450  0.06720  1.0000
  N   N31       1.0  0.77680  0.24550  0.56720  1.0000
  N   N32       1.0  0.72320  0.74550  0.93280  1.0000
  N   N33       1.0  0.18930  0.69350  0.61170  1.0000
  N   N34       1.0  0.31070  0.19350  0.88830  1.0000
  N   N35       1.0  0.81070  0.30650  0.38830  1.0000
  N   N36       1.0  0.68930  0.80650  0.11170  1.0000
  N   N37       1.0  0.07530  0.65270  0.65750  1.0000
  N   N38       1.0  0.42470  0.15270  0.84250  1.0000
  N   N39       1.0  0.92470  0.34730  0.34250  1.0000
  N   N40       1.0  0.57530  0.84730  0.15750  1.0000
  N   N41       1.0  0.97160  0.79170  0.60600  1.0000
  N   N42       1.0  0.52840  0.29170  0.89400  1.0000
  N   N43       1.0  0.02840  0.20830  0.39400  1.0000
  N   N44       1.0  0.47160  0.70830  0.10600  1.0000
  N   N45       1.0  0.09440  0.85910  0.57010  1.0000
  N   N46       1.0  0.40560  0.35910  0.92990  1.0000
  N   N47       1.0  0.90560  0.14090  0.42990  1.0000
  N   N48       1.0  0.59440  0.64090  0.07010  1.0000
  C   C1        1.0  0.86220  0.26470  0.18650  1.0000
  C   C2        1.0  0.63780  0.76470  0.31350  1.0000
  C   C3        1.0  0.13780  0.73530  0.81350  1.0000
  C   C4        1.0  0.36220  0.23530  0.68650  1.0000
  C   C5        1.0  0.80670  0.21490  0.22410  1.0000
  C   C6        1.0  0.69330  0.71490  0.27590  1.0000
  C   C7        1.0  0.19330  0.78510  0.77590  1.0000
  C   C8        1.0  0.30670  0.28510  0.72410  1.0000
  H   H5        1.0  0.77150  0.14130  0.21230  1.0000
  H   H6        1.0  0.72850  0.64130  0.28770  1.0000
  H   H7        1.0  0.22850  0.85870  0.78770  1.0000
  H   H8        1.0  0.27150  0.35870  0.71230  1.0000
  H   H9        1.0  0.85110  0.19290  0.25260  1.0000
  H   H10       1.0  0.64890  0.69290  0.24740  1.0000
  H   H11       1.0  0.14890  0.80710  0.74740  1.0000
  H   H12       1.0  0.35110  0.30710  0.75260  1.0000
  C   C9        1.0  0.73420  0.31440  0.23700  1.0000
  C   C10       1.0  0.76580  0.81440  0.26300  1.0000
  C   C11       1.0  0.26580  0.68560  0.76300  1.0000
  C   C12       1.0  0.23420  0.18560  0.73700  1.0000
  H   H13       1.0  0.70120  0.34990  0.20750  1.0000
  H   H14       1.0  0.79880  0.84990  0.29250  1.0000
  H   H15       1.0  0.29880  0.65010  0.79250  1.0000
  H   H16       1.0  0.20120  0.15010  0.70750  1.0000
  H   H17       1.0  0.77040  0.37990  0.25500  1.0000
  H   H18       1.0  0.72960  0.87990  0.24500  1.0000
  H   H19       1.0  0.22960  0.62010  0.74500  1.0000
  H   H20       1.0  0.27040  0.12010  0.75500  1.0000
  C   C13       1.0  0.65770  0.26440  0.26680  1.0000
  C   C14       1.0  0.84230  0.76440  0.23320  1.0000
  C   C15       1.0  0.34230  0.73560  0.73320  1.0000
  C   C16       1.0  0.15770  0.23560  0.76680  1.0000
  H   H21       1.0  0.61990  0.20110  0.24840  1.0000
  H   H22       1.0  0.88010  0.70110  0.25160  1.0000
  H   H23       1.0  0.38010  0.79890  0.75160  1.0000
  H   H24       1.0  0.11990  0.29890  0.74840  1.0000
  H   H25       1.0  0.69070  0.22620  0.29580  1.0000
  H   H26       1.0  0.80930  0.72620  0.20420  1.0000
  H   H27       1.0  0.30930  0.77380  0.70420  1.0000
  H   H28       1.0  0.19070  0.27380  0.79580  1.0000
  C   C17       1.0  0.58830  0.36380  0.28120  1.0000
  C   C18       1.0  0.91170  0.86380  0.21880  1.0000
  C   C19       1.0  0.41170  0.63620  0.71880  1.0000
  C   C20       1.0  0.08830  0.13620  0.78120  1.0000
  H   H29       1.0  0.55940  0.40650  0.25240  1.0000
  H   H30       1.0  0.94060  0.90650  0.24760  1.0000
  H   H31       1.0  0.44060  0.59350  0.74760  1.0000
  H   H32       1.0  0.05940  0.09350  0.75240  1.0000
  H   H33       1.0  0.62570  0.42370  0.30170  1.0000
  H   H34       1.0  0.87430  0.92370  0.19830  1.0000
  H   H35       1.0  0.37430  0.57630  0.69830  1.0000
  H   H36       1.0  0.12570  0.07630  0.80170  1.0000
  C   C21       1.0  0.50690  0.31380  0.30760  1.0000
  C   C22       1.0  0.99310  0.81380  0.19240  1.0000
  C   C23       1.0  0.49310  0.68620  0.69240  1.0000
  C   C24       1.0  0.00690  0.18620  0.80760  1.0000
  H   H37       1.0  0.47080  0.38290  0.31830  1.0000
  H   H38       1.0  0.02920  0.88290  0.18170  1.0000
  H   H39       1.0  0.52920  0.61710  0.68170  1.0000
  H   H40       1.0  0.97080  0.11710  0.81830  1.0000
  H   H41       1.0  0.53600  0.26970  0.33600  1.0000
  H   H42       1.0  0.96400  0.76970  0.16400  1.0000
  H   H43       1.0  0.46400  0.73030  0.66400  1.0000
  H   H44       1.0  0.03600  0.23030  0.83600  1.0000
  C   C25       1.0  0.43620  0.22840  0.27790  1.0000
  C   C26       1.0  0.06380  0.72840  0.22210  1.0000
  C   C27       1.0  0.56380  0.77160  0.72210  1.0000
  C   C28       1.0  0.93620  0.27160  0.77790  1.0000
  H   H45       1.0  0.40930  0.27000  0.24840  1.0000
  H   H46       1.0  0.09070  0.77000  0.25160  1.0000
  H   H47       1.0  0.59070  0.73000  0.75160  1.0000
  H   H48       1.0  0.90930  0.23000  0.74840  1.0000
  H   H49       1.0  0.47070  0.15570  0.26910  1.0000
  H   H50       1.0  0.02930  0.65570  0.23090  1.0000
  H   H51       1.0  0.52930  0.84430  0.73090  1.0000
  H   H52       1.0  0.97070  0.34430  0.76910  1.0000
  C   C29       1.0  0.35290  0.18890  0.30560  1.0000
  C   C30       1.0  0.14710  0.68890  0.19440  1.0000
  C   C31       1.0  0.64710  0.81110  0.69440  1.0000
  C   C32       1.0  0.85290  0.31110  0.80560  1.0000
  H   H53       1.0  0.30760  0.13740  0.28500  1.0000
  H   H54       1.0  0.19240  0.63740  0.21500  1.0000
  H   H55       1.0  0.69240  0.86260  0.71500  1.0000
  H   H56       1.0  0.80760  0.36260  0.78500  1.0000
  H   H57       1.0  0.31790  0.26160  0.31410  1.0000
  H   H58       1.0  0.18210  0.76160  0.18590  1.0000
  H   H59       1.0  0.68210  0.73840  0.68590  1.0000
  H   H60       1.0  0.81790  0.23840  0.81410  1.0000
  C   C33       1.0  0.38840  0.12150  0.34910  1.0000
  C   C34       1.0  0.11160  0.62150  0.15090  1.0000
  C   C35       1.0  0.61160  0.87850  0.65090  1.0000
  C   C36       1.0  0.88840  0.37850  0.84910  1.0000
  C   C37       1.0  0.24820  0.34970  0.42130  1.0000
  C   C38       1.0  0.25180  0.84970  0.07870  1.0000
  C   C39       1.0  0.75180  0.65030  0.57870  1.0000
  C   C40       1.0  0.74820  0.15030  0.92130  1.0000
  C   C41       1.0  0.16550  0.40490  0.34620  1.0000
  C   C42       1.0  0.33450  0.90490  0.15380  1.0000
  C   C43       1.0  0.83450  0.59510  0.65380  1.0000
  C   C44       1.0  0.66550  0.09510  0.84620  1.0000
  H   H61       1.0  0.17870  0.36900  0.31560  1.0000
  H   H62       1.0  0.32130  0.86900  0.18440  1.0000
  H   H63       1.0  0.82130  0.63100  0.68440  1.0000
  H   H64       1.0  0.67870  0.13100  0.81560  1.0000
  C   C45       1.0  0.24130  0.50660  0.36420  1.0000
  C   C46       1.0  0.25870  0.00660  0.13580  1.0000
  C   C47       1.0  0.75870  0.49340  0.63580  1.0000
  C   C48       1.0  0.74130  0.99340  0.86420  1.0000
  H   H65       1.0  0.28970  0.51760  0.34200  1.0000
  H   H66       1.0  0.21030  0.01760  0.15800  1.0000
  H   H67       1.0  0.71030  0.48240  0.65800  1.0000
  H   H68       1.0  0.78970  0.98240  0.84200  1.0000
  C   C49       1.0  0.08430  0.59210  0.35020  1.0000
  C   C50       1.0  0.41570  0.09210  0.14980  1.0000
  C   C51       1.0  0.91570  0.40790  0.64980  1.0000
  C   C52       1.0  0.58430  0.90790  0.85020  1.0000
  C   C53       1.0  0.36670  0.51610  0.44250  1.0000
  C   C54       1.0  0.13330  0.01610  0.05750  1.0000
  C   C55       1.0  0.63330  0.48390  0.55750  1.0000
  C   C56       1.0  0.86670  0.98390  0.94250  1.0000
  H   H69       1.0  0.40510  0.45180  0.46010  1.0000
  H   H70       1.0  0.09490  0.95180  0.03990  1.0000
  H   H71       1.0  0.59490  0.54820  0.53990  1.0000
  H   H72       1.0  0.90510  0.04820  0.96010  1.0000
  H   H73       1.0  0.40860  0.56060  0.42330  1.0000
  H   H74       1.0  0.09140  0.06060  0.07670  1.0000
  H   H75       1.0  0.59140  0.43940  0.57670  1.0000
  H   H76       1.0  0.90860  0.93940  0.92330  1.0000
  C   C57       1.0  0.21770  0.73610  0.38160  1.0000
  C   C58       1.0  0.28230  0.23610  0.11840  1.0000
  C   C59       1.0  0.78230  0.26390  0.61840  1.0000
  C   C60       1.0  0.71770  0.76390  0.88160  1.0000
  H   H77       1.0  0.28210  0.74720  0.37210  1.0000
  H   H78       1.0  0.21790  0.24720  0.12790  1.0000
  H   H79       1.0  0.71790  0.25280  0.62790  1.0000
  H   H80       1.0  0.78210  0.75280  0.87210  1.0000
  H   H81       1.0  0.17540  0.79850  0.36520  1.0000
  H   H82       1.0  0.32460  0.29850  0.13480  1.0000
  H   H83       1.0  0.82460  0.20150  0.63480  1.0000
  H   H84       1.0  0.67540  0.70150  0.86520  1.0000
  C   C61       1.0  0.32480  0.57010  0.52380  1.0000
  C   C62       1.0  0.17520  0.07010  0.97620  1.0000
  C   C63       1.0  0.67520  0.42990  0.47620  1.0000
  C   C64       1.0  0.82480  0.92990  0.02380  1.0000
  C   C65       1.0  0.31000  0.73090  0.46680  1.0000
  C   C66       1.0  0.19000  0.23090  0.03320  1.0000
  C   C67       1.0  0.69000  0.26910  0.53320  1.0000
  C   C68       1.0  0.81000  0.76910  0.96680  1.0000
  H   H85       1.0  0.36720  0.77370  0.45770  1.0000
  H   H86       1.0  0.13280  0.27370  0.04230  1.0000
  H   H87       1.0  0.63280  0.22630  0.54230  1.0000
  H   H88       1.0  0.86720  0.72630  0.95770  1.0000
  C   C69       1.0  0.28180  0.77940  0.51510  1.0000
  C   C70       1.0  0.21820  0.27940  0.98490  1.0000
  C   C71       1.0  0.71820  0.22060  0.48490  1.0000
  C   C72       1.0  0.78180  0.72060  0.01510  1.0000
  H   H89       1.0  0.32630  0.84440  0.52890  1.0000
  H   H90       1.0  0.17370  0.34440  0.97110  1.0000
  H   H91       1.0  0.67370  0.15560  0.47110  1.0000
  H   H92       1.0  0.82630  0.65560  0.02890  1.0000
  C   C73       1.0  0.15620  0.82300  0.45340  1.0000
  C   C74       1.0  0.34380  0.32300  0.04660  1.0000
  C   C75       1.0  0.84380  0.17700  0.54660  1.0000
  C   C76       1.0  0.65620  0.67700  0.95340  1.0000
  C   C77       1.0  0.28730  0.68100  0.59700  1.0000
  C   C78       1.0  0.21270  0.18100  0.90300  1.0000
  C   C79       1.0  0.71270  0.31900  0.40300  1.0000
  C   C80       1.0  0.78730  0.81900  0.09700  1.0000
  H   H93       1.0  0.32540  0.75300  0.60820  1.0000
  H   H94       1.0  0.17460  0.25300  0.89180  1.0000
  H   H95       1.0  0.67460  0.24700  0.39180  1.0000
  H   H96       1.0  0.82540  0.74700  0.10820  1.0000
  H   H97       1.0  0.31880  0.60950  0.61310  1.0000
  H   H98       1.0  0.18120  0.10950  0.88690  1.0000
  H   H99       1.0  0.68120  0.39050  0.38690  1.0000
  H   H100      1.0  0.81880  0.89050  0.11310  1.0000
  C   C81       1.0  0.14460  0.91490  0.53250  1.0000
  C   C82       1.0  0.35540  0.41490  0.96750  1.0000
  C   C83       1.0  0.85540  0.08510  0.46750  1.0000
  C   C84       1.0  0.64460  0.58510  0.03250  1.0000
  H   H101      1.0  0.09930  0.96790  0.51260  1.0000
  H   H102      1.0  0.40070  0.46790  0.98740  1.0000
  H   H103      1.0  0.90070  0.03210  0.48740  1.0000
  H   H104      1.0  0.59930  0.53210  0.01260  1.0000
  H   H105      1.0  0.19730  0.96630  0.54760  1.0000
  H   H106      1.0  0.30270  0.46630  0.95240  1.0000
  H   H107      1.0  0.80270  0.03370  0.45240  1.0000
  H   H108      1.0  0.69730  0.53370  0.04760  1.0000
  C   C85       1.0  0.15250  0.60380  0.63750  1.0000
  C   C86       1.0  0.34750  0.10380  0.86250  1.0000
  C   C87       1.0  0.84750  0.39620  0.36250  1.0000
  C   C88       1.0  0.65250  0.89620  0.13750  1.0000
  C   C89       1.0  0.14170  0.81190  0.61430  1.0000
  C   C90       1.0  0.35830  0.31190  0.88570  1.0000
  C   C91       1.0  0.85830  0.18810  0.38570  1.0000
  C   C92       1.0  0.64170  0.68810  0.11430  1.0000
  H   H109      1.0  0.18530  0.87310  0.63160  1.0000
  H   H110      1.0  0.31470  0.37310  0.86840  1.0000
  H   H111      1.0  0.81470  0.12690  0.36840  1.0000
  H   H112      1.0  0.68530  0.62690  0.13160  1.0000
  C   C93       1.0  0.05450  0.77940  0.64250  1.0000
  C   C94       1.0  0.44550  0.27940  0.85750  1.0000
  C   C95       1.0  0.94550  0.22060  0.35750  1.0000
  C   C96       1.0  0.55450  0.72060  0.14250  1.0000
  H   H113      1.0  0.05080  0.83470  0.66990  1.0000
  H   H114      1.0  0.44920  0.33470  0.83010  1.0000
  H   H115      1.0  0.94920  0.16530  0.33010  1.0000
  H   H116      1.0  0.55080  0.66530  0.16990  1.0000
  C   C97       1.0  0.99610  0.83770  0.56350  1.0000
  C   C98       1.0  0.50390  0.33770  0.93650  1.0000
  C   C99       1.0  0.00390  0.16230  0.43650  1.0000
  C   C100      1.0  0.49610  0.66230  0.06350  1.0000
  C   C101      1.0  0.98460  0.41990  0.31390  1.0000
  C   C102      1.0  0.51540  0.91990  0.18610  1.0000
  C   C103      1.0  0.01540  0.58010  0.68610  1.0000
  C   C104      1.0  0.48460  0.08010  0.81390  1.0000
  H   H117      1.0  0.00240  0.36860  0.28810  1.0000
  H   H118      1.0  0.49760  0.86860  0.21190  1.0000
  H   H119      1.0  0.99760  0.63140  0.71190  1.0000
  H   H120      1.0  0.50240  0.13140  0.78810  1.0000
  H   H121      1.0  0.94600  0.48800  0.29940  1.0000
  H   H122      1.0  0.55400  0.98800  0.20060  1.0000
  H   H123      1.0  0.05400  0.51200  0.70060  1.0000
  H   H124      1.0  0.44600  0.01200  0.79940  1.0000
  C   C105      1.0  0.12990  0.19890  0.38370  1.0000
  C   C106      1.0  0.37010  0.69890  0.11630  1.0000
  C   C107      1.0  0.87010  0.80110  0.61630  1.0000
  C   C108      1.0  0.62990  0.30110  0.88370  1.0000
  H   H125      1.0  0.13010  0.16260  0.35210  1.0000
  H   H126      1.0  0.36990  0.66260  0.14790  1.0000
  H   H127      1.0  0.86990  0.83740  0.64790  1.0000
  H   H128      1.0  0.63010  0.33740  0.85210  1.0000
  H   H129      1.0  0.16550  0.14400  0.40710  1.0000
  H   H130      1.0  0.33450  0.64400  0.09290  1.0000
  H   H131      1.0  0.83450  0.85600  0.59290  1.0000
  H   H132      1.0  0.66550  0.35600  0.90710  1.0000
