data_image0
_chemical_formula_structural       U4O12H2O20N24C4H4C2H4C2H4C2H4C2H4C2H4C6H2C2H2C4H4C2H4C4H2C2H2C4H4C2H4C4H2C2H2C4H4C2H4
_chemical_formula_sum              "U4 O32 H62 N24 C52"
_cell_length_a       10.9737
_cell_length_b       13.7663
_cell_length_c       14.7029
_cell_angle_alpha    110.812
_cell_angle_beta     98.887
_cell_angle_gamma    90.371

_space_group_name_H-M_alt    "P 1"
_space_group_IT_number       1

loop_
  _space_group_symop_operation_xyz
  'x, y, z'

loop_
  _atom_site_type_symbol
  _atom_site_label
  _atom_site_symmetry_multiplicity
  _atom_site_fract_x
  _atom_site_fract_y
  _atom_site_fract_z
  _atom_site_occupancy
  U   U1        1.0  0.37113  0.39615  0.45351  1.0000
  U   U2        1.0  0.62887  0.60385  0.54649  1.0000
  U   U3        1.0  0.56588  0.49112  0.26939  1.0000
  U   U4        1.0  0.43412  0.50888  0.73061  1.0000
  O   O1        1.0  0.25540  0.48380  0.44440  1.0000
  O   O2        1.0  0.74460  0.51620  0.55560  1.0000
  O   O3        1.0  0.47400  0.29790  0.45600  1.0000
  O   O4        1.0  0.52600  0.70210  0.54400  1.0000
  O   O5        1.0  0.68080  0.39790  0.26250  1.0000
  O   O6        1.0  0.31920  0.60210  0.73750  1.0000
  O   O7        1.0  0.45440  0.58480  0.26830  1.0000
  O   O8        1.0  0.54560  0.41520  0.73170  1.0000
  O   O9        1.0  0.48690  0.51860  0.59400  1.0000
  O   O10       1.0  0.51310  0.48140  0.40600  1.0000
  O   O11       1.0  0.30310  0.39030  0.59910  1.0000
  O   O12       1.0  0.69690  0.60970  0.40090  1.0000
  H   H1        1.0  0.22590  0.40120  0.59020  1.0000
  H   H2        1.0  0.77410  0.59880  0.40980  1.0000
  O   O13       1.0  0.69120  0.57930  0.19110  1.0000
  O   O14       1.0  0.30880  0.42070  0.80890  1.0000
  O   O15       1.0  0.57360  0.44380  0.08880  1.0000
  O   O16       1.0  0.42640  0.55620  0.91120  1.0000
  O   O17       1.0  0.30870  0.30970  0.27820  1.0000
  O   O18       1.0  0.69130  0.69030  0.72180  1.0000
  O   O19       1.0  0.41150  0.35740  0.18190  1.0000
  O   O20       1.0  0.58850  0.64260  0.81810  1.0000
  O   O21       1.0  0.19580  0.25960  0.41610  1.0000
  O   O22       1.0  0.80420  0.74040  0.58390  1.0000
  O   O23       1.0  0.76340  0.94440  0.18590  1.0000
  O   O24       1.0  0.23660  0.05560  0.81410  1.0000
  O   O25       1.0  0.04460  0.37380  0.59660  1.0000
  O   O26       1.0  0.95540  0.62620  0.40340  1.0000
  O   O27       1.0  0.60420  0.04900  0.36700  1.0000
  O   O28       1.0  0.39580  0.95100  0.63300  1.0000
  O   O29       1.0  0.06360  0.26040  0.79810  1.0000
  O   O30       1.0  0.93640  0.73960  0.20190  1.0000
  O   O31       1.0  0.65240  0.95190  0.55820  1.0000
  O   O32       1.0  0.34760  0.04810  0.44180  1.0000
  N   N1        1.0  0.13320  0.12720  0.26670  1.0000
  N   N2        1.0  0.86680  0.87280  0.73330  1.0000
  N   N3        1.0  0.00300  0.24780  0.32310  1.0000
  N   N4        1.0  0.99700  0.75220  0.67690  1.0000
  N   N5        1.0  0.82870  0.11760  0.23680  1.0000
  N   N6        1.0  0.17130  0.88240  0.76320  1.0000
  N   N7        1.0  0.96140  0.99750  0.18170  1.0000
  N   N8        1.0  0.03860  0.00250  0.81830  1.0000
  N   N9        1.0  0.89040  0.31920  0.45830  1.0000
  N   N10       1.0  0.10960  0.68080  0.54170  1.0000
  N   N11       1.0  0.84810  0.31650  0.60030  1.0000
  N   N12       1.0  0.15190  0.68350  0.39970  1.0000
  N   N13       1.0  0.67780  0.18640  0.51090  1.0000
  N   N14       1.0  0.32220  0.81360  0.48910  1.0000
  N   N15       1.0  0.71410  0.19280  0.36880  1.0000
  N   N16       1.0  0.28590  0.80720  0.63120  1.0000
  N   N17       1.0  0.85560  0.24870  0.73320  1.0000
  N   N18       1.0  0.14440  0.75130  0.26680  1.0000
  N   N19       1.0  0.92050  0.15330  0.82370  1.0000
  N   N20       1.0  0.07950  0.84670  0.17630  1.0000
  N   N21       1.0  0.76030  0.02080  0.71740  1.0000
  N   N22       1.0  0.23970  0.97920  0.28260  1.0000
  N   N23       1.0  0.67310  0.12930  0.64790  1.0000
  N   N24       1.0  0.32690  0.87070  0.35210  1.0000
  C   C1        1.0  0.65710  0.51390  0.10430  1.0000
  C   C2        1.0  0.34290  0.48610  0.89570  1.0000
  C   C3        1.0  0.72050  0.51540  0.02080  1.0000
  C   C4        1.0  0.27950  0.48460  0.97920  1.0000
  H   H3        1.0  0.65920  0.50690  0.96290  1.0000
  H   H4        1.0  0.34080  0.49310  0.03710  1.0000
  H   H5        1.0  0.76660  0.58190  0.03940  1.0000
  H   H6        1.0  0.23340  0.41810  0.96060  1.0000
  C   C5        1.0  0.80910  0.42660  0.99640  1.0000
  C   C6        1.0  0.19090  0.57340  0.00360  1.0000
  H   H7        1.0  0.84350  0.42450  0.93880  1.0000
  H   H8        1.0  0.15650  0.57550  0.06120  1.0000
  H   H9        1.0  0.76250  0.36080  0.97990  1.0000
  H   H10       1.0  0.23750  0.63920  0.02010  1.0000
  C   C7        1.0  0.91510  0.43890  0.08150  1.0000
  C   C8        1.0  0.08490  0.56110  0.91850  1.0000
  H   H11       1.0  0.88070  0.44040  0.13890  1.0000
  H   H12       1.0  0.11930  0.55960  0.86110  1.0000
  H   H13       1.0  0.96120  0.50500  0.09840  1.0000
  H   H14       1.0  0.03880  0.49500  0.90160  1.0000
  C   C9        1.0  0.00280  0.35280  0.05790  1.0000
  C   C10       1.0  0.99720  0.64720  0.94210  1.0000
  H   H15       1.0  0.95870  0.28750  0.04770  1.0000
  H   H16       1.0  0.04130  0.71250  0.95230  1.0000
  H   H17       1.0  0.03100  0.34650  0.99680  1.0000
  H   H18       1.0  0.96900  0.65350  0.00320  1.0000
  C   C11       1.0  0.11400  0.37140  0.13870  1.0000
  C   C12       1.0  0.88600  0.62860  0.86130  1.0000
  H   H19       1.0  0.15670  0.43740  0.14930  1.0000
  H   H20       1.0  0.84330  0.56260  0.85070  1.0000
  H   H21       1.0  0.08520  0.37720  0.19940  1.0000
  H   H22       1.0  0.91480  0.62280  0.80060  1.0000
  C   C13       1.0  0.20670  0.28620  0.11710  1.0000
  C   C14       1.0  0.79330  0.71380  0.88290  1.0000
  H   H23       1.0  0.23180  0.27570  0.05410  1.0000
  H   H24       1.0  0.76820  0.72430  0.94590  1.0000
  H   H25       1.0  0.16780  0.22110  0.11340  1.0000
  H   H26       1.0  0.83220  0.77890  0.88660  1.0000
  C   C15       1.0  0.31730  0.31700  0.19670  1.0000
  C   C16       1.0  0.68270  0.68300  0.80330  1.0000
  C   C17       1.0  0.11810  0.21510  0.34190  1.0000
  C   C18       1.0  0.88190  0.78490  0.65810  1.0000
  C   C19       1.0  0.02450  0.09380  0.19030  1.0000
  C   C20       1.0  0.97550  0.90620  0.80970  1.0000
  H   H27       1.0  0.04300  0.09170  0.12650  1.0000
  H   H28       1.0  0.95700  0.90830  0.87350  1.0000
  C   C21       1.0  0.93280  0.17820  0.23010  1.0000
  C   C22       1.0  0.06720  0.82180  0.76990  1.0000
  H   H29       1.0  0.90890  0.21480  0.18450  1.0000
  H   H30       1.0  0.09110  0.78520  0.81550  1.0000
  C   C23       1.0  0.84200  0.01290  0.20000  1.0000
  C   C24       1.0  0.15800  0.98710  0.80000  1.0000
  C   C25       1.0  0.95870  0.34090  0.39080  1.0000
  C   C26       1.0  0.04130  0.65910  0.60920  1.0000
  H   H31       1.0  0.02880  0.38920  0.42830  1.0000
  H   H32       1.0  0.97120  0.61080  0.57170  1.0000
  H   H33       1.0  0.90620  0.37430  0.35290  1.0000
  H   H34       1.0  0.09380  0.62570  0.64710  1.0000
  C   C27       1.0  0.71420  0.16000  0.26370  1.0000
  C   C28       1.0  0.28580  0.84000  0.73630  1.0000
  H   H35       1.0  0.64670  0.10790  0.22880  1.0000
  H   H36       1.0  0.35330  0.89210  0.77120  1.0000
  H   H37       1.0  0.70010  0.21920  0.24320  1.0000
  H   H38       1.0  0.29990  0.78080  0.75680  1.0000
  C   C29       1.0  0.93850  0.34050  0.55600  1.0000
  C   C30       1.0  0.06150  0.65950  0.44400  1.0000
  C   C31       1.0  0.75670  0.29630  0.43750  1.0000
  C   C32       1.0  0.24330  0.70370  0.56250  1.0000
  H   H39       1.0  0.71260  0.35010  0.41920  1.0000
  H   H40       1.0  0.28740  0.64990  0.58080  1.0000
  C   C33       1.0  0.72810  0.29300  0.53630  1.0000
  C   C34       1.0  0.27190  0.70700  0.46370  1.0000
  H   H41       1.0  0.66890  0.34400  0.56330  1.0000
  H   H42       1.0  0.33110  0.65600  0.43670  1.0000
  C   C35       1.0  0.65950  0.13400  0.41070  1.0000
  C   C36       1.0  0.34050  0.86600  0.58930  1.0000
  C   C37       1.0  0.85980  0.34030  0.70560  1.0000
  C   C38       1.0  0.14020  0.65970  0.29440  1.0000
  H   H43       1.0  0.79370  0.38340  0.72980  1.0000
  H   H44       1.0  0.20630  0.61660  0.27020  1.0000
  H   H45       1.0  0.93750  0.38050  0.73790  1.0000
  H   H46       1.0  0.06250  0.61950  0.26210  1.0000
  C   C39       1.0  0.60250  0.16070  0.57250  1.0000
  C   C40       1.0  0.39750  0.83930  0.42750  1.0000
  H   H47       1.0  0.54200  0.10470  0.53120  1.0000
  H   H48       1.0  0.45800  0.89530  0.46880  1.0000
  H   H49       1.0  0.55800  0.22080  0.60400  1.0000
  H   H50       1.0  0.44200  0.77920  0.39600  1.0000
  C   C41       1.0  0.95770  0.22330  0.78500  1.0000
  C   C42       1.0  0.04230  0.77670  0.21500  1.0000
  C   C43       1.0  0.74060  0.19890  0.73950  1.0000
  C   C44       1.0  0.25940  0.80110  0.26050  1.0000
  H   H51       1.0  0.68790  0.24970  0.77720  1.0000
  H   H52       1.0  0.31210  0.75030  0.22280  1.0000
  C   C45       1.0  0.78870  0.12270  0.79320  1.0000
  C   C46       1.0  0.21130  0.87730  0.20680  1.0000
  H   H53       1.0  0.74760  0.13060  0.84980  1.0000
  H   H54       1.0  0.25240  0.86940  0.15020  1.0000
  C   C47       1.0  0.69050  0.02580  0.63240  1.0000
  C   C48       1.0  0.30950  0.97420  0.36760  1.0000
  C   C49       1.0  0.99500  0.89490  0.12270  1.0000
  C   C50       1.0  0.00500  0.10510  0.87730  1.0000
  H   H55       1.0  0.03200  0.90090  0.06890  1.0000
  H   H56       1.0  0.96800  0.09910  0.93110  1.0000
  H   H57       1.0  0.92020  0.84950  0.09380  1.0000
  H   H58       1.0  0.07980  0.15050  0.90620  1.0000
  C   C51       1.0  0.24710  0.07370  0.26190  1.0000
  C   C52       1.0  0.75290  0.92630  0.73810  1.0000
  H   H59       1.0  0.31330  0.12030  0.30900  1.0000
  H   H60       1.0  0.68670  0.87970  0.69100  1.0000
  H   H61       1.0  0.26800  0.05710  0.19660  1.0000
  H   H62       1.0  0.73200  0.94290  0.80340  1.0000
