data_image0
_chemical_formula_structural       U4O12H2O20N24C4H4C2H4C2H4C2H4C2H4C2H4C2H4C6H2C2H2C4H4C2H4C4H2C2H2C4H4C2H4C4H2C2H2C4H4C2H4
_chemical_formula_sum              "U4 O32 H66 N24 C54"
_cell_length_a       10.8119
_cell_length_b       13.8031
_cell_length_c       15.1715
_cell_angle_alpha    72.374
_cell_angle_beta     86.505
_cell_angle_gamma    89.934

_space_group_name_H-M_alt    "P 1"
_space_group_IT_number       1

loop_
  _space_group_symop_operation_xyz
  'x, y, z'

loop_
  _atom_site_type_symbol
  _atom_site_label
  _atom_site_symmetry_multiplicity
  _atom_site_fract_x
  _atom_site_fract_y
  _atom_site_fract_z
  _atom_site_occupancy
  U   U1        1.0  0.37425  0.06885  0.54432  1.0000
  U   U2        1.0  0.62575  0.93115  0.45568  1.0000
  U   U3        1.0  0.40249  0.15084  0.28463  1.0000
  U   U4        1.0  0.59751  0.84916  0.71537  1.0000
  O   O1        1.0  0.25610  0.97770  0.54360  1.0000
  O   O2        1.0  0.74390  0.02230  0.45640  1.0000
  O   O3        1.0  0.47930  0.16520  0.55140  1.0000
  O   O4        1.0  0.52070  0.83480  0.44860  1.0000
  O   O5        1.0  0.28620  0.05850  0.28130  1.0000
  O   O6        1.0  0.71380  0.94150  0.71870  1.0000
  O   O7        1.0  0.51390  0.24860  0.28110  1.0000
  O   O8        1.0  0.48610  0.75140  0.71890  1.0000
  O   O9        1.0  0.47940  0.05170  0.41260  1.0000
  O   O10       1.0  0.52060  0.94830  0.58740  1.0000
  O   O11       1.0  0.28950  0.17870  0.40820  1.0000
  O   O12       1.0  0.71050  0.82130  0.59180  1.0000
  H   H1        1.0  0.20110  0.16980  0.41820  1.0000
  H   H2        1.0  0.79890  0.83020  0.58180  1.0000
  O   O13       1.0  0.25160  0.28370  0.21670  1.0000
  O   O14       1.0  0.74840  0.71630  0.78330  1.0000
  O   O15       1.0  0.37020  0.23500  0.11680  1.0000
  O   O16       1.0  0.62980  0.76500  0.88320  1.0000
  O   O17       1.0  0.31950  0.02130  0.70730  1.0000
  O   O18       1.0  0.68050  0.97870  0.29270  1.0000
  O   O19       1.0  0.45730  0.93090  0.79330  1.0000
  O   O20       1.0  0.54270  0.06910  0.20670  1.0000
  O   O21       1.0  0.20720  0.18290  0.57990  1.0000
  O   O22       1.0  0.79280  0.81710  0.42010  1.0000
  O   O23       1.0  0.80900  0.34140  0.79110  1.0000
  O   O24       1.0  0.19100  0.65860  0.20890  1.0000
  O   O25       1.0  0.02780  0.19630  0.40450  1.0000
  O   O26       1.0  0.97220  0.80370  0.59550  1.0000
  O   O27       1.0  0.61670  0.36230  0.62550  1.0000
  O   O28       1.0  0.38330  0.63770  0.37450  1.0000
  O   O29       1.0  0.02020  0.45240  0.21450  1.0000
  O   O30       1.0  0.97980  0.54760  0.78550  1.0000
  O   O31       1.0  0.64900  0.59320  0.44520  1.0000
  O   O32       1.0  0.35100  0.40680  0.55480  1.0000
  N   N1        1.0  0.16680  0.20680  0.72250  1.0000
  N   N2        1.0  0.83320  0.79320  0.27750  1.0000
  N   N3        1.0  0.02380  0.13310  0.66530  1.0000
  N   N4        1.0  0.97620  0.86690  0.33470  1.0000
  N   N5        1.0  0.86060  0.19660  0.75250  1.0000
  N   N6        1.0  0.13940  0.80340  0.24750  1.0000
  N   N7        1.0  0.00640  0.27700  0.80380  1.0000
  N   N8        1.0  0.99360  0.72300  0.19620  1.0000
  N   N9        1.0  0.89370  0.15800  0.53560  1.0000
  N   N10       1.0  0.10630  0.84200  0.46440  1.0000
  N   N11       1.0  0.83180  0.26020  0.40330  1.0000
  N   N12       1.0  0.16820  0.73980  0.59670  1.0000
  N   N13       1.0  0.67310  0.32510  0.48990  1.0000
  N   N14       1.0  0.32690  0.67490  0.51010  1.0000
  N   N15       1.0  0.73200  0.22410  0.62200  1.0000
  N   N16       1.0  0.26800  0.77590  0.37800  1.0000
  N   N17       1.0  0.81880  0.41830  0.27760  1.0000
  N   N18       1.0  0.18120  0.58170  0.72240  1.0000
  N   N19       1.0  0.87100  0.57610  0.19190  1.0000
  N   N20       1.0  0.12900  0.42390  0.80810  1.0000
  N   N21       1.0  0.72530  0.63430  0.29280  1.0000
  N   N22       1.0  0.27470  0.36570  0.70720  1.0000
  N   N23       1.0  0.65110  0.47800  0.36130  1.0000
  N   N24       1.0  0.34890  0.52200  0.63870  1.0000
  C   C1        1.0  0.28770  0.29360  0.13510  1.0000
  C   C2        1.0  0.71230  0.70640  0.86490  1.0000
  C   C3        1.0  0.23440  0.37420  0.05760  1.0000
  C   C4        1.0  0.76560  0.62580  0.94240  1.0000
  H   H3        1.0  0.14480  0.37360  0.06690  1.0000
  H   H4        1.0  0.85520  0.62640  0.93310  1.0000
  H   H5        1.0  0.25560  0.36160  0.99910  1.0000
  H   H6        1.0  0.74440  0.63840  0.00090  1.0000
  C   C5        1.0  0.28690  0.47590  0.05600  1.0000
  C   C6        1.0  0.71310  0.52410  0.94400  1.0000
  H   H7        1.0  0.37660  0.47240  0.05200  1.0000
  H   H8        1.0  0.62340  0.52760  0.94800  1.0000
  H   H9        1.0  0.26240  0.48730  0.11460  1.0000
  H   H10       1.0  0.73760  0.51270  0.88540  1.0000
  C   C7        1.0  0.24880  0.56870  0.97750  1.0000
  C   C8        1.0  0.75120  0.43130  0.02250  1.0000
  H   H11       1.0  0.28290  0.56300  0.91870  1.0000
  H   H12       1.0  0.71710  0.43700  0.08130  1.0000
  H   H13       1.0  0.15920  0.56900  0.97630  1.0000
  H   H14       1.0  0.84080  0.43100  0.02370  1.0000
  C   C9        1.0  0.29220  0.66570  0.98870  1.0000
  C   C10       1.0  0.70780  0.33430  0.01130  1.0000
  H   H15       1.0  0.38200  0.66590  0.98640  1.0000
  H   H16       1.0  0.61800  0.33410  0.01360  1.0000
  H   H17       1.0  0.26330  0.66770  0.04990  1.0000
  H   H18       1.0  0.73670  0.33230  0.95010  1.0000
  C   C11       1.0  0.25170  0.76200  0.91830  1.0000
  C   C12       1.0  0.74830  0.23800  0.08170  1.0000
  H   H19       1.0  0.16280  0.75850  0.91350  1.0000
  H   H20       1.0  0.83720  0.24150  0.08650  1.0000
  H   H21       1.0  0.29170  0.76680  0.85810  1.0000
  H   H22       1.0  0.70830  0.23320  0.14190  1.0000
  C   C13       1.0  0.28390  0.85720  0.94450  1.0000
  C   C14       1.0  0.71610  0.14280  0.05550  1.0000
  H   H23       1.0  0.37010  0.85450  0.95940  1.0000
  H   H24       1.0  0.62990  0.14550  0.04060  1.0000
  H   H25       1.0  0.23360  0.85720  0.99960  1.0000
  H   H26       1.0  0.76640  0.14280  0.00040  1.0000
  C   C15       1.0  0.26350  0.95740  0.86720  1.0000
  C   C16       1.0  0.73650  0.04260  0.13280  1.0000
  H   H27       1.0  0.17950  0.95810  0.84810  1.0000
  H   H28       1.0  0.82050  0.04190  0.15190  1.0000
  H   H29       1.0  0.27390  0.01440  0.89110  1.0000
  H   H30       1.0  0.72610  0.98560  0.10890  1.0000
  C   C17       1.0  0.35450  0.96910  0.78390  1.0000
  C   C18       1.0  0.64550  0.03090  0.21610  1.0000
  C   C19       1.0  0.13790  0.17500  0.64950  1.0000
  C   C20       1.0  0.86210  0.82500  0.35050  1.0000
  C   C21       1.0  0.06740  0.18620  0.79410  1.0000
  C   C22       1.0  0.93260  0.81380  0.20590  1.0000
  H   H31       1.0  0.09440  0.14290  0.85350  1.0000
  H   H32       1.0  0.90560  0.85710  0.14650  1.0000
  C   C23       1.0  0.96670  0.13160  0.75550  1.0000
  C   C24       1.0  0.03330  0.86840  0.24450  1.0000
  H   H33       1.0  0.94890  0.06220  0.79570  1.0000
  H   H34       1.0  0.05110  0.93780  0.20430  1.0000
  C   C25       1.0  0.88360  0.27820  0.78280  1.0000
  C   C26       1.0  0.11640  0.72180  0.21720  1.0000
  C   C27       1.0  0.97100  0.08840  0.60000  1.0000
  C   C28       1.0  0.02900  0.91160  0.40000  1.0000
  H   H35       1.0  0.03790  0.06650  0.56520  1.0000
  H   H36       1.0  0.96210  0.93350  0.43480  1.0000
  H   H37       1.0  0.92190  0.02860  0.63440  1.0000
  H   H38       1.0  0.07810  0.97140  0.36560  1.0000
  C   C29       1.0  0.74190  0.17830  0.72110  1.0000
  C   C30       1.0  0.25810  0.82170  0.27890  1.0000
  H   H39       1.0  0.67740  0.20500  0.75410  1.0000
  H   H40       1.0  0.32260  0.79500  0.24590  1.0000
  H   H41       1.0  0.72770  0.10550  0.73660  1.0000
  H   H42       1.0  0.27230  0.89450  0.26340  1.0000
  C   C31       1.0  0.92880  0.20390  0.44410  1.0000
  C   C32       1.0  0.07120  0.79610  0.55590  1.0000
  C   C33       1.0  0.76330  0.16770  0.55720  1.0000
  C   C34       1.0  0.23670  0.83230  0.44280  1.0000
  H   H43       1.0  0.72020  0.10150  0.57560  1.0000
  H   H44       1.0  0.27980  0.89850  0.42440  1.0000
  C   C35       1.0  0.71910  0.23810  0.46420  1.0000
  C   C36       1.0  0.28090  0.76190  0.53580  1.0000
  H   H45       1.0  0.65470  0.20540  0.43960  1.0000
  H   H46       1.0  0.34530  0.79460  0.56040  1.0000
  C   C37       1.0  0.66790  0.30790  0.58420  1.0000
  C   C38       1.0  0.33210  0.69210  0.41580  1.0000
  C   C39       1.0  0.82690  0.30700  0.30470  1.0000
  C   C40       1.0  0.17310  0.69300  0.69530  1.0000
  H   H47       1.0  0.75550  0.27980  0.28370  1.0000
  H   H48       1.0  0.24450  0.72020  0.71630  1.0000
  H   H49       1.0  0.90040  0.28910  0.27360  1.0000
  H   H50       1.0  0.09960  0.71090  0.72640  1.0000
  C   C41       1.0  0.58930  0.39550  0.43100  1.0000
  C   C42       1.0  0.41070  0.60450  0.56900  1.0000
  H   H51       1.0  0.53920  0.35800  0.40100  1.0000
  H   H52       1.0  0.46080  0.64200  0.59900  1.0000
  H   H53       1.0  0.53380  0.42290  0.46970  1.0000
  H   H54       1.0  0.46620  0.57710  0.53030  1.0000
  C   C43       1.0  0.91560  0.48010  0.22680  1.0000
  C   C44       1.0  0.08440  0.51990  0.77320  1.0000
  C   C45       1.0  0.70270  0.47280  0.27300  1.0000
  C   C46       1.0  0.29730  0.52720  0.72700  1.0000
  H   H55       1.0  0.64180  0.44730  0.23970  1.0000
  H   H56       1.0  0.35820  0.55270  0.76030  1.0000
  C   C47       1.0  0.74210  0.58400  0.22170  1.0000
  C   C48       1.0  0.25790  0.41600  0.77830  1.0000
  H   H57       1.0  0.69150  0.61430  0.16920  1.0000
  H   H58       1.0  0.30850  0.38570  0.83080  1.0000
  C   C49       1.0  0.67270  0.56980  0.37430  1.0000
  C   C50       1.0  0.32730  0.43020  0.62570  1.0000
  C   C51       1.0  0.05130  0.33790  0.85950  1.0000
  C   C52       1.0  0.94870  0.66210  0.14050  1.0000
  H   H59       1.0  0.09780  0.29440  0.90860  1.0000
  H   H60       1.0  0.90220  0.70560  0.09140  1.0000
  H   H61       1.0  0.98050  0.36240  0.88840  1.0000
  H   H62       1.0  0.01950  0.63760  0.11160  1.0000
  C   C53       1.0  0.28220  0.25660  0.72710  1.0000
  C   C54       1.0  0.71780  0.74340  0.27290  1.0000
  H   H63       1.0  0.31140  0.22810  0.78870  1.0000
  H   H64       1.0  0.68860  0.77190  0.21130  1.0000
  H   H65       1.0  0.34310  0.24200  0.68340  1.0000
  H   H66       1.0  0.65690  0.75800  0.31660  1.0000
