data_image0
_chemical_formula_structural       Ni6N54C36
_chemical_formula_sum              "Ni6 N54 C36"
_cell_length_a       12.5883
_cell_length_b       12.5883
_cell_length_c       21.565
_cell_angle_alpha    90
_cell_angle_beta     90
_cell_angle_gamma    120

_space_group_name_H-M_alt    "P 1"
_space_group_IT_number       1

loop_
  _space_group_symop_operation_xyz
  'x, y, z'

loop_
  _atom_site_type_symbol
  _atom_site_label
  _atom_site_symmetry_multiplicity
  _atom_site_fract_x
  _atom_site_fract_y
  _atom_site_fract_z
  _atom_site_occupancy
  Ni  Ni1       1.0  0.33333  0.66667  0.64236  1.0000
  Ni  Ni2       1.0  0.33333  0.66667  0.14236  1.0000
  Ni  Ni3       1.0  1.00000  0.00000  0.97569  1.0000
  Ni  Ni4       1.0  1.00000  0.00000  0.47569  1.0000
  Ni  Ni5       1.0  0.66666  0.33334  0.30903  1.0000
  Ni  Ni6       1.0  0.66666  0.33334  0.80903  1.0000
  N   N1        1.0  0.13381  0.14240  0.52872  1.0000
  N   N2        1.0  0.85760  0.99141  0.52872  1.0000
  N   N3        1.0  0.00859  0.86619  0.52872  1.0000
  N   N4        1.0  0.85760  0.86619  0.02872  1.0000
  N   N5        1.0  0.00859  0.14240  0.02872  1.0000
  N   N6        1.0  0.13381  0.99141  0.02872  1.0000
  N   N7        1.0  0.80048  0.47573  0.86205  1.0000
  N   N8        1.0  0.52427  0.32474  0.86205  1.0000
  N   N9        1.0  0.67526  0.19952  0.86205  1.0000
  N   N10       1.0  0.52427  0.19952  0.36205  1.0000
  N   N11       1.0  0.67526  0.47573  0.36205  1.0000
  N   N12       1.0  0.80048  0.32474  0.36205  1.0000
  N   N13       1.0  0.46714  0.80907  0.19539  1.0000
  N   N14       1.0  0.19093  0.65808  0.19539  1.0000
  N   N15       1.0  0.34192  0.53286  0.19539  1.0000
  N   N16       1.0  0.19093  0.53286  0.69539  1.0000
  N   N17       1.0  0.34192  0.80907  0.69539  1.0000
  N   N18       1.0  0.46714  0.65808  0.69539  1.0000
  N   N19       1.0  0.32016  0.52634  0.58732  1.0000
  N   N20       1.0  0.47366  0.79382  0.58732  1.0000
  N   N21       1.0  0.20618  0.67984  0.58732  1.0000
  N   N22       1.0  0.47366  0.67984  0.08732  1.0000
  N   N23       1.0  0.20618  0.52634  0.08732  1.0000
  N   N24       1.0  0.32016  0.79382  0.08732  1.0000
  N   N25       1.0  0.98683  0.85967  0.92065  1.0000
  N   N26       1.0  0.14033  0.12715  0.92065  1.0000
  N   N27       1.0  0.87285  0.01317  0.92065  1.0000
  N   N28       1.0  0.14033  0.01317  0.42065  1.0000
  N   N29       1.0  0.87285  0.85967  0.42065  1.0000
  N   N30       1.0  0.98683  0.12715  0.42065  1.0000
  N   N31       1.0  0.65349  0.19301  0.25399  1.0000
  N   N32       1.0  0.80699  0.46049  0.25399  1.0000
  N   N33       1.0  0.53951  0.34651  0.25399  1.0000
  N   N34       1.0  0.80699  0.34651  0.75399  1.0000
  N   N35       1.0  0.53951  0.19301  0.75399  1.0000
  N   N36       1.0  0.65349  0.46049  0.75399  1.0000
  N   N37       1.0  0.31141  0.35169  0.53177  1.0000
  N   N38       1.0  0.64831  0.95972  0.53177  1.0000
  N   N39       1.0  0.04028  0.68859  0.53177  1.0000
  N   N40       1.0  0.64831  0.68859  0.03177  1.0000
  N   N41       1.0  0.04028  0.35169  0.03177  1.0000
  N   N42       1.0  0.31141  0.95972  0.03177  1.0000
  N   N43       1.0  0.97808  0.68502  0.86510  1.0000
  N   N44       1.0  0.31498  0.29305  0.86510  1.0000
  N   N45       1.0  0.70695  0.02192  0.86510  1.0000
  N   N46       1.0  0.31498  0.02192  0.36510  1.0000
  N   N47       1.0  0.70695  0.68502  0.36510  1.0000
  N   N48       1.0  0.97808  0.29305  0.36510  1.0000
  N   N49       1.0  0.64474  0.01836  0.19844  1.0000
  N   N50       1.0  0.98164  0.62639  0.19844  1.0000
  N   N51       1.0  0.37361  0.35526  0.19844  1.0000
  N   N52       1.0  0.98164  0.35526  0.69844  1.0000
  N   N53       1.0  0.37361  0.01836  0.69844  1.0000
  N   N54       1.0  0.64474  0.62639  0.69844  1.0000
  C   C1        1.0  0.21371  0.24231  0.53160  1.0000
  C   C2        1.0  0.75769  0.97140  0.53160  1.0000
  C   C3        1.0  0.02860  0.78629  0.53160  1.0000
  C   C4        1.0  0.75769  0.78629  0.03160  1.0000
  C   C5        1.0  0.02860  0.24231  0.03160  1.0000
  C   C6        1.0  0.21371  0.97140  0.03160  1.0000
  C   C7        1.0  0.88038  0.57564  0.86493  1.0000
  C   C8        1.0  0.42436  0.30473  0.86493  1.0000
  C   C9        1.0  0.69527  0.11962  0.86493  1.0000
  C   C10       1.0  0.42436  0.11962  0.36493  1.0000
  C   C11       1.0  0.69527  0.57564  0.36493  1.0000
  C   C12       1.0  0.88038  0.30473  0.36493  1.0000
  C   C13       1.0  0.54704  0.90898  0.19827  1.0000
  C   C14       1.0  0.09102  0.63807  0.19827  1.0000
  C   C15       1.0  0.36193  0.45296  0.19827  1.0000
  C   C16       1.0  0.09102  0.45296  0.69827  1.0000
  C   C17       1.0  0.36193  0.90898  0.69827  1.0000
  C   C18       1.0  0.54704  0.63807  0.69827  1.0000
  C   C19       1.0  0.30977  0.44086  0.56242  1.0000
  C   C20       1.0  0.55914  0.86891  0.56242  1.0000
  C   C21       1.0  0.13109  0.69023  0.56242  1.0000
  C   C22       1.0  0.55914  0.69023  0.06242  1.0000
  C   C23       1.0  0.13109  0.44086  0.06242  1.0000
  C   C24       1.0  0.30977  0.86891  0.06242  1.0000
  C   C25       1.0  0.97644  0.77419  0.89575  1.0000
  C   C26       1.0  0.22581  0.20224  0.89575  1.0000
  C   C27       1.0  0.79776  0.02356  0.89575  1.0000
  C   C28       1.0  0.22581  0.02356  0.39575  1.0000
  C   C29       1.0  0.79776  0.77419  0.39575  1.0000
  C   C30       1.0  0.97644  0.20224  0.39575  1.0000
  C   C31       1.0  0.64310  0.10753  0.22909  1.0000
  C   C32       1.0  0.89247  0.53558  0.22909  1.0000
  C   C33       1.0  0.46442  0.35690  0.22909  1.0000
  C   C34       1.0  0.89247  0.35690  0.72909  1.0000
  C   C35       1.0  0.46442  0.10753  0.72909  1.0000
  C   C36       1.0  0.64310  0.53558  0.72909  1.0000
