data_image0
_chemical_formula_structural       Co6N54C36
_chemical_formula_sum              "Co6 N54 C36"
_cell_length_a       12.6783
_cell_length_b       12.6783
_cell_length_c       21.585
_cell_angle_alpha    90
_cell_angle_beta     90
_cell_angle_gamma    120

_space_group_name_H-M_alt    "P 1"
_space_group_IT_number       1

loop_
  _space_group_symop_operation_xyz
  'x, y, z'

loop_
  _atom_site_type_symbol
  _atom_site_label
  _atom_site_symmetry_multiplicity
  _atom_site_fract_x
  _atom_site_fract_y
  _atom_site_fract_z
  _atom_site_occupancy
  Co  Co1       1.0  0.33333  0.66667  0.64219  1.0000
  Co  Co2       1.0  0.33333  0.66667  0.14219  1.0000
  Co  Co3       1.0  1.00000  0.00000  0.97552  1.0000
  Co  Co4       1.0  1.00000  0.00000  0.47552  1.0000
  Co  Co5       1.0  0.66666  0.33334  0.30886  1.0000
  Co  Co6       1.0  0.66666  0.33334  0.80886  1.0000
  N   N1        1.0  0.13669  0.14341  0.52925  1.0000
  N   N2        1.0  0.85659  0.99328  0.52925  1.0000
  N   N3        1.0  0.00672  0.86331  0.52925  1.0000
  N   N4        1.0  0.85659  0.86331  0.02925  1.0000
  N   N5        1.0  0.00672  0.14341  0.02925  1.0000
  N   N6        1.0  0.13669  0.99328  0.02925  1.0000
  N   N7        1.0  0.80336  0.47674  0.86258  1.0000
  N   N8        1.0  0.52326  0.32661  0.86258  1.0000
  N   N9        1.0  0.67339  0.19664  0.86258  1.0000
  N   N10       1.0  0.52326  0.19664  0.36258  1.0000
  N   N11       1.0  0.67339  0.47674  0.36258  1.0000
  N   N12       1.0  0.80336  0.32661  0.36258  1.0000
  N   N13       1.0  0.47002  0.81008  0.19592  1.0000
  N   N14       1.0  0.18992  0.65995  0.19592  1.0000
  N   N15       1.0  0.34005  0.52998  0.19592  1.0000
  N   N16       1.0  0.18992  0.52998  0.69592  1.0000
  N   N17       1.0  0.34005  0.81008  0.69592  1.0000
  N   N18       1.0  0.47002  0.65995  0.69592  1.0000
  N   N19       1.0  0.31372  0.35103  0.53187  1.0000
  N   N20       1.0  0.64897  0.96269  0.53187  1.0000
  N   N21       1.0  0.03731  0.68628  0.53187  1.0000
  N   N22       1.0  0.64897  0.68628  0.03187  1.0000
  N   N23       1.0  0.03731  0.35103  0.03187  1.0000
  N   N24       1.0  0.31372  0.96269  0.03187  1.0000
  N   N25       1.0  0.98039  0.68436  0.86520  1.0000
  N   N26       1.0  0.31564  0.29602  0.86520  1.0000
  N   N27       1.0  0.70398  0.01961  0.86520  1.0000
  N   N28       1.0  0.31564  0.01961  0.36520  1.0000
  N   N29       1.0  0.70398  0.68436  0.36520  1.0000
  N   N30       1.0  0.98039  0.29602  0.36520  1.0000
  N   N31       1.0  0.64705  0.01770  0.19854  1.0000
  N   N32       1.0  0.98230  0.62936  0.19854  1.0000
  N   N33       1.0  0.37064  0.35295  0.19854  1.0000
  N   N34       1.0  0.98230  0.35295  0.69854  1.0000
  N   N35       1.0  0.37064  0.01770  0.69854  1.0000
  N   N36       1.0  0.64705  0.62936  0.69854  1.0000
  N   N37       1.0  0.32189  0.52520  0.58616  1.0000
  N   N38       1.0  0.47480  0.79669  0.58616  1.0000
  N   N39       1.0  0.20331  0.67811  0.58616  1.0000
  N   N40       1.0  0.47480  0.67811  0.08616  1.0000
  N   N41       1.0  0.20331  0.52520  0.08616  1.0000
  N   N42       1.0  0.32189  0.79669  0.08616  1.0000
  N   N43       1.0  0.98856  0.85853  0.91949  1.0000
  N   N44       1.0  0.14147  0.13002  0.91949  1.0000
  N   N45       1.0  0.86998  0.01144  0.91949  1.0000
  N   N46       1.0  0.14147  0.01144  0.41949  1.0000
  N   N47       1.0  0.86998  0.85853  0.41949  1.0000
  N   N48       1.0  0.98856  0.13002  0.41949  1.0000
  N   N49       1.0  0.65522  0.19187  0.25283  1.0000
  N   N50       1.0  0.80813  0.46336  0.25283  1.0000
  N   N51       1.0  0.53664  0.34478  0.25283  1.0000
  N   N52       1.0  0.80813  0.34478  0.75283  1.0000
  N   N53       1.0  0.53664  0.19187  0.75283  1.0000
  N   N54       1.0  0.65522  0.46336  0.75283  1.0000
  C   C1        1.0  0.21641  0.24250  0.53193  1.0000
  C   C2        1.0  0.75750  0.97391  0.53193  1.0000
  C   C3        1.0  0.02609  0.78359  0.53193  1.0000
  C   C4        1.0  0.75750  0.78359  0.03193  1.0000
  C   C5        1.0  0.02609  0.24250  0.03193  1.0000
  C   C6        1.0  0.21641  0.97391  0.03193  1.0000
  C   C7        1.0  0.88308  0.57583  0.86526  1.0000
  C   C8        1.0  0.42417  0.30724  0.86526  1.0000
  C   C9        1.0  0.69276  0.11692  0.86526  1.0000
  C   C10       1.0  0.42417  0.11692  0.36526  1.0000
  C   C11       1.0  0.69276  0.57583  0.36526  1.0000
  C   C12       1.0  0.88308  0.30724  0.36526  1.0000
  C   C13       1.0  0.54974  0.90917  0.19860  1.0000
  C   C14       1.0  0.09083  0.64058  0.19860  1.0000
  C   C15       1.0  0.35942  0.45026  0.19860  1.0000
  C   C16       1.0  0.09083  0.45026  0.69860  1.0000
  C   C17       1.0  0.35942  0.90917  0.69860  1.0000
  C   C18       1.0  0.54974  0.64058  0.69860  1.0000
  C   C19       1.0  0.31187  0.44013  0.56184  1.0000
  C   C20       1.0  0.55987  0.87174  0.56184  1.0000
  C   C21       1.0  0.12826  0.68813  0.56184  1.0000
  C   C22       1.0  0.55987  0.68813  0.06184  1.0000
  C   C23       1.0  0.12826  0.44013  0.06184  1.0000
  C   C24       1.0  0.31187  0.87174  0.06184  1.0000
  C   C25       1.0  0.97854  0.77346  0.89517  1.0000
  C   C26       1.0  0.22654  0.20507  0.89517  1.0000
  C   C27       1.0  0.79493  0.02146  0.89517  1.0000
  C   C28       1.0  0.22654  0.02146  0.39517  1.0000
  C   C29       1.0  0.79493  0.77346  0.39517  1.0000
  C   C30       1.0  0.97854  0.20507  0.39517  1.0000
  C   C31       1.0  0.64520  0.10680  0.22851  1.0000
  C   C32       1.0  0.89320  0.53841  0.22851  1.0000
  C   C33       1.0  0.46159  0.35480  0.22851  1.0000
  C   C34       1.0  0.89320  0.35480  0.72851  1.0000
  C   C35       1.0  0.46159  0.10680  0.72851  1.0000
  C   C36       1.0  0.64520  0.53841  0.72851  1.0000
