data_image0
_chemical_formula_structural       Mn6N54C36
_chemical_formula_sum              "Mn6 N54 C36"
_cell_length_a       12.8301
_cell_length_b       12.8301
_cell_length_c       21.75
_cell_angle_alpha    90
_cell_angle_beta     90
_cell_angle_gamma    120

_space_group_name_H-M_alt    "P 1"
_space_group_IT_number       1

loop_
  _space_group_symop_operation_xyz
  'x, y, z'

loop_
  _atom_site_type_symbol
  _atom_site_label
  _atom_site_symmetry_multiplicity
  _atom_site_fract_x
  _atom_site_fract_y
  _atom_site_fract_z
  _atom_site_occupancy
  Mn  Mn1       1.0  0.33333  0.66667  0.64252  1.0000
  Mn  Mn2       1.0  0.33333  0.66667  0.14252  1.0000
  Mn  Mn3       1.0  1.00000  0.00000  0.97585  1.0000
  Mn  Mn4       1.0  1.00000  0.00000  0.47585  1.0000
  Mn  Mn5       1.0  0.66666  0.33334  0.30919  1.0000
  Mn  Mn6       1.0  0.66666  0.33334  0.80919  1.0000
  N   N1        1.0  0.85530  0.85460  0.53183  1.0000
  N   N2        1.0  0.14540  0.00070  0.53183  1.0000
  N   N3        1.0  0.99930  0.14470  0.53183  1.0000
  N   N4        1.0  0.14540  0.14470  0.03183  1.0000
  N   N5        1.0  0.99930  0.85460  0.03183  1.0000
  N   N6        1.0  0.85530  0.00070  0.03183  1.0000
  N   N7        1.0  0.52197  0.18793  0.86516  1.0000
  N   N8        1.0  0.81207  0.33403  0.86516  1.0000
  N   N9        1.0  0.66597  0.47803  0.86516  1.0000
  N   N10       1.0  0.81207  0.47803  0.36516  1.0000
  N   N11       1.0  0.66597  0.18793  0.36516  1.0000
  N   N12       1.0  0.52197  0.33403  0.36516  1.0000
  N   N13       1.0  0.18863  0.52127  0.19850  1.0000
  N   N14       1.0  0.47873  0.66737  0.19850  1.0000
  N   N15       1.0  0.33263  0.81137  0.19850  1.0000
  N   N16       1.0  0.47873  0.81137  0.69850  1.0000
  N   N17       1.0  0.33263  0.52127  0.69850  1.0000
  N   N18       1.0  0.18863  0.66737  0.69850  1.0000
  N   N19       1.0  0.64960  0.68320  0.52921  1.0000
  N   N20       1.0  0.31680  0.96640  0.52921  1.0000
  N   N21       1.0  0.03360  0.35040  0.52921  1.0000
  N   N22       1.0  0.31680  0.35040  0.02921  1.0000
  N   N23       1.0  0.03360  0.68320  0.02921  1.0000
  N   N24       1.0  0.64960  0.96640  0.02921  1.0000
  N   N25       1.0  0.31627  0.01653  0.86254  1.0000
  N   N26       1.0  0.98347  0.29973  0.86254  1.0000
  N   N27       1.0  0.70027  0.68373  0.86254  1.0000
  N   N28       1.0  0.98347  0.68373  0.36254  1.0000
  N   N29       1.0  0.70027  0.01653  0.36254  1.0000
  N   N30       1.0  0.31627  0.29973  0.36254  1.0000
  N   N31       1.0  0.98293  0.34987  0.19588  1.0000
  N   N32       1.0  0.65013  0.63307  0.19588  1.0000
  N   N33       1.0  0.36693  0.01707  0.19588  1.0000
  N   N34       1.0  0.65013  0.01707  0.69588  1.0000
  N   N35       1.0  0.36693  0.34987  0.69588  1.0000
  N   N36       1.0  0.98293  0.63307  0.69588  1.0000
  N   N37       1.0  0.47620  0.67430  0.58290  1.0000
  N   N38       1.0  0.32570  0.80190  0.58290  1.0000
  N   N39       1.0  0.19810  0.52380  0.58290  1.0000
  N   N40       1.0  0.32570  0.52380  0.08290  1.0000
  N   N41       1.0  0.19810  0.67430  0.08290  1.0000
  N   N42       1.0  0.47620  0.80190  0.08290  1.0000
  N   N43       1.0  0.14287  0.00763  0.91623  1.0000
  N   N44       1.0  0.99237  0.13523  0.91623  1.0000
  N   N45       1.0  0.86477  0.85713  0.91623  1.0000
  N   N46       1.0  0.99237  0.85713  0.41623  1.0000
  N   N47       1.0  0.86477  0.00763  0.41623  1.0000
  N   N48       1.0  0.14287  0.13523  0.41623  1.0000
  N   N49       1.0  0.80953  0.34097  0.24957  1.0000
  N   N50       1.0  0.65903  0.46857  0.24957  1.0000
  N   N51       1.0  0.53143  0.19047  0.24957  1.0000
  N   N52       1.0  0.65903  0.19047  0.74957  1.0000
  N   N53       1.0  0.53143  0.34097  0.74957  1.0000
  N   N54       1.0  0.80953  0.46857  0.74957  1.0000
  C   C1        1.0  0.75650  0.77750  0.53170  1.0000
  C   C2        1.0  0.22250  0.97900  0.53170  1.0000
  C   C3        1.0  0.02100  0.24350  0.53170  1.0000
  C   C4        1.0  0.22250  0.24350  0.03170  1.0000
  C   C5        1.0  0.02100  0.77750  0.03170  1.0000
  C   C6        1.0  0.75650  0.97900  0.03170  1.0000
  C   C7        1.0  0.42317  0.11083  0.86503  1.0000
  C   C8        1.0  0.88917  0.31233  0.86503  1.0000
  C   C9        1.0  0.68767  0.57683  0.86503  1.0000
  C   C10       1.0  0.88917  0.57683  0.36503  1.0000
  C   C11       1.0  0.68767  0.11083  0.36503  1.0000
  C   C12       1.0  0.42317  0.31233  0.36503  1.0000
  C   C13       1.0  0.08983  0.44417  0.19837  1.0000
  C   C14       1.0  0.55583  0.64567  0.19837  1.0000
  C   C15       1.0  0.35433  0.91017  0.19837  1.0000
  C   C16       1.0  0.55583  0.91017  0.69837  1.0000
  C   C17       1.0  0.35433  0.44417  0.69837  1.0000
  C   C18       1.0  0.08983  0.64567  0.69837  1.0000
  C   C19       1.0  0.56080  0.68420  0.55890  1.0000
  C   C20       1.0  0.31580  0.87660  0.55890  1.0000
  C   C21       1.0  0.12340  0.43920  0.55890  1.0000
  C   C22       1.0  0.31580  0.43920  0.05890  1.0000
  C   C23       1.0  0.12340  0.68420  0.05890  1.0000
  C   C24       1.0  0.56080  0.87660  0.05890  1.0000
  C   C25       1.0  0.22747  0.01753  0.89223  1.0000
  C   C26       1.0  0.98247  0.20993  0.89223  1.0000
  C   C27       1.0  0.79007  0.77253  0.89223  1.0000
  C   C28       1.0  0.98247  0.77253  0.39223  1.0000
  C   C29       1.0  0.79007  0.01753  0.39223  1.0000
  C   C30       1.0  0.22747  0.20993  0.39223  1.0000
  C   C31       1.0  0.89413  0.35087  0.22557  1.0000
  C   C32       1.0  0.64913  0.54327  0.22557  1.0000
  C   C33       1.0  0.45673  0.10587  0.22557  1.0000
  C   C34       1.0  0.64913  0.10587  0.72557  1.0000
  C   C35       1.0  0.45673  0.35087  0.72557  1.0000
  C   C36       1.0  0.89413  0.54327  0.72557  1.0000
