data_image0
_chemical_formula_structural       U4O16N4H4N12H4O4N8H4O12C8H4C4H4C8H4C4H4C8H8C4H8C4H8C12H8C4H8C4H4C4H8C4H8C4H4C8H8C4H8C4H8C4H8C4H8C4H8C4H8C4H8
_chemical_formula_sum              "U4 O32 N24 H156 C108"
_cell_length_a       9.8208
_cell_length_b       16.9768
_cell_length_c       19.775
_cell_angle_alpha    90
_cell_angle_beta     98.717
_cell_angle_gamma    90

_space_group_name_H-M_alt    "P 1"
_space_group_IT_number       1

loop_
  _space_group_symop_operation_xyz
  'x, y, z'

loop_
  _atom_site_type_symbol
  _atom_site_label
  _atom_site_symmetry_multiplicity
  _atom_site_fract_x
  _atom_site_fract_y
  _atom_site_fract_z
  _atom_site_occupancy
  U   U1        1.0  0.77229  0.59436  0.00431  1.0000
  U   U2        1.0  0.72771  0.09436  0.49569  1.0000
  U   U3        1.0  0.22771  0.40564  0.99569  1.0000
  U   U4        1.0  0.27229  0.90564  0.50431  1.0000
  O   O1        1.0  0.89180  0.47930  0.04330  1.0000
  O   O2        1.0  0.60820  0.97930  0.45670  1.0000
  O   O3        1.0  0.10820  0.52070  0.95670  1.0000
  O   O4        1.0  0.39180  0.02070  0.54330  1.0000
  O   O5        1.0  0.08960  0.42350  0.08240  1.0000
  O   O6        1.0  0.41040  0.92350  0.41760  1.0000
  O   O7        1.0  0.91040  0.57650  0.91760  1.0000
  O   O8        1.0  0.58960  0.07650  0.58240  1.0000
  O   O9        1.0  0.71690  0.70850  0.94130  1.0000
  O   O10       1.0  0.78310  0.20850  0.55870  1.0000
  O   O11       1.0  0.28310  0.29150  0.05870  1.0000
  O   O12       1.0  0.21690  0.79150  0.44130  1.0000
  O   O13       1.0  0.90110  0.64990  0.05520  1.0000
  O   O14       1.0  0.59890  0.14990  0.44480  1.0000
  O   O15       1.0  0.09890  0.35010  0.94480  1.0000
  O   O16       1.0  0.40110  0.85010  0.55520  1.0000
  N   N1        1.0  0.40960  0.67080  0.56030  1.0000
  N   N2        1.0  0.09040  0.17080  0.93970  1.0000
  N   N3        1.0  0.59040  0.32920  0.43970  1.0000
  N   N4        1.0  0.90960  0.82920  0.06030  1.0000
  H   H1        1.0  0.36722  0.71420  0.54870  1.0000
  H   H2        1.0  0.13278  0.21420  0.95130  1.0000
  H   H3        1.0  0.63278  0.28580  0.45130  1.0000
  H   H4        1.0  0.86722  0.78580  0.04870  1.0000
  N   N5        1.0  0.40000  0.53490  0.56020  1.0000
  N   N6        1.0  0.10000  0.03490  0.93980  1.0000
  N   N7        1.0  0.60000  0.46510  0.43980  1.0000
  N   N8        1.0  0.90000  0.96510  0.06020  1.0000
  N   N9        1.0  0.21800  0.47150  0.48400  1.0000
  N   N10       1.0  0.28200  0.97150  0.01600  1.0000
  N   N11       1.0  0.78200  0.52850  0.51600  1.0000
  N   N12       1.0  0.71800  0.02850  0.98400  1.0000
  N   N13       1.0  0.37930  0.40270  0.55530  1.0000
  N   N14       1.0  0.12070  0.90270  0.94470  1.0000
  N   N15       1.0  0.62070  0.59730  0.44470  1.0000
  N   N16       1.0  0.87930  0.09730  0.05530  1.0000
  H   H5        1.0  0.34059  0.36109  0.53651  1.0000
  H   H6        1.0  0.15941  0.86109  0.96349  1.0000
  H   H7        1.0  0.65941  0.63891  0.46349  1.0000
  H   H8        1.0  0.84059  0.13891  0.03651  1.0000
  O   O17       1.0  0.53890  0.78280  0.90720  1.0000
  O   O18       1.0  0.96110  0.28280  0.59280  1.0000
  O   O19       1.0  0.46110  0.21720  0.09280  1.0000
  O   O20       1.0  0.03890  0.71720  0.40720  1.0000
  N   N17       1.0  0.22480  0.61060  0.49380  1.0000
  N   N18       1.0  0.27520  0.11060  0.00620  1.0000
  N   N19       1.0  0.77520  0.38940  0.50620  1.0000
  N   N20       1.0  0.72480  0.88940  0.99380  1.0000
  N   N21       1.0  0.05280  0.55140  0.42150  1.0000
  N   N22       1.0  0.44720  0.05140  0.07850  1.0000
  N   N23       1.0  0.94720  0.44860  0.57850  1.0000
  N   N24       1.0  0.55280  0.94860  0.92150  1.0000
  H   H9        1.0  0.02108  0.59832  0.41372  1.0000
  H   H10       1.0  0.47892  0.09832  0.08628  1.0000
  H   H11       1.0  0.97892  0.40168  0.58628  1.0000
  H   H12       1.0  0.52108  0.90168  0.91372  1.0000
  O   O21       1.0  0.40100  0.33550  0.93980  1.0000
  O   O22       1.0  0.09900  0.83550  0.56020  1.0000
  O   O23       1.0  0.59900  0.66450  0.06020  1.0000
  O   O24       1.0  0.90100  0.16450  0.43980  1.0000
  O   O25       1.0  0.64470  0.53950  0.95320  1.0000
  O   O26       1.0  0.85530  0.03950  0.54680  1.0000
  O   O27       1.0  0.35530  0.46050  0.04680  1.0000
  O   O28       1.0  0.14470  0.96050  0.45320  1.0000
  O   O29       1.0  0.32450  0.44690  0.89550  1.0000
  O   O30       1.0  0.17550  0.94690  0.60450  1.0000
  O   O31       1.0  0.67550  0.55310  0.10450  1.0000
  O   O32       1.0  0.82450  0.05310  0.39550  1.0000
  C   C1        1.0  0.34860  0.60400  0.53930  1.0000
  C   C2        1.0  0.15140  0.10400  0.96070  1.0000
  C   C3        1.0  0.65140  0.39600  0.46070  1.0000
  C   C4        1.0  0.84860  0.89600  0.03930  1.0000
  C   C5        1.0  0.02340  0.46960  0.31530  1.0000
  C   C6        1.0  0.47660  0.96960  0.18470  1.0000
  C   C7        1.0  0.97660  0.53040  0.68470  1.0000
  C   C8        1.0  0.52340  0.03040  0.81530  1.0000
  H   H13       1.0  0.11560  0.44616  0.32372  1.0000
  H   H14       1.0  0.38440  0.94616  0.17628  1.0000
  H   H15       1.0  0.88440  0.55384  0.67628  1.0000
  H   H16       1.0  0.61560  0.05384  0.82372  1.0000
  C   C9        1.0  0.45170  0.40260  0.68140  1.0000
  C   C10       1.0  0.04830  0.90260  0.81860  1.0000
  C   C11       1.0  0.54830  0.59740  0.31860  1.0000
  C   C12       1.0  0.95170  0.09740  0.18140  1.0000
  H   H17       1.0  0.38393  0.44534  0.67840  1.0000
  H   H18       1.0  0.11607  0.94534  0.82160  1.0000
  H   H19       1.0  0.61607  0.55466  0.32160  1.0000
  H   H20       1.0  0.88393  0.05466  0.17840  1.0000
  C   C13       1.0  0.33110  0.47240  0.53290  1.0000
  C   C14       1.0  0.16890  0.97240  0.96710  1.0000
  C   C15       1.0  0.66890  0.52760  0.46710  1.0000
  C   C16       1.0  0.83110  0.02760  0.03290  1.0000
  C   C17       1.0  0.95700  0.46940  0.16430  1.0000
  C   C18       1.0  0.54300  0.96940  0.33570  1.0000
  C   C19       1.0  0.04300  0.53060  0.83570  1.0000
  C   C20       1.0  0.45700  0.03060  0.66430  1.0000
  H   H21       1.0  0.86588  0.49357  0.16244  1.0000
  H   H22       1.0  0.63412  0.99357  0.33756  1.0000
  H   H23       1.0  0.13412  0.50643  0.83756  1.0000
  H   H24       1.0  0.36588  0.00643  0.66244  1.0000
  C   C21       1.0  0.54260  0.70560  0.67460  1.0000
  C   C22       1.0  0.95740  0.20560  0.82540  1.0000
  C   C23       1.0  0.45740  0.29440  0.32540  1.0000
  C   C24       1.0  0.04260  0.79440  0.17460  1.0000
  H   H25       1.0  0.50759  0.75974  0.67086  1.0000
  H   H26       1.0  0.99241  0.25974  0.82914  1.0000
  H   H27       1.0  0.49241  0.24026  0.32914  1.0000
  H   H28       1.0  0.00759  0.74026  0.17086  1.0000
  C   C25       1.0  0.16750  0.54180  0.46700  1.0000
  C   C26       1.0  0.33250  0.04180  0.03300  1.0000
  C   C27       1.0  0.83250  0.45820  0.53300  1.0000
  C   C28       1.0  0.66750  0.95820  0.96700  1.0000
  C   C29       1.0  0.57250  0.42620  0.73470  1.0000
  C   C30       1.0  0.92750  0.92620  0.76530  1.0000
  C   C31       1.0  0.42750  0.57380  0.26530  1.0000
  C   C32       1.0  0.07250  0.07380  0.23470  1.0000
  H   H29       1.0  0.64159  0.38494  0.73880  1.0000
  H   H30       1.0  0.85841  0.88494  0.76120  1.0000
  H   H31       1.0  0.35841  0.61506  0.26120  1.0000
  H   H32       1.0  0.14159  0.11506  0.23880  1.0000
  H   H33       1.0  0.61393  0.47390  0.71998  1.0000
  H   H34       1.0  0.88607  0.97390  0.78002  1.0000
  H   H35       1.0  0.38607  0.52610  0.28002  1.0000
  H   H36       1.0  0.11393  0.02610  0.21998  1.0000
  C   C33       1.0  0.45220  0.65920  0.71440  1.0000
  C   C34       1.0  0.04780  0.15920  0.78560  1.0000
  C   C35       1.0  0.54780  0.34080  0.28560  1.0000
  C   C36       1.0  0.95220  0.84080  0.21440  1.0000
  H   H37       1.0  0.48045  0.60445  0.71575  1.0000
  H   H38       1.0  0.01955  0.10445  0.78425  1.0000
  H   H39       1.0  0.51955  0.39555  0.28425  1.0000
  H   H40       1.0  0.98045  0.89555  0.21575  1.0000
  H   H41       1.0  0.35783  0.66196  0.69139  1.0000
  H   H42       1.0  0.14217  0.16196  0.80861  1.0000
  H   H43       1.0  0.64217  0.33804  0.30861  1.0000
  H   H44       1.0  0.85783  0.83804  0.19139  1.0000
  C   C37       1.0  0.49460  0.39340  0.61030  1.0000
  C   C38       1.0  0.00540  0.89340  0.88970  1.0000
  C   C39       1.0  0.50540  0.60660  0.38970  1.0000
  C   C40       1.0  0.99460  0.10660  0.11030  1.0000
  H   H45       1.0  0.56443  0.43241  0.60490  1.0000
  H   H46       1.0  0.93557  0.93241  0.89510  1.0000
  H   H47       1.0  0.43557  0.56759  0.39510  1.0000
  H   H48       1.0  0.06443  0.06759  0.10490  1.0000
  H   H49       1.0  0.53508  0.34172  0.60689  1.0000
  H   H50       1.0  0.96492  0.84172  0.89311  1.0000
  H   H51       1.0  0.46492  0.65828  0.39311  1.0000
  H   H52       1.0  0.03508  0.15828  0.10689  1.0000
  C   C41       1.0  0.98060  0.45650  0.09150  1.0000
  C   C42       1.0  0.51940  0.95650  0.40850  1.0000
  C   C43       1.0  0.01940  0.54350  0.90850  1.0000
  C   C44       1.0  0.48060  0.04350  0.59150  1.0000
  C   C45       1.0  0.39410  0.38430  0.89250  1.0000
  C   C46       1.0  0.10590  0.88430  0.60750  1.0000
  C   C47       1.0  0.60590  0.61570  0.10750  1.0000
  C   C48       1.0  0.89410  0.11570  0.39250  1.0000
  C   C49       1.0  0.54540  0.67500  0.60230  1.0000
  C   C50       1.0  0.95460  0.17500  0.89770  1.0000
  C   C51       1.0  0.45460  0.32500  0.39770  1.0000
  C   C52       1.0  0.04540  0.82500  0.10230  1.0000
  H   H53       1.0  0.60397  0.70904  0.57987  1.0000
  H   H54       1.0  0.89603  0.20904  0.92013  1.0000
  H   H55       1.0  0.39603  0.29096  0.42013  1.0000
  H   H56       1.0  0.10397  0.79096  0.07987  1.0000
  H   H57       1.0  0.58609  0.62279  0.60522  1.0000
  H   H58       1.0  0.91391  0.12279  0.89478  1.0000
  H   H59       1.0  0.41391  0.37721  0.39478  1.0000
  H   H60       1.0  0.08609  0.87721  0.10522  1.0000
  C   C53       1.0  0.68920  0.70840  0.71180  1.0000
  C   C54       1.0  0.81080  0.20840  0.78820  1.0000
  C   C55       1.0  0.31080  0.29160  0.28820  1.0000
  C   C56       1.0  0.18920  0.79160  0.21180  1.0000
  H   H61       1.0  0.74332  0.74281  0.68715  1.0000
  H   H62       1.0  0.75668  0.24281  0.81285  1.0000
  H   H63       1.0  0.25668  0.25719  0.31285  1.0000
  H   H64       1.0  0.24332  0.75719  0.18715  1.0000
  H   H65       1.0  0.72891  0.65604  0.71233  1.0000
  H   H66       1.0  0.77109  0.15604  0.78767  1.0000
  H   H67       1.0  0.27109  0.34396  0.28767  1.0000
  H   H68       1.0  0.22891  0.84396  0.21233  1.0000
  C   C57       1.0  0.60470  0.69170  0.82580  1.0000
  C   C58       1.0  0.89530  0.19170  0.67420  1.0000
  C   C59       1.0  0.39530  0.30830  0.17420  1.0000
  C   C60       1.0  0.10470  0.80830  0.32580  1.0000
  H   H69       1.0  0.63921  0.63760  0.83129  1.0000
  H   H70       1.0  0.86079  0.13760  0.66871  1.0000
  H   H71       1.0  0.36079  0.36240  0.16871  1.0000
  H   H72       1.0  0.13921  0.86240  0.33129  1.0000
  C   C61       1.0  0.69700  0.73800  0.78550  1.0000
  C   C62       1.0  0.80300  0.23800  0.71450  1.0000
  C   C63       1.0  0.30300  0.26200  0.21450  1.0000
  C   C64       1.0  0.19700  0.76200  0.28550  1.0000
  H   H73       1.0  0.79147  0.73414  0.80826  1.0000
  H   H74       1.0  0.70853  0.23414  0.69174  1.0000
  H   H75       1.0  0.20853  0.26586  0.19174  1.0000
  H   H76       1.0  0.29147  0.76586  0.30826  1.0000
  H   H77       1.0  0.67060  0.79304  0.78473  1.0000
  H   H78       1.0  0.82940  0.29304  0.71527  1.0000
  H   H79       1.0  0.32940  0.20696  0.21527  1.0000
  H   H80       1.0  0.17060  0.70696  0.28473  1.0000
  C   C65       1.0  0.95600  0.39480  0.20450  1.0000
  C   C66       1.0  0.54400  0.89480  0.29550  1.0000
  C   C67       1.0  0.04400  0.60520  0.79550  1.0000
  C   C68       1.0  0.45600  0.10520  0.70450  1.0000
  H   H81       1.0  0.04464  0.36886  0.20670  1.0000
  H   H82       1.0  0.45536  0.86886  0.29330  1.0000
  H   H83       1.0  0.95536  0.63114  0.79330  1.0000
  H   H84       1.0  0.54464  0.13114  0.70670  1.0000
  H   H85       1.0  0.88621  0.35966  0.18126  1.0000
  H   H86       1.0  0.61379  0.85966  0.31874  1.0000
  H   H87       1.0  0.11379  0.64034  0.81874  1.0000
  H   H88       1.0  0.38621  0.14034  0.68126  1.0000
  C   C69       1.0  0.45530  0.36710  0.82790  1.0000
  C   C70       1.0  0.04470  0.86710  0.67210  1.0000
  C   C71       1.0  0.54470  0.63290  0.17210  1.0000
  C   C72       1.0  0.95530  0.13290  0.32790  1.0000
  H   H89       1.0  0.52234  0.32417  0.83710  1.0000
  H   H90       1.0  0.97766  0.82417  0.66290  1.0000
  H   H91       1.0  0.47766  0.67583  0.16290  1.0000
  H   H92       1.0  0.02234  0.17583  0.33710  1.0000
  C   C73       1.0  0.61610  0.72970  0.89620  1.0000
  C   C74       1.0  0.88390  0.22970  0.60380  1.0000
  C   C75       1.0  0.38390  0.27030  0.10380  1.0000
  C   C76       1.0  0.11610  0.77030  0.39620  1.0000
  C   C77       1.0  0.97900  0.48600  0.38450  1.0000
  C   C78       1.0  0.52100  0.98600  0.11550  1.0000
  C   C79       1.0  0.02100  0.51400  0.61550  1.0000
  C   C80       1.0  0.47900  0.01400  0.88450  1.0000
  H   H93       1.0  0.88117  0.49748  0.37757  1.0000
  H   H94       1.0  0.61883  0.99748  0.12243  1.0000
  H   H95       1.0  0.11883  0.50252  0.62243  1.0000
  H   H96       1.0  0.38117  0.00252  0.87757  1.0000
  H   H97       1.0  0.99366  0.43887  0.41238  1.0000
  H   H98       1.0  0.50634  0.93887  0.08762  1.0000
  H   H99       1.0  0.00634  0.56113  0.58762  1.0000
  H   H100      1.0  0.49366  0.06113  0.91238  1.0000
  C   C81       1.0  0.52780  0.44020  0.80370  1.0000
  C   C82       1.0  0.97220  0.94020  0.69630  1.0000
  C   C83       1.0  0.47220  0.55980  0.19630  1.0000
  C   C84       1.0  0.02780  0.05980  0.30370  1.0000
  H   H101      1.0  0.46543  0.48477  0.80058  1.0000
  H   H102      1.0  0.03457  0.98477  0.69942  1.0000
  H   H103      1.0  0.53457  0.51523  0.19942  1.0000
  H   H104      1.0  0.96543  0.01523  0.30058  1.0000
  H   H105      1.0  0.60777  0.45279  0.83704  1.0000
  H   H106      1.0  0.89223  0.95279  0.66296  1.0000
  H   H107      1.0  0.39223  0.54721  0.16296  1.0000
  H   H108      1.0  0.10777  0.04721  0.33704  1.0000
  C   C85       1.0  0.45870  0.68980  0.78790  1.0000
  C   C86       1.0  0.04130  0.18980  0.71210  1.0000
  C   C87       1.0  0.54130  0.31020  0.21210  1.0000
  C   C88       1.0  0.95870  0.81020  0.28790  1.0000
  H   H109      1.0  0.42017  0.74248  0.78666  1.0000
  H   H110      1.0  0.07983  0.24248  0.71334  1.0000
  H   H111      1.0  0.57983  0.25752  0.21334  1.0000
  H   H112      1.0  0.92017  0.75752  0.28666  1.0000
  H   H113      1.0  0.40297  0.65619  0.81239  1.0000
  H   H114      1.0  0.09703  0.15619  0.68761  1.0000
  H   H115      1.0  0.59703  0.34381  0.18761  1.0000
  H   H116      1.0  0.90297  0.84381  0.31239  1.0000
  C   C89       1.0  0.38360  0.32950  0.70360  1.0000
  C   C90       1.0  0.11640  0.82950  0.79640  1.0000
  C   C91       1.0  0.61640  0.67050  0.29640  1.0000
  C   C92       1.0  0.88360  0.17050  0.20360  1.0000
  H   H117      1.0  0.44742  0.28562  0.70559  1.0000
  H   H118      1.0  0.05258  0.78562  0.79441  1.0000
  H   H119      1.0  0.55258  0.71438  0.29441  1.0000
  H   H120      1.0  0.94742  0.21438  0.20559  1.0000
  H   H121      1.0  0.30373  0.31688  0.67023  1.0000
  H   H122      1.0  0.19627  0.81688  0.82977  1.0000
  H   H123      1.0  0.69627  0.68312  0.32977  1.0000
  H   H124      1.0  0.80373  0.18312  0.17023  1.0000
  C   C93       1.0  0.03160  0.54300  0.27390  1.0000
  C   C94       1.0  0.46840  0.04300  0.22610  1.0000
  C   C95       1.0  0.96840  0.45700  0.72610  1.0000
  C   C96       1.0  0.53160  0.95700  0.77390  1.0000
  H   H125      1.0  0.10426  0.57647  0.29693  1.0000
  H   H126      1.0  0.39574  0.07647  0.20307  1.0000
  H   H127      1.0  0.89574  0.42353  0.70307  1.0000
  H   H128      1.0  0.60426  0.92353  0.79693  1.0000
  H   H129      1.0  0.94543  0.57159  0.27125  1.0000
  H   H130      1.0  0.55457  0.07159  0.22875  1.0000
  H   H131      1.0  0.05457  0.42841  0.72875  1.0000
  H   H132      1.0  0.44543  0.92841  0.77125  1.0000
  C   C97       1.0  0.05990  0.52570  0.20150  1.0000
  C   C98       1.0  0.44010  0.02570  0.29850  1.0000
  C   C99       1.0  0.94010  0.47430  0.79850  1.0000
  C   C100      1.0  0.55990  0.97430  0.70150  1.0000
  H   H133      1.0  0.05737  0.57464  0.17600  1.0000
  H   H134      1.0  0.44263  0.07464  0.32400  1.0000
  H   H135      1.0  0.94263  0.42536  0.82400  1.0000
  H   H136      1.0  0.55737  0.92536  0.67600  1.0000
  H   H137      1.0  0.15161  0.50361  0.20386  1.0000
  H   H138      1.0  0.34839  0.00361  0.29614  1.0000
  H   H139      1.0  0.84839  0.49639  0.79614  1.0000
  H   H140      1.0  0.65161  0.99639  0.70386  1.0000
  C   C101      1.0  0.33880  0.34060  0.77400  1.0000
  C   C102      1.0  0.16120  0.84060  0.72600  1.0000
  C   C103      1.0  0.66120  0.65940  0.22600  1.0000
  C   C104      1.0  0.83880  0.15940  0.27400  1.0000
  H   H141      1.0  0.26550  0.37941  0.77024  1.0000
  H   H142      1.0  0.23450  0.87941  0.72976  1.0000
  H   H143      1.0  0.73450  0.62059  0.22976  1.0000
  H   H144      1.0  0.76550  0.12059  0.27024  1.0000
  H   H145      1.0  0.30223  0.29125  0.78821  1.0000
  H   H146      1.0  0.19777  0.79125  0.71179  1.0000
  H   H147      1.0  0.69777  0.70875  0.21179  1.0000
  H   H148      1.0  0.80223  0.20875  0.28821  1.0000
  C   C105      1.0  0.92700  0.41000  0.27670  1.0000
  C   C106      1.0  0.57300  0.91000  0.22330  1.0000
  C   C107      1.0  0.07300  0.59000  0.72330  1.0000
  C   C108      1.0  0.42700  0.09000  0.77670  1.0000
  H   H149      1.0  0.83303  0.42864  0.27442  1.0000
  H   H150      1.0  0.66697  0.92864  0.22558  1.0000
  H   H151      1.0  0.16697  0.57136  0.72558  1.0000
  H   H152      1.0  0.33303  0.07136  0.77442  1.0000
  H   H153      1.0  0.93466  0.36076  0.30188  1.0000
  H   H154      1.0  0.56534  0.86076  0.19812  1.0000
  H   H155      1.0  0.06534  0.63924  0.69812  1.0000
  H   H156      1.0  0.43466  0.13924  0.80188  1.0000
