data_image0
_chemical_formula_structural       Cd2N18C12
_chemical_formula_sum              "Cd2 N18 C12"
_cell_length_a       8.113
_cell_length_b       14.0621
_cell_length_c       8.9405
_cell_angle_alpha    90
_cell_angle_beta     110.376
_cell_angle_gamma    90

_space_group_name_H-M_alt    "P 1"
_space_group_IT_number       1

loop_
  _space_group_symop_operation_xyz
  'x, y, z'

loop_
  _atom_site_type_symbol
  _atom_site_label
  _atom_site_symmetry_multiplicity
  _atom_site_fract_x
  _atom_site_fract_y
  _atom_site_fract_z
  _atom_site_occupancy
  Cd  Cd1       1.0  0.99675  0.48330  0.43242  1.0000
  Cd  Cd2       1.0  0.00325  0.98330  0.56758  1.0000
  N   N1        1.0  0.21890  0.57960  0.58170  1.0000
  N   N2        1.0  0.78110  0.07960  0.41830  1.0000
  N   N3        1.0  0.32270  0.72410  0.77610  1.0000
  N   N4        1.0  0.67730  0.22410  0.22390  1.0000
  N   N5        1.0  0.22240  0.88720  0.69250  1.0000
  N   N6        1.0  0.77760  0.38720  0.30750  1.0000
  N   N7        1.0  0.11480  0.38590  0.70450  1.0000
  N   N8        1.0  0.88520  0.88590  0.29550  1.0000
  N   N9        1.0  0.21390  0.24750  0.91270  1.0000
  N   N10       1.0  0.78610  0.74750  0.08730  1.0000
  N   N11       1.0  0.10680  0.08660  0.82640  1.0000
  N   N12       1.0  0.89320  0.58660  0.17360  1.0000
  N   N13       1.0  0.88420  0.57990  0.56840  1.0000
  N   N14       1.0  0.11580  0.07990  0.43160  1.0000
  N   N15       1.0  0.91890  0.71160  0.78340  1.0000
  N   N16       1.0  0.08110  0.21160  0.21660  1.0000
  N   N17       1.0  0.89930  0.88110  0.70170  1.0000
  N   N18       1.0  0.10070  0.38110  0.29830  1.0000
  C   C1        1.0  0.15550  0.31860  0.79600  1.0000
  C   C2        1.0  0.84450  0.81860  0.20400  1.0000
  C   C3        1.0  0.15320  0.16330  0.86140  1.0000
  C   C4        1.0  0.84680  0.66330  0.13860  1.0000
  C   C5        1.0  0.26020  0.65130  0.66520  1.0000
  C   C6        1.0  0.73980  0.15130  0.33480  1.0000
  C   C7        1.0  0.26400  0.80920  0.72440  1.0000
  C   C8        1.0  0.73600  0.30920  0.27560  1.0000
  C   C9        1.0  0.89660  0.64510  0.66280  1.0000
  C   C10       1.0  0.10340  0.14510  0.33720  1.0000
  C   C11       1.0  0.90840  0.80100  0.73340  1.0000
  C   C12       1.0  0.09160  0.30100  0.26660  1.0000
