data_image0
_chemical_formula_structural       Ag16O48C48N4H12N4H12
_chemical_formula_sum              "Ag16 O48 C48 N8 H24"
_cell_length_a       9.6914
_cell_length_b       17.9225
_cell_length_c       13.0999
_cell_angle_alpha    90
_cell_angle_beta     109.831
_cell_angle_gamma    90

_space_group_name_H-M_alt    "P 1"
_space_group_IT_number       1

loop_
  _space_group_symop_operation_xyz
  'x, y, z'

loop_
  _atom_site_type_symbol
  _atom_site_label
  _atom_site_symmetry_multiplicity
  _atom_site_fract_x
  _atom_site_fract_y
  _atom_site_fract_z
  _atom_site_occupancy
  Ag  Ag1       1.0  0.75784  0.43041  0.49217  1.0000
  Ag  Ag2       1.0  0.24216  0.93041  0.00783  1.0000
  Ag  Ag3       1.0  0.24216  0.56959  0.50783  1.0000
  Ag  Ag4       1.0  0.75784  0.06959  0.99217  1.0000
  Ag  Ag5       1.0  0.73641  0.06083  0.72763  1.0000
  Ag  Ag6       1.0  0.26359  0.56083  0.77237  1.0000
  Ag  Ag7       1.0  0.26359  0.93917  0.27237  1.0000
  Ag  Ag8       1.0  0.73641  0.43917  0.22763  1.0000
  Ag  Ag9       1.0  0.76916  0.06896  0.50492  1.0000
  Ag  Ag10      1.0  0.23084  0.56896  0.99508  1.0000
  Ag  Ag11      1.0  0.23084  0.93104  0.49508  1.0000
  Ag  Ag12      1.0  0.76916  0.43104  0.00492  1.0000
  Ag  Ag13      1.0  0.76429  0.06459  0.26512  1.0000
  Ag  Ag14      1.0  0.23571  0.56459  0.23488  1.0000
  Ag  Ag15      1.0  0.23571  0.93541  0.73488  1.0000
  Ag  Ag16      1.0  0.76429  0.43541  0.76512  1.0000
  O   O1        1.0  0.88360  0.32111  0.34060  1.0000
  O   O2        1.0  0.11640  0.82111  0.15940  1.0000
  O   O3        1.0  0.11640  0.67889  0.65940  1.0000
  O   O4        1.0  0.88360  0.17889  0.84060  1.0000
  O   O5        1.0  0.96870  0.37030  0.50710  1.0000
  O   O6        1.0  0.03130  0.87030  0.99290  1.0000
  O   O7        1.0  0.03130  0.62970  0.49290  1.0000
  O   O8        1.0  0.96870  0.12970  0.00710  1.0000
  O   O9        1.0  0.18710  0.44392  0.40180  1.0000
  O   O10       1.0  0.81290  0.94392  0.09820  1.0000
  O   O11       1.0  0.81290  0.55608  0.59820  1.0000
  O   O12       1.0  0.18710  0.05608  0.90180  1.0000
  O   O13       1.0  0.31880  0.44370  0.57850  1.0000
  O   O14       1.0  0.68120  0.94370  0.92150  1.0000
  O   O15       1.0  0.68120  0.55630  0.42150  1.0000
  O   O16       1.0  0.31880  0.05630  0.07850  1.0000
  O   O17       1.0  0.54340  0.37139  0.47290  1.0000
  O   O18       1.0  0.45660  0.87139  0.02710  1.0000
  O   O19       1.0  0.45660  0.62861  0.52710  1.0000
  O   O20       1.0  0.54340  0.12861  0.97290  1.0000
  O   O21       1.0  0.63220  0.32005  0.63840  1.0000
  O   O22       1.0  0.36780  0.82005  0.86160  1.0000
  O   O23       1.0  0.36780  0.67995  0.36160  1.0000
  O   O24       1.0  0.63220  0.17995  0.13840  1.0000
  O   O25       1.0  0.62410  0.16979  0.52160  1.0000
  O   O26       1.0  0.37590  0.66979  0.97840  1.0000
  O   O27       1.0  0.37590  0.83021  0.47840  1.0000
  O   O28       1.0  0.62410  0.33021  0.02160  1.0000
  O   O29       1.0  0.54500  0.12911  0.65350  1.0000
  O   O30       1.0  0.45500  0.62911  0.84650  1.0000
  O   O31       1.0  0.45500  0.87089  0.34650  1.0000
  O   O32       1.0  0.54500  0.37089  0.15350  1.0000
  O   O33       1.0  0.33370  0.05605  0.43740  1.0000
  O   O34       1.0  0.66630  0.55605  0.06260  1.0000
  O   O35       1.0  0.66630  0.94395  0.56260  1.0000
  O   O36       1.0  0.33370  0.44395  0.93740  1.0000
  O   O37       1.0  0.18450  0.05247  0.53330  1.0000
  O   O38       1.0  0.81550  0.55247  0.96670  1.0000
  O   O39       1.0  0.81550  0.94753  0.46670  1.0000
  O   O40       1.0  0.18450  0.44753  0.03330  1.0000
  O   O41       1.0  0.96510  0.12876  0.32580  1.0000
  O   O42       1.0  0.03490  0.62876  0.17420  1.0000
  O   O43       1.0  0.03490  0.87124  0.67420  1.0000
  O   O44       1.0  0.96510  0.37124  0.82580  1.0000
  O   O45       1.0  0.88890  0.17386  0.45620  1.0000
  O   O46       1.0  0.11110  0.67386  0.04380  1.0000
  O   O47       1.0  0.11110  0.82614  0.54380  1.0000
  O   O48       1.0  0.88890  0.32614  0.95620  1.0000
  C   C1        1.0  0.12330  0.28780  0.45780  1.0000
  C   C2        1.0  0.87670  0.78780  0.04220  1.0000
  C   C3        1.0  0.87670  0.71220  0.54220  1.0000
  C   C4        1.0  0.12330  0.21220  0.95780  1.0000
  C   C5        1.0  0.25680  0.32710  0.48940  1.0000
  C   C6        1.0  0.74320  0.82710  0.01060  1.0000
  C   C7        1.0  0.74320  0.67290  0.51060  1.0000
  C   C8        1.0  0.25680  0.17290  0.98940  1.0000
  C   C9        1.0  0.39160  0.28830  0.52140  1.0000
  C   C10       1.0  0.60840  0.78830  0.97860  1.0000
  C   C11       1.0  0.60840  0.71170  0.47860  1.0000
  C   C12       1.0  0.39160  0.21170  0.02140  1.0000
  C   C13       1.0  0.39110  0.21010  0.52450  1.0000
  C   C14       1.0  0.60890  0.71010  0.97550  1.0000
  C   C15       1.0  0.60890  0.78990  0.47550  1.0000
  C   C16       1.0  0.39110  0.28990  0.02450  1.0000
  C   C17       1.0  0.25690  0.17040  0.48830  1.0000
  C   C18       1.0  0.74310  0.67040  0.01170  1.0000
  C   C19       1.0  0.74310  0.82960  0.51170  1.0000
  C   C20       1.0  0.25690  0.32960  0.98830  1.0000
  C   C21       1.0  0.12390  0.21000  0.45310  1.0000
  C   C22       1.0  0.87610  0.71000  0.04690  1.0000
  C   C23       1.0  0.87610  0.79000  0.54690  1.0000
  C   C24       1.0  0.12390  0.29000  0.95310  1.0000
  C   C25       1.0  0.98040  0.33020  0.43200  1.0000
  C   C26       1.0  0.01960  0.83020  0.06800  1.0000
  C   C27       1.0  0.01960  0.66980  0.56800  1.0000
  C   C28       1.0  0.98040  0.16980  0.93200  1.0000
  C   C29       1.0  0.25490  0.41100  0.48970  1.0000
  C   C30       1.0  0.74510  0.91100  0.01030  1.0000
  C   C31       1.0  0.74510  0.58900  0.51030  1.0000
  C   C32       1.0  0.25490  0.08900  0.98970  1.0000
  C   C33       1.0  0.53410  0.33030  0.54780  1.0000
  C   C34       1.0  0.46590  0.83030  0.95220  1.0000
  C   C35       1.0  0.46590  0.66970  0.45220  1.0000
  C   C36       1.0  0.53410  0.16970  0.04780  1.0000
  C   C37       1.0  0.53230  0.16580  0.56940  1.0000
  C   C38       1.0  0.46770  0.66580  0.93060  1.0000
  C   C39       1.0  0.46770  0.83420  0.43060  1.0000
  C   C40       1.0  0.53230  0.33420  0.06940  1.0000
  C   C41       1.0  0.25870  0.08710  0.48590  1.0000
  C   C42       1.0  0.74130  0.58710  0.01410  1.0000
  C   C43       1.0  0.74130  0.91290  0.51410  1.0000
  C   C44       1.0  0.25870  0.41290  0.98590  1.0000
  C   C45       1.0  0.98070  0.16710  0.40900  1.0000
  C   C46       1.0  0.01930  0.66710  0.09100  1.0000
  C   C47       1.0  0.01930  0.83290  0.59100  1.0000
  C   C48       1.0  0.98070  0.33290  0.90900  1.0000
  N   N1        1.0  0.90060  0.97890  0.80090  1.0000
  N   N2        1.0  0.09940  0.47890  0.69910  1.0000
  N   N3        1.0  0.09940  0.02110  0.19910  1.0000
  N   N4        1.0  0.90060  0.52110  0.30090  1.0000
  H   H1        1.0  0.86840  0.94820  0.84130  1.0000
  H   H2        1.0  0.13160  0.44820  0.65870  1.0000
  H   H3        1.0  0.13160  0.05180  0.15870  1.0000
  H   H4        1.0  0.86840  0.55180  0.34130  1.0000
  H   H5        1.0  0.98210  0.00140  0.84260  1.0000
  H   H6        1.0  0.01790  0.50140  0.65740  1.0000
  H   H7        1.0  0.01790  0.99860  0.15740  1.0000
  H   H8        1.0  0.98210  0.49860  0.34260  1.0000
  H   H9        1.0  0.91970  0.95290  0.74940  1.0000
  H   H10       1.0  0.08030  0.45290  0.75060  1.0000
  H   H11       1.0  0.08030  0.04710  0.25060  1.0000
  H   H12       1.0  0.91970  0.54710  0.24940  1.0000
  N   N5        1.0  0.59720  0.98150  0.21980  1.0000
  N   N6        1.0  0.40280  0.48150  0.28020  1.0000
  N   N7        1.0  0.40280  0.01850  0.78020  1.0000
  N   N8        1.0  0.59720  0.51850  0.71980  1.0000
  H   H13       1.0  0.62500  0.94430  0.18620  1.0000
  H   H14       1.0  0.37500  0.44430  0.31380  1.0000
  H   H15       1.0  0.37500  0.05570  0.81380  1.0000
  H   H16       1.0  0.62500  0.55570  0.68620  1.0000
  H   H17       1.0  0.51450  0.00140  0.17540  1.0000
  H   H18       1.0  0.48550  0.50140  0.32460  1.0000
  H   H19       1.0  0.48550  0.99860  0.82460  1.0000
  H   H20       1.0  0.51450  0.49860  0.67540  1.0000
  H   H21       1.0  0.58240  0.96410  0.27890  1.0000
  H   H22       1.0  0.41760  0.46410  0.22110  1.0000
  H   H23       1.0  0.41760  0.03590  0.72110  1.0000
  H   H24       1.0  0.58240  0.53590  0.77890  1.0000
