data_image0
_chemical_formula_structural       Zn2S2N4H2N6H2N2O24H4C8H2C4H2C4H2C2H2C6H2C4H2C2H2C2H2C6H2C4H2C2H2
_chemical_formula_sum              "Zn2 S2 N12 H30 O24 C44"
_cell_length_a       9.4195
_cell_length_b       17.813
_cell_length_c       10.0634
_cell_angle_alpha    90
_cell_angle_beta     95.576
_cell_angle_gamma    90

_space_group_name_H-M_alt    "P 1"
_space_group_IT_number       1

loop_
  _space_group_symop_operation_xyz
  'x, y, z'

loop_
  _atom_site_type_symbol
  _atom_site_label
  _atom_site_symmetry_multiplicity
  _atom_site_fract_x
  _atom_site_fract_y
  _atom_site_fract_z
  _atom_site_occupancy
  Zn  Zn1       1.0  0.20434  0.94042  0.85577  1.0000
  Zn  Zn2       1.0  0.79566  0.44042  0.14423  1.0000
  S   S1        1.0  0.78644  0.95872  0.42876  1.0000
  S   S2        1.0  0.21356  0.45872  0.57124  1.0000
  N   N1        1.0  0.19860  0.81950  0.86350  1.0000
  N   N2        1.0  0.80140  0.31950  0.13650  1.0000
  N   N3        1.0  0.11720  0.70160  0.86010  1.0000
  N   N4        1.0  0.88280  0.20160  0.13990  1.0000
  H   H1        1.0  0.05770  0.66490  0.85940  1.0000
  H   H2        1.0  0.94230  0.16490  0.14060  1.0000
  N   N5        1.0  0.69680  0.73430  0.85280  1.0000
  N   N6        1.0  0.30320  0.23430  0.14720  1.0000
  N   N7        1.0  0.19370  0.06120  0.84240  1.0000
  N   N8        1.0  0.80630  0.56120  0.15760  1.0000
  N   N9        1.0  0.11010  0.17820  0.83130  1.0000
  N   N10       1.0  0.88990  0.67820  0.16870  1.0000
  H   H3        1.0  0.04980  0.21450  0.82940  1.0000
  H   H4        1.0  0.95020  0.71450  0.17060  1.0000
  N   N11       1.0  0.68770  0.14560  0.80020  1.0000
  N   N12       1.0  0.31230  0.64560  0.19980  1.0000
  O   O1        1.0  0.33780  0.93780  0.70990  1.0000
  O   O2        1.0  0.66220  0.43780  0.29010  1.0000
  O   O3        1.0  0.14680  0.91813  0.56830  1.0000
  O   O4        1.0  0.85320  0.41813  0.43170  1.0000
  O   O5        1.0  0.18390  0.94190  0.08020  1.0000
  O   O6        1.0  0.81610  0.44190  0.91980  1.0000
  O   O7        1.0  0.39640  0.94520  0.00710  1.0000
  O   O8        1.0  0.60360  0.44520  0.99290  1.0000
  O   O9        1.0  0.82400  0.93060  0.56040  1.0000
  O   O10       1.0  0.17600  0.43060  0.43960  1.0000
  O   O11       1.0  0.84350  0.91110  0.33150  1.0000
  O   O12       1.0  0.15650  0.41110  0.66850  1.0000
  O   O13       1.0  0.81930  0.03500  0.40390  1.0000
  O   O14       1.0  0.18070  0.53500  0.59610  1.0000
  O   O15       1.0  0.73960  0.79880  0.85360  1.0000
  O   O16       1.0  0.26040  0.29880  0.14640  1.0000
  O   O17       1.0  0.77590  0.68000  0.85310  1.0000
  O   O18       1.0  0.22410  0.18000  0.14690  1.0000
  O   O19       1.0  0.73140  0.08260  0.80090  1.0000
  O   O20       1.0  0.26860  0.58260  0.19910  1.0000
  O   O21       1.0  0.76550  0.20060  0.79350  1.0000
  O   O22       1.0  0.23450  0.70060  0.20650  1.0000
  O   O23       1.0  0.98200  0.93830  0.81140  1.0000
  O   O24       1.0  0.01800  0.43830  0.18860  1.0000
  H   H5        1.0  0.93650  0.93570  0.73440  1.0000
  H   H6        1.0  0.06350  0.43570  0.26560  1.0000
  H   H7        1.0  0.92060  0.96640  0.84300  1.0000
  H   H8        1.0  0.07940  0.46640  0.15700  1.0000
  C   C1        1.0  0.27590  0.92870  0.59420  1.0000
  C   C2        1.0  0.72410  0.42870  0.40580  1.0000
  C   C3        1.0  0.31890  0.94290  0.10050  1.0000
  C   C4        1.0  0.68110  0.44290  0.89950  1.0000
  C   C5        1.0  0.36880  0.93450  0.47900  1.0000
  C   C6        1.0  0.63120  0.43450  0.52100  1.0000
  C   C7        1.0  0.30530  0.93370  0.34940  1.0000
  C   C8        1.0  0.69470  0.43370  0.65060  1.0000
  H   H9        1.0  0.20700  0.92800  0.33300  1.0000
  H   H10       1.0  0.79300  0.42800  0.66700  1.0000
  C   C9        1.0  0.38860  0.94130  0.24300  1.0000
  C   C10       1.0  0.61140  0.44130  0.75700  1.0000
  C   C11       1.0  0.53560  0.94830  0.26680  1.0000
  C   C12       1.0  0.46440  0.44830  0.73320  1.0000
  H   H11       1.0  0.59160  0.95260  0.19600  1.0000
  H   H12       1.0  0.40840  0.45260  0.80400  1.0000
  C   C13       1.0  0.59840  0.94890  0.39820  1.0000
  C   C14       1.0  0.40160  0.44890  0.60180  1.0000
  C   C15       1.0  0.51560  0.94330  0.50400  1.0000
  C   C16       1.0  0.48440  0.44330  0.49600  1.0000
  H   H13       1.0  0.55790  0.94530  0.59140  1.0000
  H   H14       1.0  0.44210  0.44530  0.40860  1.0000
  C   C17       1.0  0.08550  0.77580  0.86400  1.0000
  C   C18       1.0  0.91450  0.27580  0.13600  1.0000
  H   H15       1.0  0.99330  0.79410  0.86680  1.0000
  H   H16       1.0  0.00670  0.29410  0.13320  1.0000
  C   C19       1.0  0.26010  0.69610  0.85750  1.0000
  C   C20       1.0  0.73990  0.19610  0.14250  1.0000
  C   C21       1.0  0.31200  0.76970  0.85990  1.0000
  C   C22       1.0  0.68800  0.26970  0.14010  1.0000
  C   C23       1.0  0.45690  0.78450  0.85740  1.0000
  C   C24       1.0  0.54310  0.28450  0.14260  1.0000
  H   H17       1.0  0.49310  0.83310  0.85900  1.0000
  H   H18       1.0  0.50690  0.33310  0.14100  1.0000
  C   C25       1.0  0.54360  0.72180  0.85240  1.0000
  C   C26       1.0  0.45640  0.22180  0.14760  1.0000
  C   C27       1.0  0.49370  0.64860  0.84980  1.0000
  C   C28       1.0  0.50630  0.14860  0.15020  1.0000
  H   H19       1.0  0.55770  0.60900  0.84670  1.0000
  H   H20       1.0  0.44230  0.10900  0.15330  1.0000
  C   C29       1.0  0.35080  0.63380  0.85190  1.0000
  C   C30       1.0  0.64920  0.13380  0.14810  1.0000
  H   H21       1.0  0.31570  0.58500  0.84970  1.0000
  H   H22       1.0  0.68430  0.08500  0.15030  1.0000
  C   C31       1.0  0.08180  0.10470  0.84410  1.0000
  C   C32       1.0  0.91820  0.60470  0.15590  1.0000
  H   H23       1.0  0.99090  0.08640  0.85330  1.0000
  H   H24       1.0  0.00910  0.58640  0.14670  1.0000
  C   C33       1.0  0.25550  0.18390  0.82200  1.0000
  C   C34       1.0  0.74450  0.68390  0.17800  1.0000
  C   C35       1.0  0.30620  0.11060  0.82920  1.0000
  C   C36       1.0  0.69380  0.61060  0.17080  1.0000
  C   C37       1.0  0.45020  0.09640  0.82080  1.0000
  C   C38       1.0  0.54980  0.59640  0.17920  1.0000
  H   H25       1.0  0.48690  0.04790  0.82280  1.0000
  H   H26       1.0  0.51310  0.54790  0.17720  1.0000
  C   C39       1.0  0.53470  0.15830  0.80930  1.0000
  C   C40       1.0  0.46530  0.65830  0.19070  1.0000
  C   C41       1.0  0.48280  0.23210  0.80320  1.0000
  C   C42       1.0  0.51720  0.73210  0.19680  1.0000
  H   H27       1.0  0.54560  0.27170  0.79480  1.0000
  H   H28       1.0  0.45440  0.77170  0.20520  1.0000
  C   C43       1.0  0.34210  0.24650  0.80940  1.0000
  C   C44       1.0  0.65790  0.74650  0.19060  1.0000
  H   H29       1.0  0.30570  0.29500  0.80540  1.0000
  H   H30       1.0  0.69430  0.79500  0.19460  1.0000
