data_image0
_chemical_formula_structural       Br8Ca3O14H2O6H4C4H2C4H2C6H2C6H2C12H2
_chemical_formula_sum              "Br8 Ca3 O20 H16 C32"
_cell_length_a       10.0545
_cell_length_b       11.5943
_cell_length_c       12.401
_cell_angle_alpha    74.417
_cell_angle_beta     84.716
_cell_angle_gamma    83.3

_space_group_name_H-M_alt    "P 1"
_space_group_IT_number       1

loop_
  _space_group_symop_operation_xyz
  'x, y, z'

loop_
  _atom_site_type_symbol
  _atom_site_label
  _atom_site_symmetry_multiplicity
  _atom_site_fract_x
  _atom_site_fract_y
  _atom_site_fract_z
  _atom_site_occupancy
  Br  Br1       1.0  0.40344  0.17985  0.16166  1.0000
  Br  Br2       1.0  0.59656  0.82015  0.83834  1.0000
  Br  Br3       1.0  0.85291  0.55836  0.76398  1.0000
  Br  Br4       1.0  0.14709  0.44164  0.23602  1.0000
  Br  Br5       1.0  0.60407  0.71523  0.53763  1.0000
  Br  Br6       1.0  0.39593  0.28477  0.46237  1.0000
  Br  Br7       1.0  0.70450  0.44954  0.44194  1.0000
  Br  Br8       1.0  0.29550  0.55046  0.55806  1.0000
  Ca  Ca1       1.0  0.04091  0.08577  0.81929  1.0000
  Ca  Ca2       1.0  0.95909  0.91423  0.18071  1.0000
  Ca  Ca3       1.0  0.00000  0.00000  0.50000  1.0000
  O   O1        1.0  0.84560  0.98930  0.37730  1.0000
  O   O2        1.0  0.15440  0.01070  0.62270  1.0000
  O   O3        1.0  0.73750  0.88370  0.29780  1.0000
  O   O4        1.0  0.26250  0.11630  0.70220  1.0000
  O   O5        1.0  0.13470  0.04150  0.99420  1.0000
  O   O6        1.0  0.86530  0.95850  0.00580  1.0000
  O   O7        1.0  0.90990  0.24410  0.90940  1.0000
  O   O8        1.0  0.09010  0.75590  0.09060  1.0000
  O   O9        1.0  0.93340  0.19580  0.66030  1.0000
  O   O10       1.0  0.06660  0.80420  0.33970  1.0000
  O   O11       1.0  0.17910  0.99690  0.16970  1.0000
  O   O12       1.0  0.82090  0.00310  0.83030  1.0000
  O   O13       1.0  0.13040  0.87800  0.86000  1.0000
  O   O14       1.0  0.86960  0.12200  0.14000  1.0000
  H   H1        1.0  0.10280  0.84450  0.81420  1.0000
  H   H2        1.0  0.89720  0.15550  0.18580  1.0000
  O   O15       1.0  0.92220  0.20470  0.48140  1.0000
  O   O16       1.0  0.07780  0.79530  0.51860  1.0000
  O   O17       1.0  0.11060  0.28760  0.82890  1.0000
  O   O18       1.0  0.88940  0.71240  0.17110  1.0000
  O   O19       1.0  0.85690  0.91020  0.65020  1.0000
  O   O20       1.0  0.14310  0.08980  0.34980  1.0000
  H   H3        1.0  0.78400  0.89990  0.62580  1.0000
  H   H4        1.0  0.21600  0.10010  0.37420  1.0000
  H   H5        1.0  0.84010  0.95600  0.69400  1.0000
  H   H6        1.0  0.15990  0.04400  0.30600  1.0000
  C   C1        1.0  0.54500  0.88170  0.51090  1.0000
  C   C2        1.0  0.45500  0.11830  0.48910  1.0000
  C   C3        1.0  0.59110  0.05650  0.03910  1.0000
  C   C4        1.0  0.40890  0.94350  0.96090  1.0000
  H   H7        1.0  0.65170  0.09470  0.06640  1.0000
  H   H8        1.0  0.34830  0.90530  0.93360  1.0000
  C   C5        1.0  0.36230  0.01540  0.03260  1.0000
  C   C6        1.0  0.63770  0.98460  0.96740  1.0000
  C   C7        1.0  0.57160  0.08860  0.42860  1.0000
  C   C8        1.0  0.42840  0.91140  0.57140  1.0000
  H   H9        1.0  0.61890  0.14910  0.38150  1.0000
  H   H10       1.0  0.38110  0.85090  0.61850  1.0000
  C   C9        1.0  0.74240  0.94390  0.36740  1.0000
  C   C10       1.0  0.25760  0.05610  0.63260  1.0000
  C   C11       1.0  0.45720  0.07170  0.07000  1.0000
  C   C12       1.0  0.54280  0.92830  0.93000  1.0000
  C   C13       1.0  0.08560  0.40660  0.55840  1.0000
  C   C14       1.0  0.91440  0.59340  0.44160  1.0000
  H   H11       1.0  0.14350  0.34480  0.59850  1.0000
  H   H12       1.0  0.85650  0.65520  0.40150  1.0000
  C   C15       1.0  0.21420  0.02140  0.06780  1.0000
  C   C16       1.0  0.78580  0.97860  0.93220  1.0000
  C   C17       1.0  0.61770  0.96800  0.43860  1.0000
  C   C18       1.0  0.38230  0.03200  0.56140  1.0000
  C   C19       1.0  0.93460  0.61290  0.95610  1.0000
  C   C20       1.0  0.06540  0.38710  0.04390  1.0000
  H   H13       1.0  0.89120  0.68850  0.92540  1.0000
  H   H14       1.0  0.10880  0.31150  0.07460  1.0000
  C   C21       1.0  0.00280  0.40950  0.94350  1.0000
  C   C22       1.0  0.99720  0.59050  0.05650  1.0000
  C   C23       1.0  0.96340  0.38120  0.52960  1.0000
  C   C24       1.0  0.03660  0.61880  0.47040  1.0000
  C   C25       1.0  0.93570  0.25050  0.56010  1.0000
  C   C26       1.0  0.06430  0.74950  0.43990  1.0000
  C   C27       1.0  0.00820  0.30600  0.88840  1.0000
  C   C28       1.0  0.99180  0.69400  0.11160  1.0000
  C   C29       1.0  0.93720  0.52190  0.90220  1.0000
  C   C30       1.0  0.06280  0.47810  0.09780  1.0000
  C   C31       1.0  0.87900  0.47660  0.47240  1.0000
  C   C32       1.0  0.12100  0.52340  0.52760  1.0000
  H   H15       1.0  0.11800  0.84000  0.91700  1.0000
  H   H16       1.0  0.88200  0.16000  0.08300  1.0000
