data_image0
_chemical_formula_structural       Co8O4H4O24H4O12H8O12H8C16H4C12H4C4H4C8H4C12H4C20H4C4H4C4H4C4H4C8
_chemical_formula_sum              "Co8 O52 H60 C92"
_cell_length_a       10.2987
_cell_length_b       16.1185
_cell_length_c       17.2403
_cell_angle_alpha    90
_cell_angle_beta     97.391
_cell_angle_gamma    90

_space_group_name_H-M_alt    "P 1"
_space_group_IT_number       1

loop_
  _space_group_symop_operation_xyz
  'x, y, z'

loop_
  _atom_site_type_symbol
  _atom_site_label
  _atom_site_symmetry_multiplicity
  _atom_site_fract_x
  _atom_site_fract_y
  _atom_site_fract_z
  _atom_site_occupancy
  Co  Co1       1.0  0.39201  0.43585  0.97360  1.0000
  Co  Co2       1.0  0.10799  0.93585  0.52640  1.0000
  Co  Co3       1.0  0.60799  0.56415  0.02640  1.0000
  Co  Co4       1.0  0.89201  0.06415  0.47360  1.0000
  Co  Co5       1.0  0.68932  0.35713  0.94803  1.0000
  Co  Co6       1.0  0.81068  0.85713  0.55197  1.0000
  Co  Co7       1.0  0.31068  0.64287  0.05197  1.0000
  Co  Co8       1.0  0.18932  0.14287  0.44803  1.0000
  O   O1        1.0  0.58000  0.46160  0.95150  1.0000
  O   O2        1.0  0.92000  0.96160  0.54850  1.0000
  O   O3        1.0  0.42000  0.53840  0.04850  1.0000
  O   O4        1.0  0.08000  0.03840  0.45150  1.0000
  H   H1        1.0  0.57435  0.48031  0.90494  1.0000
  H   H2        1.0  0.92565  0.98031  0.59506  1.0000
  H   H3        1.0  0.42565  0.51969  0.09506  1.0000
  H   H4        1.0  0.07435  0.01969  0.40494  1.0000
  O   O5        1.0  0.63380  0.29110  0.05150  1.0000
  O   O6        1.0  0.86620  0.79110  0.44850  1.0000
  O   O7        1.0  0.36620  0.70890  0.94850  1.0000
  O   O8        1.0  0.13380  0.20890  0.55150  1.0000
  O   O9        1.0  0.44470  0.35260  0.06690  1.0000
  O   O10       1.0  0.05530  0.85260  0.43310  1.0000
  O   O11       1.0  0.55530  0.64740  0.93310  1.0000
  O   O12       1.0  0.94470  0.14740  0.56690  1.0000
  O   O13       1.0  0.27280  0.10560  0.34840  1.0000
  O   O14       1.0  0.22720  0.60560  0.15160  1.0000
  O   O15       1.0  0.72720  0.89440  0.65160  1.0000
  O   O16       1.0  0.77280  0.39440  0.84840  1.0000
  O   O17       1.0  0.48170  0.07960  0.39550  1.0000
  O   O18       1.0  0.01830  0.57960  0.10450  1.0000
  O   O19       1.0  0.51830  0.92040  0.60450  1.0000
  O   O20       1.0  0.98170  0.42040  0.89550  1.0000
  O   O21       1.0  0.83150  0.24640  0.94880  1.0000
  O   O22       1.0  0.66850  0.74640  0.55120  1.0000
  O   O23       1.0  0.16850  0.75360  0.05120  1.0000
  O   O24       1.0  0.33150  0.25360  0.44880  1.0000
  O   O25       1.0  0.86460  0.22120  0.07720  1.0000
  O   O26       1.0  0.63540  0.72120  0.42280  1.0000
  O   O27       1.0  0.13540  0.77880  0.92280  1.0000
  O   O28       1.0  0.36460  0.27880  0.57720  1.0000
  H   H5        1.0  0.78712  0.23818  0.07477  1.0000
  H   H6        1.0  0.71288  0.73818  0.42523  1.0000
  H   H7        1.0  0.21288  0.76182  0.92523  1.0000
  H   H8        1.0  0.28712  0.26182  0.57477  1.0000
  O   O29       1.0  0.36510  0.33670  0.89750  1.0000
  O   O30       1.0  0.13490  0.83670  0.60250  1.0000
  O   O31       1.0  0.63490  0.66330  0.10250  1.0000
  O   O32       1.0  0.86510  0.16330  0.39750  1.0000
  O   O33       1.0  0.56120  0.28480  0.87980  1.0000
  O   O34       1.0  0.93880  0.78480  0.62020  1.0000
  O   O35       1.0  0.43880  0.71520  0.12020  1.0000
  O   O36       1.0  0.06120  0.21520  0.37980  1.0000
  O   O37       1.0  0.85230  0.40290  0.01960  1.0000
  O   O38       1.0  0.64770  0.90290  0.48040  1.0000
  O   O39       1.0  0.14770  0.59710  0.98040  1.0000
  O   O40       1.0  0.35230  0.09710  0.51960  1.0000
  H   H9        1.0  0.82991  0.44422  0.05005  1.0000
  H   H10       1.0  0.67009  0.94422  0.44995  1.0000
  H   H11       1.0  0.17009  0.55578  0.94995  1.0000
  H   H12       1.0  0.32991  0.05578  0.55005  1.0000
  H   H13       1.0  0.90788  0.42757  0.99089  1.0000
  H   H14       1.0  0.59212  0.92757  0.50911  1.0000
  H   H15       1.0  0.09212  0.57243  0.00911  1.0000
  H   H16       1.0  0.40788  0.07243  0.49089  1.0000
  O   O41       1.0  0.20700  0.01170  0.61460  1.0000
  O   O42       1.0  0.29300  0.51170  0.88540  1.0000
  O   O43       1.0  0.79300  0.98830  0.38540  1.0000
  O   O44       1.0  0.70700  0.48830  0.11460  1.0000
  O   O45       1.0  0.06430  0.99760  0.69830  1.0000
  O   O46       1.0  0.43570  0.49760  0.80170  1.0000
  O   O47       1.0  0.93570  0.00240  0.30170  1.0000
  O   O48       1.0  0.56430  0.50240  0.19830  1.0000
  O   O49       1.0  0.19940  0.41040  0.00030  1.0000
  O   O50       1.0  0.30060  0.91040  0.49970  1.0000
  O   O51       1.0  0.80060  0.58960  0.99970  1.0000
  O   O52       1.0  0.69940  0.08960  0.50030  1.0000
  H   H17       1.0  0.21891  0.36618  0.02481  1.0000
  H   H18       1.0  0.28109  0.86618  0.47519  1.0000
  H   H19       1.0  0.78109  0.63382  0.97519  1.0000
  H   H20       1.0  0.71891  0.13382  0.52481  1.0000
  H   H21       1.0  0.14582  0.40105  0.95647  1.0000
  H   H22       1.0  0.35418  0.90105  0.54353  1.0000
  H   H23       1.0  0.85418  0.59895  0.04353  1.0000
  H   H24       1.0  0.64582  0.09895  0.45647  1.0000
  C   C1        1.0  0.52850  0.29640  0.08130  1.0000
  C   C2        1.0  0.97150  0.79640  0.41870  1.0000
  C   C3        1.0  0.47150  0.70360  0.91870  1.0000
  C   C4        1.0  0.02850  0.20360  0.58130  1.0000
  C   C5        1.0  0.49710  0.23320  0.14090  1.0000
  C   C6        1.0  0.00290  0.73320  0.35910  1.0000
  C   C7        1.0  0.50290  0.76680  0.85910  1.0000
  C   C8        1.0  0.99710  0.26680  0.64090  1.0000
  C   C9        1.0  0.36940  0.20180  0.14050  1.0000
  C   C10       1.0  0.13060  0.70180  0.35950  1.0000
  C   C11       1.0  0.63060  0.79820  0.85950  1.0000
  C   C12       1.0  0.86940  0.29820  0.64050  1.0000
  C   C13       1.0  0.34030  0.15990  0.20650  1.0000
  C   C14       1.0  0.15970  0.65990  0.29350  1.0000
  C   C15       1.0  0.65970  0.84010  0.79350  1.0000
  C   C16       1.0  0.84030  0.34010  0.70650  1.0000
  H   H25       1.0  0.25293  0.14176  0.20826  1.0000
  H   H26       1.0  0.24707  0.64176  0.29174  1.0000
  H   H27       1.0  0.74707  0.85824  0.79174  1.0000
  H   H28       1.0  0.75293  0.35824  0.70826  1.0000
  C   C17       1.0  0.43450  0.14360  0.27040  1.0000
  C   C18       1.0  0.06550  0.64360  0.22960  1.0000
  C   C19       1.0  0.56550  0.85640  0.72960  1.0000
  C   C20       1.0  0.93450  0.35640  0.77040  1.0000
  C   C21       1.0  0.39390  0.10590  0.34410  1.0000
  C   C22       1.0  0.10610  0.60590  0.15590  1.0000
  C   C23       1.0  0.60610  0.89410  0.65590  1.0000
  C   C24       1.0  0.89390  0.39410  0.84410  1.0000
  C   C25       1.0  0.56330  0.16670  0.26580  1.0000
  C   C26       1.0  0.93670  0.66670  0.23420  1.0000
  C   C27       1.0  0.43670  0.83330  0.73420  1.0000
  C   C28       1.0  0.06330  0.33330  0.76580  1.0000
  H   H29       1.0  0.63063  0.15080  0.30599  1.0000
  H   H30       1.0  0.86937  0.65080  0.19401  1.0000
  H   H31       1.0  0.36937  0.84920  0.69401  1.0000
  H   H32       1.0  0.13063  0.34920  0.80599  1.0000
  C   C29       1.0  0.59390  0.21270  0.20280  1.0000
  C   C30       1.0  0.90610  0.71270  0.29720  1.0000
  C   C31       1.0  0.40610  0.78730  0.79720  1.0000
  C   C32       1.0  0.09390  0.28730  0.70280  1.0000
  H   H33       1.0  0.68149  0.23069  0.20147  1.0000
  H   H34       1.0  0.81851  0.73069  0.29853  1.0000
  H   H35       1.0  0.31851  0.76931  0.79853  1.0000
  H   H36       1.0  0.18149  0.26931  0.70147  1.0000
  C   C33       1.0  0.26980  0.20650  0.07020  1.0000
  C   C34       1.0  0.23020  0.70650  0.42980  1.0000
  C   C35       1.0  0.73020  0.79350  0.92980  1.0000
  C   C36       1.0  0.76980  0.29350  0.57020  1.0000
  C   C37       1.0  0.13710  0.21740  0.07430  1.0000
  C   C38       1.0  0.36290  0.71740  0.42570  1.0000
  C   C39       1.0  0.86290  0.78260  0.92570  1.0000
  C   C40       1.0  0.63710  0.28260  0.57430  1.0000
  H   H37       1.0  0.10754  0.22721  0.12345  1.0000
  H   H38       1.0  0.39246  0.72721  0.37655  1.0000
  H   H39       1.0  0.89246  0.77279  0.87655  1.0000
  H   H40       1.0  0.60754  0.27279  0.62345  1.0000
  C   C41       1.0  0.04670  0.21410  0.00650  1.0000
  C   C42       1.0  0.45330  0.71410  0.49350  1.0000
  C   C43       1.0  0.95330  0.78590  0.99350  1.0000
  C   C44       1.0  0.54670  0.28590  0.50650  1.0000
  C   C45       1.0  0.90520  0.22860  0.00740  1.0000
  C   C46       1.0  0.59480  0.72860  0.49260  1.0000
  C   C47       1.0  0.09480  0.77140  0.99260  1.0000
  C   C48       1.0  0.40520  0.27140  0.50740  1.0000
  C   C49       1.0  0.08830  0.19870  0.93420  1.0000
  C   C50       1.0  0.41170  0.69870  0.56580  1.0000
  C   C51       1.0  0.91170  0.80130  0.06580  1.0000
  C   C52       1.0  0.58830  0.30130  0.43420  1.0000
  H   H41       1.0  0.02606  0.19636  0.88855  1.0000
  H   H42       1.0  0.47394  0.69636  0.61145  1.0000
  H   H43       1.0  0.97394  0.80364  0.11145  1.0000
  H   H44       1.0  0.52606  0.30364  0.38855  1.0000
  C   C53       1.0  0.22110  0.18680  0.92840  1.0000
  C   C54       1.0  0.27890  0.68680  0.57160  1.0000
  C   C55       1.0  0.77890  0.81320  0.07160  1.0000
  C   C56       1.0  0.72110  0.31320  0.42840  1.0000
  C   C57       1.0  0.26860  0.16960  0.85180  1.0000
  C   C58       1.0  0.23140  0.66960  0.64820  1.0000
  C   C59       1.0  0.73140  0.83040  0.14820  1.0000
  C   C60       1.0  0.76860  0.33040  0.35180  1.0000
  C   C61       1.0  0.37240  0.21270  0.82680  1.0000
  C   C62       1.0  0.12760  0.71270  0.67320  1.0000
  C   C63       1.0  0.62760  0.78730  0.17320  1.0000
  C   C64       1.0  0.87240  0.28730  0.32680  1.0000
  C   C65       1.0  0.43770  0.28470  0.87250  1.0000
  C   C66       1.0  0.06230  0.78470  0.62750  1.0000
  C   C67       1.0  0.56230  0.71530  0.12750  1.0000
  C   C68       1.0  0.93770  0.21530  0.37250  1.0000
  C   C69       1.0  0.41460  0.19160  0.75700  1.0000
  C   C70       1.0  0.08540  0.69160  0.74300  1.0000
  C   C71       1.0  0.58540  0.80840  0.24300  1.0000
  C   C72       1.0  0.91460  0.30840  0.25700  1.0000
  H   H45       1.0  0.48782  0.21984  0.74121  1.0000
  H   H46       1.0  0.01218  0.71984  0.75879  1.0000
  H   H47       1.0  0.51218  0.78016  0.25879  1.0000
  H   H48       1.0  0.98782  0.28016  0.24121  1.0000
  C   C73       1.0  0.35310  0.12990  0.70870  1.0000
  C   C74       1.0  0.14690  0.62990  0.79130  1.0000
  C   C75       1.0  0.64690  0.87010  0.29130  1.0000
  C   C76       1.0  0.85310  0.37010  0.20870  1.0000
  H   H49       1.0  0.38390  0.11637  0.66064  1.0000
  H   H50       1.0  0.11610  0.61637  0.83936  1.0000
  H   H51       1.0  0.61610  0.88363  0.33936  1.0000
  H   H52       1.0  0.88390  0.38363  0.16064  1.0000
  C   C77       1.0  0.20660  0.10900  0.80420  1.0000
  C   C78       1.0  0.29340  0.60900  0.69580  1.0000
  C   C79       1.0  0.79340  0.89100  0.19580  1.0000
  C   C80       1.0  0.70660  0.39100  0.30420  1.0000
  H   H53       1.0  0.13481  0.08018  0.82117  1.0000
  H   H54       1.0  0.36519  0.58018  0.67883  1.0000
  H   H55       1.0  0.86519  0.91982  0.17883  1.0000
  H   H56       1.0  0.63481  0.41982  0.32117  1.0000
  C   C81       1.0  0.30960  0.19050  0.99720  1.0000
  C   C82       1.0  0.19040  0.69050  0.50280  1.0000
  C   C83       1.0  0.69040  0.80950  0.00280  1.0000
  C   C84       1.0  0.80960  0.30950  0.49720  1.0000
  H   H57       1.0  0.40005  0.18181  0.99416  1.0000
  H   H58       1.0  0.09995  0.68181  0.50584  1.0000
  H   H59       1.0  0.59995  0.81819  0.00584  1.0000
  H   H60       1.0  0.90005  0.31819  0.49416  1.0000
  C   C85       1.0  0.16720  0.02750  0.67880  1.0000
  C   C86       1.0  0.33280  0.52750  0.82120  1.0000
  C   C87       1.0  0.83280  0.97250  0.32120  1.0000
  C   C88       1.0  0.66720  0.47250  0.17880  1.0000
  C   C89       1.0  0.24560  0.08840  0.73200  1.0000
  C   C90       1.0  0.25440  0.58840  0.76800  1.0000
  C   C91       1.0  0.75440  0.91160  0.26800  1.0000
  C   C92       1.0  0.74560  0.41160  0.23200  1.0000
