data_image0
_chemical_formula_structural       Sn8C24O48
_chemical_formula_sum              "Sn8 C24 O48"
_cell_length_a       15.1821
_cell_length_b       11.7506
_cell_length_c       10.8342
_cell_angle_alpha    90
_cell_angle_beta     90
_cell_angle_gamma    90

_space_group_name_H-M_alt    "P 1"
_space_group_IT_number       1

loop_
  _space_group_symop_operation_xyz
  'x, y, z'

loop_
  _atom_site_type_symbol
  _atom_site_label
  _atom_site_symmetry_multiplicity
  _atom_site_fract_x
  _atom_site_fract_y
  _atom_site_fract_z
  _atom_site_occupancy
  Sn  Sn1       1.0  0.09055  0.25000  0.45990  1.0000
  Sn  Sn2       1.0  0.40945  0.75000  0.95990  1.0000
  Sn  Sn3       1.0  0.59055  0.25000  0.04010  1.0000
  Sn  Sn4       1.0  0.90945  0.75000  0.54010  1.0000
  Sn  Sn5       1.0  0.41143  0.25000  0.78152  1.0000
  Sn  Sn6       1.0  0.08857  0.75000  0.28152  1.0000
  Sn  Sn7       1.0  0.91143  0.25000  0.71848  1.0000
  Sn  Sn8       1.0  0.58857  0.75000  0.21848  1.0000
  C   C1        1.0  0.27910  0.25000  0.55180  1.0000
  C   C2        1.0  0.22090  0.75000  0.05180  1.0000
  C   C3        1.0  0.77910  0.25000  0.94820  1.0000
  C   C4        1.0  0.72090  0.75000  0.44820  1.0000
  C   C5        1.0  0.22620  0.25000  0.67340  1.0000
  C   C6        1.0  0.27380  0.75000  0.17340  1.0000
  C   C7        1.0  0.72620  0.25000  0.82660  1.0000
  C   C8        1.0  0.77380  0.75000  0.32660  1.0000
  C   C9        1.0  0.12340  0.97650  0.43410  1.0000
  C   C10       1.0  0.37660  0.02350  0.93410  1.0000
  C   C11       1.0  0.62340  0.52350  0.06590  1.0000
  C   C12       1.0  0.87660  0.47650  0.56590  1.0000
  C   C13       1.0  0.87660  0.02350  0.56590  1.0000
  C   C14       1.0  0.62340  0.97650  0.06590  1.0000
  C   C15       1.0  0.37660  0.47650  0.93410  1.0000
  C   C16       1.0  0.12340  0.52350  0.43410  1.0000
  C   C17       1.0  0.12300  0.02280  0.29940  1.0000
  C   C18       1.0  0.37700  0.97720  0.79940  1.0000
  C   C19       1.0  0.62300  0.47720  0.20060  1.0000
  C   C20       1.0  0.87700  0.52280  0.70060  1.0000
  C   C21       1.0  0.87700  0.97720  0.70060  1.0000
  C   C22       1.0  0.62300  0.02280  0.20060  1.0000
  C   C23       1.0  0.37700  0.52280  0.79940  1.0000
  C   C24       1.0  0.12300  0.47720  0.29940  1.0000
  O   O1        1.0  0.23500  0.25000  0.45270  1.0000
  O   O2        1.0  0.26500  0.75000  0.95270  1.0000
  O   O3        1.0  0.73500  0.25000  0.04730  1.0000
  O   O4        1.0  0.76500  0.75000  0.54730  1.0000
  O   O5        1.0  0.36070  0.25000  0.55970  1.0000
  O   O6        1.0  0.13930  0.75000  0.05970  1.0000
  O   O7        1.0  0.86070  0.25000  0.94030  1.0000
  O   O8        1.0  0.63930  0.75000  0.44030  1.0000
  O   O9        1.0  0.26870  0.25000  0.77330  1.0000
  O   O10       1.0  0.23130  0.75000  0.27330  1.0000
  O   O11       1.0  0.76870  0.25000  0.72670  1.0000
  O   O12       1.0  0.73130  0.75000  0.22670  1.0000
  O   O13       1.0  0.14490  0.25000  0.66710  1.0000
  O   O14       1.0  0.35510  0.75000  0.16710  1.0000
  O   O15       1.0  0.64490  0.25000  0.83290  1.0000
  O   O16       1.0  0.85510  0.75000  0.33290  1.0000
  O   O17       1.0  0.12590  0.87169  0.44880  1.0000
  O   O18       1.0  0.37410  0.12831  0.94880  1.0000
  O   O19       1.0  0.62590  0.62831  0.05120  1.0000
  O   O20       1.0  0.87410  0.37169  0.55120  1.0000
  O   O21       1.0  0.87410  0.12831  0.55120  1.0000
  O   O22       1.0  0.62590  0.87169  0.05120  1.0000
  O   O23       1.0  0.37410  0.37169  0.94880  1.0000
  O   O24       1.0  0.12590  0.62831  0.44880  1.0000
  O   O25       1.0  0.12120  0.04980  0.51830  1.0000
  O   O26       1.0  0.37880  0.95020  0.01830  1.0000
  O   O27       1.0  0.62120  0.45020  0.98170  1.0000
  O   O28       1.0  0.87880  0.54980  0.48170  1.0000
  O   O29       1.0  0.87880  0.95020  0.48170  1.0000
  O   O30       1.0  0.62120  0.04980  0.98170  1.0000
  O   O31       1.0  0.37880  0.54980  0.01830  1.0000
  O   O32       1.0  0.12120  0.45020  0.51830  1.0000
  O   O33       1.0  0.12290  0.94940  0.21560  1.0000
  O   O34       1.0  0.37710  0.05060  0.71560  1.0000
  O   O35       1.0  0.62290  0.55060  0.28440  1.0000
  O   O36       1.0  0.87710  0.44940  0.78440  1.0000
  O   O37       1.0  0.87710  0.05060  0.78440  1.0000
  O   O38       1.0  0.62290  0.94940  0.28440  1.0000
  O   O39       1.0  0.37710  0.44940  0.71560  1.0000
  O   O40       1.0  0.12290  0.55060  0.21560  1.0000
  O   O41       1.0  0.12235  0.12820  0.28350  1.0000
  O   O42       1.0  0.37765  0.87180  0.78350  1.0000
  O   O43       1.0  0.62235  0.37180  0.21650  1.0000
  O   O44       1.0  0.87765  0.62820  0.71650  1.0000
  O   O45       1.0  0.87765  0.87180  0.71650  1.0000
  O   O46       1.0  0.62235  0.12820  0.21650  1.0000
  O   O47       1.0  0.37765  0.62820  0.78350  1.0000
  O   O48       1.0  0.12235  0.37180  0.28350  1.0000
