data_image0
_chemical_formula_structural       Fe4N36C24
_chemical_formula_sum              "Fe4 N36 C24"
_cell_length_a       12.799
_cell_length_b       16.229
_cell_length_c       10.577
_cell_angle_alpha    90
_cell_angle_beta     90
_cell_angle_gamma    90

_space_group_name_H-M_alt    "P 1"
_space_group_IT_number       1

loop_
  _space_group_symop_operation_xyz
  'x, y, z'

loop_
  _atom_site_type_symbol
  _atom_site_label
  _atom_site_symmetry_multiplicity
  _atom_site_fract_x
  _atom_site_fract_y
  _atom_site_fract_z
  _atom_site_occupancy
  Fe  Fe1       1.0  0.50000  0.00000  0.50000  1.0000
  Fe  Fe2       1.0  0.00000  0.00000  0.00000  1.0000
  Fe  Fe3       1.0  0.50000  0.50000  0.50000  1.0000
  Fe  Fe4       1.0  0.00000  0.50000  0.00000  1.0000
  N   N1        1.0  0.41273  0.04896  0.65776  1.0000
  N   N2        1.0  0.91273  0.04896  0.84224  1.0000
  N   N3        1.0  0.41273  0.45104  0.65776  1.0000
  N   N4        1.0  0.08727  0.54896  0.15776  1.0000
  N   N5        1.0  0.58727  0.95104  0.34224  1.0000
  N   N6        1.0  0.08727  0.95104  0.15776  1.0000
  N   N7        1.0  0.58727  0.54896  0.34224  1.0000
  N   N8        1.0  0.91273  0.45104  0.84224  1.0000
  N   N9        1.0  0.31731  0.09051  0.84679  1.0000
  N   N10       1.0  0.81731  0.09051  0.65321  1.0000
  N   N11       1.0  0.31731  0.40949  0.84679  1.0000
  N   N12       1.0  0.18269  0.59051  0.34679  1.0000
  N   N13       1.0  0.68269  0.90949  0.15321  1.0000
  N   N14       1.0  0.18269  0.90949  0.34679  1.0000
  N   N15       1.0  0.68269  0.59051  0.15321  1.0000
  N   N16       1.0  0.81731  0.40949  0.65321  1.0000
  N   N17       1.0  0.14728  0.03762  0.91415  1.0000
  N   N18       1.0  0.64728  0.03762  0.58585  1.0000
  N   N19       1.0  0.14728  0.46238  0.91415  1.0000
  N   N20       1.0  0.35272  0.53762  0.41415  1.0000
  N   N21       1.0  0.85272  0.96238  0.08585  1.0000
  N   N22       1.0  0.35272  0.96238  0.41415  1.0000
  N   N23       1.0  0.85272  0.53762  0.08585  1.0000
  N   N24       1.0  0.64728  0.46238  0.58585  1.0000
  N   N25       1.0  0.50644  0.88409  0.59237  1.0000
  N   N26       1.0  0.00644  0.88409  0.90763  1.0000
  N   N27       1.0  0.50644  0.61591  0.59237  1.0000
  N   N28       1.0  0.99356  0.38409  0.09237  1.0000
  N   N29       1.0  0.49356  0.11591  0.40763  1.0000
  N   N30       1.0  0.99356  0.11591  0.09237  1.0000
  N   N31       1.0  0.49356  0.38409  0.40763  1.0000
  N   N32       1.0  0.00644  0.61591  0.90763  1.0000
  N   N33       1.0  0.48941  0.75000  0.69580  1.0000
  N   N34       1.0  0.98941  0.75000  0.80420  1.0000
  N   N35       1.0  0.01059  0.25000  0.19580  1.0000
  N   N36       1.0  0.51059  0.25000  0.30420  1.0000
  C   C1        1.0  0.36435  0.06504  0.74516  1.0000
  C   C2        1.0  0.86435  0.06504  0.75484  1.0000
  C   C3        1.0  0.36435  0.43496  0.74516  1.0000
  C   C4        1.0  0.13565  0.56504  0.24516  1.0000
  C   C5        1.0  0.63565  0.93496  0.25484  1.0000
  C   C6        1.0  0.13565  0.93496  0.24516  1.0000
  C   C7        1.0  0.63565  0.56504  0.25484  1.0000
  C   C8        1.0  0.86435  0.43496  0.75484  1.0000
  C   C9        1.0  0.22645  0.05970  0.87829  1.0000
  C   C10       1.0  0.72645  0.05970  0.62171  1.0000
  C   C11       1.0  0.22645  0.44030  0.87829  1.0000
  C   C12       1.0  0.27355  0.55970  0.37829  1.0000
  C   C13       1.0  0.77355  0.94030  0.12171  1.0000
  C   C14       1.0  0.27355  0.94030  0.37829  1.0000
  C   C15       1.0  0.77355  0.55970  0.12171  1.0000
  C   C16       1.0  0.72645  0.44030  0.62171  1.0000
  C   C17       1.0  0.49871  0.81933  0.63543  1.0000
  C   C18       1.0  0.99871  0.81933  0.86457  1.0000
  C   C19       1.0  0.49871  0.68067  0.63543  1.0000
  C   C20       1.0  0.00129  0.31933  0.13543  1.0000
  C   C21       1.0  0.50129  0.18067  0.36457  1.0000
  C   C22       1.0  0.00129  0.18067  0.13543  1.0000
  C   C23       1.0  0.50129  0.31933  0.36457  1.0000
  C   C24       1.0  0.99871  0.68067  0.86457  1.0000
