data_image0
_chemical_formula_structural       Co4N36C24
_chemical_formula_sum              "Co4 N36 C24"
_cell_length_a       12.536
_cell_length_b       17.48
_cell_length_c       12.372
_cell_angle_alpha    90
_cell_angle_beta     90
_cell_angle_gamma    90

_space_group_name_H-M_alt    "P 1"
_space_group_IT_number       1

loop_
  _space_group_symop_operation_xyz
  'x, y, z'

loop_
  _atom_site_type_symbol
  _atom_site_label
  _atom_site_symmetry_multiplicity
  _atom_site_fract_x
  _atom_site_fract_y
  _atom_site_fract_z
  _atom_site_occupancy
  Co  Co1       1.0  0.00000  0.50000  0.50000  1.0000
  Co  Co2       1.0  0.50000  0.50000  0.00000  1.0000
  Co  Co3       1.0  0.00000  0.00000  0.50000  1.0000
  Co  Co4       1.0  0.50000  0.00000  0.00000  1.0000
  N   N1        1.0  0.90010  0.52068  0.64260  1.0000
  N   N2        1.0  0.40010  0.52068  0.85740  1.0000
  N   N3        1.0  0.90010  0.97932  0.64260  1.0000
  N   N4        1.0  0.59990  0.02068  0.14260  1.0000
  N   N5        1.0  0.09990  0.47932  0.35740  1.0000
  N   N6        1.0  0.59990  0.47932  0.14260  1.0000
  N   N7        1.0  0.09990  0.02068  0.35740  1.0000
  N   N8        1.0  0.40010  0.97932  0.85740  1.0000
  N   N9        1.0  0.81200  0.55850  0.81290  1.0000
  N   N10       1.0  0.31200  0.55850  0.68710  1.0000
  N   N11       1.0  0.81200  0.94150  0.81290  1.0000
  N   N12       1.0  0.68800  0.05850  0.31290  1.0000
  N   N13       1.0  0.18800  0.44150  0.18710  1.0000
  N   N14       1.0  0.68800  0.44150  0.31290  1.0000
  N   N15       1.0  0.18800  0.05850  0.18710  1.0000
  N   N16       1.0  0.31200  0.94150  0.68710  1.0000
  N   N17       1.0  0.64430  0.52404  0.90700  1.0000
  N   N18       1.0  0.14430  0.52404  0.59300  1.0000
  N   N19       1.0  0.64430  0.97596  0.90700  1.0000
  N   N20       1.0  0.85570  0.02404  0.40700  1.0000
  N   N21       1.0  0.35570  0.47596  0.09300  1.0000
  N   N22       1.0  0.85570  0.47596  0.40700  1.0000
  N   N23       1.0  0.35570  0.02404  0.09300  1.0000
  N   N24       1.0  0.14430  0.97596  0.59300  1.0000
  N   N25       1.0  0.99090  0.61932  0.45600  1.0000
  N   N26       1.0  0.49090  0.61932  0.04400  1.0000
  N   N27       1.0  0.99090  0.88068  0.45600  1.0000
  N   N28       1.0  0.50910  0.11932  0.95600  1.0000
  N   N29       1.0  0.00910  0.38068  0.54400  1.0000
  N   N30       1.0  0.50910  0.38068  0.95600  1.0000
  N   N31       1.0  0.00910  0.11932  0.54400  1.0000
  N   N32       1.0  0.49090  0.88068  0.04400  1.0000
  N   N33       1.0  0.97340  0.75000  0.38060  1.0000
  N   N34       1.0  0.47340  0.75000  0.11940  1.0000
  N   N35       1.0  0.52660  0.25000  0.88060  1.0000
  N   N36       1.0  0.02660  0.25000  0.61940  1.0000
  C   C1        1.0  0.85330  0.53500  0.72130  1.0000
  C   C2        1.0  0.35330  0.53500  0.77870  1.0000
  C   C3        1.0  0.85330  0.96500  0.72130  1.0000
  C   C4        1.0  0.64670  0.03500  0.22130  1.0000
  C   C5        1.0  0.14670  0.46500  0.27870  1.0000
  C   C6        1.0  0.64670  0.46500  0.22130  1.0000
  C   C7        1.0  0.14670  0.03500  0.27870  1.0000
  C   C8        1.0  0.35330  0.96500  0.77870  1.0000
  C   C9        1.0  0.72110  0.53730  0.85750  1.0000
  C   C10       1.0  0.22110  0.53730  0.64250  1.0000
  C   C11       1.0  0.72110  0.96270  0.85750  1.0000
  C   C12       1.0  0.77890  0.03730  0.35750  1.0000
  C   C13       1.0  0.27890  0.46270  0.14250  1.0000
  C   C14       1.0  0.77890  0.46270  0.35750  1.0000
  C   C15       1.0  0.27890  0.03730  0.14250  1.0000
  C   C16       1.0  0.22110  0.96270  0.64250  1.0000
  C   C17       1.0  0.98280  0.68271  0.42780  1.0000
  C   C18       1.0  0.48280  0.68271  0.07220  1.0000
  C   C19       1.0  0.98280  0.81729  0.42780  1.0000
  C   C20       1.0  0.51720  0.18271  0.92780  1.0000
  C   C21       1.0  0.01720  0.31729  0.57220  1.0000
  C   C22       1.0  0.51720  0.31729  0.92780  1.0000
  C   C23       1.0  0.01720  0.18271  0.57220  1.0000
  C   C24       1.0  0.48280  0.81729  0.07220  1.0000
