data_image0
_chemical_formula_structural       Mn4N36C24
_chemical_formula_sum              "Mn4 N36 C24"
_cell_length_a       12.654
_cell_length_b       17.65
_cell_length_c       12.543
_cell_angle_alpha    90
_cell_angle_beta     90
_cell_angle_gamma    90

_space_group_name_H-M_alt    "P 1"
_space_group_IT_number       1

loop_
  _space_group_symop_operation_xyz
  'x, y, z'

loop_
  _atom_site_type_symbol
  _atom_site_label
  _atom_site_symmetry_multiplicity
  _atom_site_fract_x
  _atom_site_fract_y
  _atom_site_fract_z
  _atom_site_occupancy
  Mn  Mn1       1.0  0.00000  0.50000  0.50000  1.0000
  Mn  Mn2       1.0  0.50000  0.50000  0.00000  1.0000
  Mn  Mn3       1.0  0.00000  0.00000  0.50000  1.0000
  Mn  Mn4       1.0  0.50000  0.00000  0.00000  1.0000
  N   N1        1.0  0.89837  0.52204  0.64734  1.0000
  N   N2        1.0  0.39837  0.52204  0.85266  1.0000
  N   N3        1.0  0.89837  0.97796  0.64734  1.0000
  N   N4        1.0  0.60163  0.02204  0.14734  1.0000
  N   N5        1.0  0.10163  0.47796  0.35266  1.0000
  N   N6        1.0  0.60163  0.47796  0.14734  1.0000
  N   N7        1.0  0.10163  0.02204  0.35266  1.0000
  N   N8        1.0  0.39837  0.97796  0.85266  1.0000
  N   N9        1.0  0.81500  0.55920  0.81570  1.0000
  N   N10       1.0  0.31500  0.55920  0.68430  1.0000
  N   N11       1.0  0.81500  0.94080  0.81570  1.0000
  N   N12       1.0  0.68500  0.05920  0.31570  1.0000
  N   N13       1.0  0.18500  0.44080  0.18430  1.0000
  N   N14       1.0  0.68500  0.44080  0.31570  1.0000
  N   N15       1.0  0.18500  0.05920  0.18430  1.0000
  N   N16       1.0  0.31500  0.94080  0.68430  1.0000
  N   N17       1.0  0.64947  0.52562  0.90551  1.0000
  N   N18       1.0  0.14947  0.52562  0.59449  1.0000
  N   N19       1.0  0.64947  0.97438  0.90551  1.0000
  N   N20       1.0  0.85053  0.02562  0.40551  1.0000
  N   N21       1.0  0.35053  0.47438  0.09449  1.0000
  N   N22       1.0  0.85053  0.47438  0.40551  1.0000
  N   N23       1.0  0.35053  0.02562  0.09449  1.0000
  N   N24       1.0  0.14947  0.97438  0.59449  1.0000
  N   N25       1.0  0.99040  0.62239  0.45350  1.0000
  N   N26       1.0  0.49040  0.62239  0.04650  1.0000
  N   N27       1.0  0.99040  0.87761  0.45350  1.0000
  N   N28       1.0  0.50960  0.12239  0.95350  1.0000
  N   N29       1.0  0.00960  0.37761  0.54650  1.0000
  N   N30       1.0  0.50960  0.37761  0.95350  1.0000
  N   N31       1.0  0.00960  0.12239  0.54650  1.0000
  N   N32       1.0  0.49040  0.87761  0.04650  1.0000
  N   N33       1.0  0.97250  0.75000  0.37570  1.0000
  N   N34       1.0  0.47250  0.75000  0.12430  1.0000
  N   N35       1.0  0.52750  0.25000  0.87570  1.0000
  N   N36       1.0  0.02750  0.25000  0.62430  1.0000
  C   C1        1.0  0.85420  0.53638  0.72454  1.0000
  C   C2        1.0  0.35420  0.53638  0.77546  1.0000
  C   C3        1.0  0.85420  0.96362  0.72454  1.0000
  C   C4        1.0  0.64580  0.03638  0.22454  1.0000
  C   C5        1.0  0.14580  0.46362  0.27546  1.0000
  C   C6        1.0  0.64580  0.46362  0.22454  1.0000
  C   C7        1.0  0.14580  0.03638  0.27546  1.0000
  C   C8        1.0  0.35420  0.96362  0.77546  1.0000
  C   C9        1.0  0.72516  0.53812  0.85852  1.0000
  C   C10       1.0  0.22516  0.53812  0.64148  1.0000
  C   C11       1.0  0.72516  0.96188  0.85852  1.0000
  C   C12       1.0  0.77484  0.03812  0.35852  1.0000
  C   C13       1.0  0.27484  0.46188  0.14148  1.0000
  C   C14       1.0  0.77484  0.46188  0.35852  1.0000
  C   C15       1.0  0.27484  0.03812  0.14148  1.0000
  C   C16       1.0  0.22516  0.96188  0.64148  1.0000
  C   C17       1.0  0.98212  0.68391  0.42275  1.0000
  C   C18       1.0  0.48212  0.68391  0.07725  1.0000
  C   C19       1.0  0.98212  0.81609  0.42275  1.0000
  C   C20       1.0  0.51788  0.18391  0.92275  1.0000
  C   C21       1.0  0.01788  0.31609  0.57725  1.0000
  C   C22       1.0  0.51788  0.31609  0.92275  1.0000
  C   C23       1.0  0.01788  0.18391  0.57725  1.0000
  C   C24       1.0  0.48212  0.81609  0.07725  1.0000
