data_image0
_chemical_formula_structural       Mn4N36C24
_chemical_formula_sum              "Mn4 N36 C24"
_cell_length_a       12.932
_cell_length_b       16.352
_cell_length_c       10.625
_cell_angle_alpha    90
_cell_angle_beta     90
_cell_angle_gamma    90

_space_group_name_H-M_alt    "P 1"
_space_group_IT_number       1

loop_
  _space_group_symop_operation_xyz
  'x, y, z'

loop_
  _atom_site_type_symbol
  _atom_site_label
  _atom_site_symmetry_multiplicity
  _atom_site_fract_x
  _atom_site_fract_y
  _atom_site_fract_z
  _atom_site_occupancy
  Mn  Mn1       1.0  0.50000  0.00000  0.50000  1.0000
  Mn  Mn2       1.0  0.00000  0.00000  0.00000  1.0000
  Mn  Mn3       1.0  0.50000  0.50000  0.50000  1.0000
  Mn  Mn4       1.0  0.00000  0.50000  0.00000  1.0000
  N   N1        1.0  0.41314  0.05256  0.66132  1.0000
  N   N2        1.0  0.08686  0.94744  0.16132  1.0000
  N   N3        1.0  0.58686  0.55256  0.33868  1.0000
  N   N4        1.0  0.91314  0.44744  0.83868  1.0000
  N   N5        1.0  0.58686  0.94744  0.33868  1.0000
  N   N6        1.0  0.91314  0.05256  0.83868  1.0000
  N   N7        1.0  0.41314  0.44744  0.66132  1.0000
  N   N8        1.0  0.08686  0.55256  0.16132  1.0000
  N   N9        1.0  0.31812  0.09215  0.84895  1.0000
  N   N10       1.0  0.18188  0.90785  0.34895  1.0000
  N   N11       1.0  0.68188  0.59215  0.15105  1.0000
  N   N12       1.0  0.81812  0.40785  0.65105  1.0000
  N   N13       1.0  0.68188  0.90785  0.15105  1.0000
  N   N14       1.0  0.81812  0.09215  0.65105  1.0000
  N   N15       1.0  0.31812  0.40785  0.84895  1.0000
  N   N16       1.0  0.18188  0.59215  0.34895  1.0000
  N   N17       1.0  0.15118  0.03867  0.91494  1.0000
  N   N18       1.0  0.34882  0.96133  0.41494  1.0000
  N   N19       1.0  0.84882  0.53867  0.08506  1.0000
  N   N20       1.0  0.65118  0.46133  0.58506  1.0000
  N   N21       1.0  0.84882  0.96133  0.08506  1.0000
  N   N22       1.0  0.65118  0.03867  0.58506  1.0000
  N   N23       1.0  0.15118  0.46133  0.91494  1.0000
  N   N24       1.0  0.34882  0.53867  0.41494  1.0000
  N   N25       1.0  0.50520  0.88256  0.59740  1.0000
  N   N26       1.0  0.99480  0.11744  0.09740  1.0000
  N   N27       1.0  0.49480  0.38256  0.40260  1.0000
  N   N28       1.0  0.00520  0.61744  0.90260  1.0000
  N   N29       1.0  0.49480  0.11744  0.40260  1.0000
  N   N30       1.0  0.00520  0.88256  0.90260  1.0000
  N   N31       1.0  0.50520  0.61744  0.59740  1.0000
  N   N32       1.0  0.99480  0.38256  0.09740  1.0000
  N   N33       1.0  0.48886  0.75000  0.70010  1.0000
  N   N34       1.0  0.01114  0.25000  0.20010  1.0000
  N   N35       1.0  0.51114  0.25000  0.29990  1.0000
  N   N36       1.0  0.98886  0.75000  0.79990  1.0000
  C   C1        1.0  0.36519  0.06778  0.74804  1.0000
  C   C2        1.0  0.13481  0.93222  0.24804  1.0000
  C   C3        1.0  0.63481  0.56778  0.25196  1.0000
  C   C4        1.0  0.86519  0.43222  0.75196  1.0000
  C   C5        1.0  0.63481  0.93222  0.25196  1.0000
  C   C6        1.0  0.86519  0.06778  0.75196  1.0000
  C   C7        1.0  0.36519  0.43222  0.74804  1.0000
  C   C8        1.0  0.13481  0.56778  0.24804  1.0000
  C   C9        1.0  0.22886  0.06086  0.87975  1.0000
  C   C10       1.0  0.27114  0.93914  0.37975  1.0000
  C   C11       1.0  0.77114  0.56086  0.12025  1.0000
  C   C12       1.0  0.72886  0.43914  0.62025  1.0000
  C   C13       1.0  0.77114  0.93914  0.12025  1.0000
  C   C14       1.0  0.72886  0.06086  0.62025  1.0000
  C   C15       1.0  0.22886  0.43914  0.87975  1.0000
  C   C16       1.0  0.27114  0.56086  0.37975  1.0000
  C   C17       1.0  0.49780  0.81870  0.64008  1.0000
  C   C18       1.0  0.00220  0.18130  0.14008  1.0000
  C   C19       1.0  0.50220  0.31870  0.35992  1.0000
  C   C20       1.0  0.99780  0.68130  0.85992  1.0000
  C   C21       1.0  0.50220  0.18130  0.35992  1.0000
  C   C22       1.0  0.99780  0.81870  0.85992  1.0000
  C   C23       1.0  0.49780  0.68130  0.64008  1.0000
  C   C24       1.0  0.00220  0.31870  0.14008  1.0000
