data_image0
_chemical_formula_structural       Ge18K4N2H4N2H4N2H4N2H4C2H4C2H4C2H4C2H4N2H4N2H4C2H4C2H4
_chemical_formula_sum              "Ge18 K4 N12 H48 C12"
_cell_length_a       9.408
_cell_length_b       13.606
_cell_length_c       19.507
_cell_angle_alpha    84.74
_cell_angle_beta     81.35
_cell_angle_gamma    80.18

_space_group_name_H-M_alt    "P 1"
_space_group_IT_number       1

loop_
  _space_group_symop_operation_xyz
  'x, y, z'

loop_
  _atom_site_type_symbol
  _atom_site_label
  _atom_site_symmetry_multiplicity
  _atom_site_fract_x
  _atom_site_fract_y
  _atom_site_fract_z
  _atom_site_occupancy
  Ge  Ge1       1.0  0.78786  0.40615  0.08890  1.0000
  Ge  Ge2       1.0  0.21214  0.59385  0.91110  1.0000
  Ge  Ge3       1.0  0.38091  0.45673  0.17495  1.0000
  Ge  Ge4       1.0  0.61909  0.54327  0.82505  1.0000
  Ge  Ge5       1.0  0.53917  0.48421  0.05940  1.0000
  Ge  Ge6       1.0  0.46083  0.51579  0.94060  1.0000
  Ge  Ge7       1.0  0.63308  0.36607  0.20963  1.0000
  Ge  Ge8       1.0  0.36692  0.63393  0.79037  1.0000
  Ge  Ge9       1.0  0.51204  0.53792  0.25557  1.0000
  Ge  Ge10      1.0  0.48796  0.46208  0.74443  1.0000
  Ge  Ge11      1.0  0.79905  0.50343  0.19306  1.0000
  Ge  Ge12      1.0  0.20095  0.49657  0.80694  1.0000
  Ge  Ge13      1.0  0.43036  0.64045  0.12954  1.0000
  Ge  Ge14      1.0  0.56964  0.35955  0.87046  1.0000
  Ge  Ge15      1.0  0.72121  0.60498  0.06794  1.0000
  Ge  Ge16      1.0  0.27879  0.39502  0.93206  1.0000
  Ge  Ge17      1.0  0.63867  0.67906  0.18785  1.0000
  Ge  Ge18      1.0  0.36133  0.32094  0.81215  1.0000
  K   K1        1.0  0.10440  0.55587  0.08275  1.0000
  K   K2        1.0  0.89560  0.44413  0.91725  1.0000
  K   K3        1.0  0.51770  0.75855  0.93901  1.0000
  K   K4        1.0  0.48230  0.24145  0.06099  1.0000
  N   N1        1.0  0.00190  0.75500  0.12240  1.0000
  N   N2        1.0  0.99810  0.24500  0.87760  1.0000
  H   H1        1.0  0.92130  0.75220  0.15340  1.0000
  H   H2        1.0  0.07870  0.24780  0.84660  1.0000
  H   H3        1.0  0.06940  0.77100  0.14570  1.0000
  H   H4        1.0  0.93060  0.22900  0.85430  1.0000
  N   N3        1.0  0.21960  0.81170  0.00760  1.0000
  N   N4        1.0  0.78040  0.18830  0.99240  1.0000
  H   H5        1.0  0.17460  0.78140  0.97980  1.0000
  H   H6        1.0  0.82540  0.21860  0.02020  1.0000
  H   H7        1.0  0.22560  0.76850  0.04530  1.0000
  H   H8        1.0  0.77440  0.23150  0.95470  1.0000
  N   N5        1.0  0.39650  0.89390  0.83450  1.0000
  N   N6        1.0  0.60350  0.10610  0.16550  1.0000
  H   H9        1.0  0.31230  0.92330  0.85770  1.0000
  H   H10       1.0  0.68770  0.07670  0.14230  1.0000
  H   H11       1.0  0.37000  0.85250  0.80690  1.0000
  H   H12       1.0  0.63000  0.14750  0.19310  1.0000
  N   N7        1.0  0.37320  0.09080  0.68760  1.0000
  N   N8        1.0  0.62680  0.90920  0.31240  1.0000
  H   H13       1.0  0.44820  0.11730  0.69120  1.0000
  H   H14       1.0  0.55180  0.88270  0.30880  1.0000
  H   H15       1.0  0.31870  0.11440  0.65640  1.0000
  H   H16       1.0  0.68130  0.88560  0.34360  1.0000
  C   C1        1.0  0.96570  0.84120  0.07250  1.0000
  C   C2        1.0  0.03430  0.15880  0.92750  1.0000
  H   H17       1.0  0.90780  0.89630  0.09730  1.0000
  H   H18       1.0  0.09220  0.10370  0.90270  1.0000
  H   H19       1.0  0.90870  0.82270  0.03970  1.0000
  H   H20       1.0  0.09130  0.17730  0.96030  1.0000
  C   C3        1.0  0.10680  0.87430  0.03300  1.0000
  C   C4        1.0  0.89320  0.12570  0.96700  1.0000
  H   H21       1.0  0.07810  0.91980  0.99440  1.0000
  H   H22       1.0  0.92190  0.08020  0.00560  1.0000
  H   H23       1.0  0.14170  0.91370  0.06400  1.0000
  H   H24       1.0  0.85830  0.08630  0.93600  1.0000
  C   C5        1.0  0.44110  0.97750  0.78310  1.0000
  C   C6        1.0  0.55890  0.02250  0.21690  1.0000
  H   H25       1.0  0.53680  0.95540  0.75810  1.0000
  H   H26       1.0  0.46320  0.04460  0.24190  1.0000
  H   H27       1.0  0.44720  0.03470  0.80820  1.0000
  H   H28       1.0  0.55280  0.96530  0.19180  1.0000
  C   C7        1.0  0.33880  0.00740  0.73400  1.0000
  C   C8        1.0  0.66120  0.99260  0.26600  1.0000
  H   H29       1.0  0.24200  0.02480  0.75920  1.0000
  H   H30       1.0  0.75800  0.97520  0.24080  1.0000
  H   H31       1.0  0.33760  0.95120  0.70690  1.0000
  H   H32       1.0  0.66240  0.04880  0.29310  1.0000
  N   N9        1.0  0.82140  0.74200  0.87700  1.0000
  N   N10       1.0  0.17860  0.25800  0.12300  1.0000
  H   H33       1.0  0.83820  0.68100  0.86010  1.0000
  H   H34       1.0  0.16180  0.31900  0.13990  1.0000
  H   H35       1.0  0.86810  0.73430  0.91460  1.0000
  H   H36       1.0  0.13190  0.26570  0.08540  1.0000
  N   N11       1.0  0.80900  0.91700  0.85000  1.0000
  N   N12       1.0  0.19100  0.08300  0.15000  1.0000
  H   H37       1.0  0.75130  0.87980  0.83990  1.0000
  H   H38       1.0  0.24870  0.12020  0.16010  1.0000
  H   H39       1.0  0.77480  0.97720  0.86170  1.0000
  H   H40       1.0  0.22520  0.02280  0.13830  1.0000
  C   C9        1.0  0.91100  0.79470  0.82880  1.0000
  C   C10       1.0  0.08900  0.20530  0.17120  1.0000
  H   H41       1.0  0.00120  0.74990  0.81570  1.0000
  H   H42       1.0  0.99880  0.25010  0.18430  1.0000
  H   H43       1.0  0.86400  0.81180  0.78740  1.0000
  H   H44       1.0  0.13600  0.18820  0.21260  1.0000
  C   C11       1.0  0.94800  0.88290  0.84920  1.0000
  C   C12       1.0  0.05200  0.11710  0.15080  1.0000
  H   H45       1.0  0.01080  0.91640  0.81420  1.0000
  H   H46       1.0  0.98920  0.08360  0.18580  1.0000
  H   H47       1.0  0.98140  0.87630  0.89420  1.0000
  H   H48       1.0  0.01860  0.12370  0.10580  1.0000
