data_image0
_chemical_formula_structural       Cd4Br8C8O8C16H8O8C8H8
_chemical_formula_sum              "Cd4 Br8 C32 O16 H16"
_cell_length_a       8.3071
_cell_length_b       14.655
_cell_length_c       18.056
_cell_angle_alpha    90
_cell_angle_beta     90
_cell_angle_gamma    90

_space_group_name_H-M_alt    "P 1"
_space_group_IT_number       1

loop_
  _space_group_symop_operation_xyz
  'x, y, z'

loop_
  _atom_site_type_symbol
  _atom_site_label
  _atom_site_symmetry_multiplicity
  _atom_site_fract_x
  _atom_site_fract_y
  _atom_site_fract_z
  _atom_site_occupancy
  Cd  Cd1       1.0  0.25000  0.75000  0.20562  1.0000
  Cd  Cd2       1.0  0.75000  0.25000  0.29438  1.0000
  Cd  Cd3       1.0  0.75000  0.25000  0.79438  1.0000
  Cd  Cd4       1.0  0.25000  0.75000  0.70562  1.0000
  Br  Br1       1.0  0.01278  0.77754  0.29845  1.0000
  Br  Br2       1.0  0.48722  0.72246  0.29845  1.0000
  Br  Br3       1.0  0.98722  0.27754  0.20155  1.0000
  Br  Br4       1.0  0.51278  0.22246  0.20155  1.0000
  Br  Br5       1.0  0.98722  0.22246  0.70155  1.0000
  Br  Br6       1.0  0.51278  0.27754  0.70155  1.0000
  Br  Br7       1.0  0.01278  0.72246  0.79845  1.0000
  Br  Br8       1.0  0.48722  0.77754  0.79845  1.0000
  C   C1        1.0  0.05350  0.56430  0.05130  1.0000
  C   C2        1.0  0.44650  0.93570  0.05130  1.0000
  C   C3        1.0  0.94650  0.06430  0.44870  1.0000
  C   C4        1.0  0.55350  0.43570  0.44870  1.0000
  C   C5        1.0  0.94650  0.43570  0.94870  1.0000
  C   C6        1.0  0.55350  0.06430  0.94870  1.0000
  C   C7        1.0  0.05350  0.93570  0.55130  1.0000
  C   C8        1.0  0.44650  0.56430  0.55130  1.0000
  O   O1        1.0  0.20570  0.60780  0.15680  1.0000
  O   O2        1.0  0.29430  0.89220  0.15680  1.0000
  O   O3        1.0  0.79430  0.10780  0.34320  1.0000
  O   O4        1.0  0.70570  0.39220  0.34320  1.0000
  O   O5        1.0  0.79430  0.39220  0.84320  1.0000
  O   O6        1.0  0.70570  0.10780  0.84320  1.0000
  O   O7        1.0  0.20570  0.89220  0.65680  1.0000
  O   O8        1.0  0.29430  0.60780  0.65680  1.0000
  C   C9        1.0  0.11130  0.63380  0.10640  1.0000
  C   C10       1.0  0.38870  0.86620  0.10640  1.0000
  C   C11       1.0  0.88870  0.13380  0.39360  1.0000
  C   C12       1.0  0.61130  0.36620  0.39360  1.0000
  C   C13       1.0  0.88870  0.36620  0.89360  1.0000
  C   C14       1.0  0.61130  0.13380  0.89360  1.0000
  C   C15       1.0  0.11130  0.86620  0.60640  1.0000
  C   C16       1.0  0.38870  0.63380  0.60640  1.0000
  C   C17       1.0  0.08850  0.47230  0.06110  1.0000
  C   C18       1.0  0.41150  0.02770  0.06110  1.0000
  C   C19       1.0  0.91150  0.97230  0.43890  1.0000
  C   C20       1.0  0.58850  0.52770  0.43890  1.0000
  C   C21       1.0  0.91150  0.52770  0.93890  1.0000
  C   C22       1.0  0.58850  0.97230  0.93890  1.0000
  C   C23       1.0  0.08850  0.02770  0.56110  1.0000
  C   C24       1.0  0.41150  0.47230  0.56110  1.0000
  H   H1        1.0  0.14760  0.45340  0.10210  1.0000
  H   H2        1.0  0.35240  0.04660  0.10210  1.0000
  H   H3        1.0  0.85240  0.95340  0.39790  1.0000
  H   H4        1.0  0.64760  0.54660  0.39790  1.0000
  H   H5        1.0  0.85240  0.54660  0.89790  1.0000
  H   H6        1.0  0.64760  0.95340  0.89790  1.0000
  H   H7        1.0  0.14760  0.04660  0.60210  1.0000
  H   H8        1.0  0.35240  0.45340  0.60210  1.0000
  O   O9        1.0  0.06540  0.71350  0.10050  1.0000
  O   O10       1.0  0.43460  0.78650  0.10050  1.0000
  O   O11       1.0  0.93460  0.21350  0.39950  1.0000
  O   O12       1.0  0.56540  0.28650  0.39950  1.0000
  O   O13       1.0  0.93460  0.28650  0.89950  1.0000
  O   O14       1.0  0.56540  0.21350  0.89950  1.0000
  O   O15       1.0  0.06540  0.78650  0.60050  1.0000
  O   O16       1.0  0.43460  0.71350  0.60050  1.0000
  C   C25       1.0  0.96480  0.59140  0.99030  1.0000
  C   C26       1.0  0.53520  0.90860  0.99030  1.0000
  C   C27       1.0  0.03520  0.09140  0.50970  1.0000
  C   C28       1.0  0.46480  0.40860  0.50970  1.0000
  C   C29       1.0  0.03520  0.40860  0.00970  1.0000
  C   C30       1.0  0.46480  0.09140  0.00970  1.0000
  C   C31       1.0  0.96480  0.90860  0.49030  1.0000
  C   C32       1.0  0.53520  0.59140  0.49030  1.0000
  H   H9        1.0  0.94070  0.65280  0.98370  1.0000
  H   H10       1.0  0.55930  0.84720  0.98370  1.0000
  H   H11       1.0  0.05930  0.15280  0.51630  1.0000
  H   H12       1.0  0.44070  0.34720  0.51630  1.0000
  H   H13       1.0  0.05930  0.34720  0.01630  1.0000
  H   H14       1.0  0.44070  0.15280  0.01630  1.0000
  H   H15       1.0  0.94070  0.84720  0.48370  1.0000
  H   H16       1.0  0.55930  0.65280  0.48370  1.0000
