data_image0
_chemical_formula_structural       U4O28H4O12C8H4C4H4C8H4C4H4C4H4C4H4C24H4C4H4C8H4C4H4C4H4C4H4C16U4O28H4O12C8H4C4H4C8H4C4H4C4H4C4H4C24H4C4H4C8H4C4H4C4H4C4H4C16
_chemical_formula_sum              "U8 O80 H104 C192"
_cell_length_a       19.736
_cell_length_b       13.954
_cell_length_c       21.808
_cell_angle_alpha    90
_cell_angle_beta     90
_cell_angle_gamma    90

_space_group_name_H-M_alt    "P 1"
_space_group_IT_number       1

loop_
  _space_group_symop_operation_xyz
  'x, y, z'

loop_
  _atom_site_type_symbol
  _atom_site_label
  _atom_site_symmetry_multiplicity
  _atom_site_fract_x
  _atom_site_fract_y
  _atom_site_fract_z
  _atom_site_occupancy
  U   U1        1.0  0.59060  0.96183  0.75861  1.0000
  U   U2        1.0  0.40940  0.03817  0.25861  1.0000
  U   U3        1.0  0.90940  0.46183  0.25861  1.0000
  U   U4        1.0  0.09060  0.53817  0.75861  1.0000
  O   O1        1.0  0.52660  0.80990  0.75910  1.0000
  O   O2        1.0  0.47340  0.19010  0.25910  1.0000
  O   O3        1.0  0.97340  0.30990  0.25910  1.0000
  O   O4        1.0  0.02660  0.69010  0.75910  1.0000
  O   O5        1.0  0.46560  0.93850  0.75140  1.0000
  O   O6        1.0  0.53440  0.06150  0.25140  1.0000
  O   O7        1.0  0.03440  0.43850  0.25140  1.0000
  O   O8        1.0  0.96560  0.56150  0.75140  1.0000
  O   O9        1.0  0.16190  0.68330  0.74950  1.0000
  O   O10       1.0  0.83810  0.31670  0.24950  1.0000
  O   O11       1.0  0.33810  0.18330  0.24950  1.0000
  O   O12       1.0  0.66190  0.81670  0.74950  1.0000
  O   O13       1.0  0.21480  0.54750  0.76580  1.0000
  O   O14       1.0  0.78520  0.45250  0.26580  1.0000
  O   O15       1.0  0.28520  0.04750  0.26580  1.0000
  O   O16       1.0  0.71480  0.95250  0.76580  1.0000
  O   O17       1.0  0.52760  0.11230  0.76260  1.0000
  O   O18       1.0  0.47240  0.88770  0.26260  1.0000
  O   O19       1.0  0.97240  0.61230  0.26260  1.0000
  O   O20       1.0  0.02760  0.38770  0.76260  1.0000
  O   O21       1.0  0.63680  0.12830  0.75690  1.0000
  O   O22       1.0  0.36320  0.87170  0.25690  1.0000
  O   O23       1.0  0.86320  0.62830  0.25690  1.0000
  O   O24       1.0  0.13680  0.37170  0.75690  1.0000
  O   O25       1.0  0.60930  0.62460  0.74330  1.0000
  O   O26       1.0  0.39070  0.37540  0.24330  1.0000
  O   O27       1.0  0.89070  0.12460  0.24330  1.0000
  O   O28       1.0  0.10930  0.87540  0.74330  1.0000
  H   H1        1.0  0.62660  0.68813  0.74480  1.0000
  H   H2        1.0  0.37340  0.31187  0.24480  1.0000
  H   H3        1.0  0.87340  0.18813  0.24480  1.0000
  H   H4        1.0  0.12660  0.81187  0.74480  1.0000
  O   O29       1.0  0.52200  0.61370  0.67940  1.0000
  O   O30       1.0  0.47800  0.38630  0.17940  1.0000
  O   O31       1.0  0.97800  0.11370  0.17940  1.0000
  O   O32       1.0  0.02200  0.88630  0.67940  1.0000
  O   O33       1.0  0.58930  0.96000  0.84640  1.0000
  O   O34       1.0  0.41070  0.04000  0.34640  1.0000
  O   O35       1.0  0.91070  0.46000  0.34640  1.0000
  O   O36       1.0  0.08930  0.54000  0.84640  1.0000
  O   O37       1.0  0.59170  0.96480  0.68410  1.0000
  O   O38       1.0  0.40830  0.03520  0.18410  1.0000
  O   O39       1.0  0.90830  0.46480  0.18410  1.0000
  O   O40       1.0  0.09170  0.53520  0.68410  1.0000
  C   C1        1.0  0.40550  0.79120  0.76070  1.0000
  C   C2        1.0  0.59450  0.20880  0.26070  1.0000
  C   C3        1.0  0.09450  0.29120  0.26070  1.0000
  C   C4        1.0  0.90550  0.70880  0.76070  1.0000
  C   C5        1.0  0.35320  0.81410  0.72130  1.0000
  C   C6        1.0  0.64680  0.18590  0.22130  1.0000
  C   C7        1.0  0.14680  0.31410  0.22130  1.0000
  C   C8        1.0  0.85320  0.68590  0.72130  1.0000
  H   H5        1.0  0.35963  0.86242  0.69257  1.0000
  H   H6        1.0  0.64037  0.13758  0.19257  1.0000
  H   H7        1.0  0.14037  0.36242  0.19257  1.0000
  H   H8        1.0  0.85963  0.63758  0.69257  1.0000
  C   C9        1.0  0.29090  0.76680  0.72350  1.0000
  C   C10       1.0  0.70910  0.23320  0.22350  1.0000
  C   C11       1.0  0.20910  0.26680  0.22350  1.0000
  C   C12       1.0  0.79090  0.73320  0.72350  1.0000
  H   H9        1.0  0.25581  0.78542  0.69759  1.0000
  H   H10       1.0  0.74419  0.21458  0.19759  1.0000
  H   H11       1.0  0.24419  0.28542  0.19759  1.0000
  H   H12       1.0  0.75581  0.71458  0.69759  1.0000
  C   C13       1.0  0.28160  0.69120  0.76490  1.0000
  C   C14       1.0  0.71840  0.30880  0.26490  1.0000
  C   C15       1.0  0.21840  0.19120  0.26490  1.0000
  C   C16       1.0  0.78160  0.80880  0.76490  1.0000
  C   C17       1.0  0.32180  0.60350  0.86050  1.0000
  C   C18       1.0  0.67820  0.39650  0.36050  1.0000
  C   C19       1.0  0.17820  0.10350  0.36050  1.0000
  C   C20       1.0  0.82180  0.89650  0.86050  1.0000
  H   H13       1.0  0.28051  0.57204  0.86413  1.0000
  H   H14       1.0  0.71949  0.42796  0.36413  1.0000
  H   H15       1.0  0.21949  0.07204  0.36413  1.0000
  H   H16       1.0  0.78051  0.92796  0.86413  1.0000
  C   C21       1.0  0.37060  0.58850  0.90160  1.0000
  C   C22       1.0  0.62940  0.41150  0.40160  1.0000
  C   C23       1.0  0.12940  0.08850  0.40160  1.0000
  C   C24       1.0  0.87060  0.91150  0.90160  1.0000
  H   H17       1.0  0.36176  0.54744  0.93424  1.0000
  H   H18       1.0  0.63824  0.45256  0.43424  1.0000
  H   H19       1.0  0.13824  0.04744  0.43424  1.0000
  H   H20       1.0  0.86176  0.95256  0.93424  1.0000
  C   C25       1.0  0.43430  0.63170  0.89800  1.0000
  C   C26       1.0  0.56570  0.36830  0.39800  1.0000
  C   C27       1.0  0.06570  0.13170  0.39800  1.0000
  C   C28       1.0  0.93430  0.86830  0.89800  1.0000
  H   H21       1.0  0.46742  0.61882  0.92720  1.0000
  H   H22       1.0  0.53258  0.38118  0.42720  1.0000
  H   H23       1.0  0.03258  0.11882  0.42720  1.0000
  H   H24       1.0  0.96742  0.88118  0.92720  1.0000
  C   C29       1.0  0.44660  0.69260  0.85120  1.0000
  C   C30       1.0  0.55340  0.30740  0.35120  1.0000
  C   C31       1.0  0.05340  0.19260  0.35120  1.0000
  C   C32       1.0  0.94660  0.80740  0.85120  1.0000
  H   H25       1.0  0.48937  0.72015  0.84817  1.0000
  H   H26       1.0  0.51063  0.27985  0.34817  1.0000
  H   H27       1.0  0.01063  0.22015  0.34817  1.0000
  H   H28       1.0  0.98937  0.77985  0.84817  1.0000
  C   C33       1.0  0.33340  0.66920  0.80990  1.0000
  C   C34       1.0  0.66660  0.33080  0.30990  1.0000
  C   C35       1.0  0.16660  0.16920  0.30990  1.0000
  C   C36       1.0  0.83340  0.83080  0.80990  1.0000
  C   C37       1.0  0.39670  0.71670  0.80580  1.0000
  C   C38       1.0  0.60330  0.28330  0.30580  1.0000
  C   C39       1.0  0.10330  0.21670  0.30580  1.0000
  C   C40       1.0  0.89670  0.78330  0.80580  1.0000
  C   C41       1.0  0.46990  0.84920  0.75850  1.0000
  C   C42       1.0  0.53010  0.15080  0.25850  1.0000
  C   C43       1.0  0.03010  0.34920  0.25850  1.0000
  C   C44       1.0  0.96990  0.65080  0.75850  1.0000
  C   C45       1.0  0.21700  0.63730  0.76280  1.0000
  C   C46       1.0  0.78300  0.36270  0.26280  1.0000
  C   C47       1.0  0.28300  0.13730  0.26280  1.0000
  C   C48       1.0  0.71700  0.86270  0.76280  1.0000
  C   C49       1.0  0.56540  0.27400  0.74700  1.0000
  C   C50       1.0  0.43460  0.72600  0.24700  1.0000
  C   C51       1.0  0.93460  0.77400  0.24700  1.0000
  C   C52       1.0  0.06540  0.22600  0.74700  1.0000
  C   C53       1.0  0.62250  0.32400  0.73510  1.0000
  C   C54       1.0  0.37750  0.67600  0.23510  1.0000
  C   C55       1.0  0.87750  0.82400  0.23510  1.0000
  C   C56       1.0  0.12250  0.17600  0.73510  1.0000
  H   H29       1.0  0.66376  0.29221  0.73221  1.0000
  H   H30       1.0  0.33624  0.70779  0.23221  1.0000
  H   H31       1.0  0.83624  0.79221  0.23221  1.0000
  H   H32       1.0  0.16376  0.20779  0.73221  1.0000
  C   C57       1.0  0.62000  0.42800  0.72680  1.0000
  C   C58       1.0  0.38000  0.57200  0.22680  1.0000
  C   C59       1.0  0.88000  0.92800  0.22680  1.0000
  C   C60       1.0  0.12000  0.07200  0.72680  1.0000
  H   H33       1.0  0.65890  0.46271  0.71997  1.0000
  H   H34       1.0  0.34110  0.53729  0.21997  1.0000
  H   H35       1.0  0.84110  0.96271  0.21997  1.0000
  H   H36       1.0  0.15890  0.03729  0.71997  1.0000
  C   C61       1.0  0.56100  0.47000  0.72920  1.0000
  C   C62       1.0  0.43900  0.53000  0.22920  1.0000
  C   C63       1.0  0.93900  0.97000  0.22920  1.0000
  C   C64       1.0  0.06100  0.03000  0.72920  1.0000
  C   C65       1.0  0.43900  0.47300  0.74600  1.0000
  C   C66       1.0  0.56100  0.52700  0.24600  1.0000
  C   C67       1.0  0.06100  0.97300  0.24600  1.0000
  C   C68       1.0  0.93900  0.02700  0.74600  1.0000
  H   H37       1.0  0.43843  0.53946  0.74230  1.0000
  H   H38       1.0  0.56157  0.46054  0.24230  1.0000
  H   H39       1.0  0.06157  0.03946  0.24230  1.0000
  H   H40       1.0  0.93843  0.96054  0.74230  1.0000
  C   C69       1.0  0.37800  0.42100  0.75800  1.0000
  C   C70       1.0  0.62200  0.57900  0.25800  1.0000
  C   C71       1.0  0.12200  0.92100  0.25800  1.0000
  C   C72       1.0  0.87800  0.07900  0.75800  1.0000
  H   H41       1.0  0.33606  0.45211  0.75991  1.0000
  H   H42       1.0  0.66394  0.54789  0.25991  1.0000
  H   H43       1.0  0.16394  0.95211  0.25991  1.0000
  H   H44       1.0  0.83606  0.04789  0.75991  1.0000
  C   C73       1.0  0.38300  0.32700  0.76500  1.0000
  C   C74       1.0  0.61700  0.67300  0.26500  1.0000
  C   C75       1.0  0.11700  0.82700  0.26500  1.0000
  C   C76       1.0  0.88300  0.17300  0.76500  1.0000
  H   H45       1.0  0.34365  0.29324  0.77338  1.0000
  H   H46       1.0  0.65635  0.70676  0.27338  1.0000
  H   H47       1.0  0.15635  0.79324  0.27338  1.0000
  H   H48       1.0  0.84365  0.20676  0.77338  1.0000
  C   C77       1.0  0.44130  0.27500  0.76050  1.0000
  C   C78       1.0  0.55870  0.72500  0.26050  1.0000
  C   C79       1.0  0.05870  0.77500  0.26050  1.0000
  C   C80       1.0  0.94130  0.22500  0.76050  1.0000
  H   H49       1.0  0.43935  0.20858  0.76494  1.0000
  H   H50       1.0  0.56065  0.79142  0.26494  1.0000
  H   H51       1.0  0.06065  0.70858  0.26494  1.0000
  H   H52       1.0  0.93935  0.29142  0.76494  1.0000
  C   C81       1.0  0.50000  0.42270  0.74030  1.0000
  C   C82       1.0  0.50000  0.57730  0.24030  1.0000
  C   C83       1.0  0.00000  0.92270  0.24030  1.0000
  C   C84       1.0  0.00000  0.07730  0.74030  1.0000
  C   C85       1.0  0.50290  0.31790  0.74970  1.0000
  C   C86       1.0  0.49710  0.68210  0.24970  1.0000
  C   C87       1.0  0.99710  0.81790  0.24970  1.0000
  C   C88       1.0  0.00290  0.18210  0.74970  1.0000
  C   C89       1.0  0.57610  0.16610  0.75560  1.0000
  C   C90       1.0  0.42390  0.83390  0.25560  1.0000
  C   C91       1.0  0.92390  0.66610  0.25560  1.0000
  C   C92       1.0  0.07610  0.33390  0.75560  1.0000
  C   C93       1.0  0.55800  0.57800  0.71420  1.0000
  C   C94       1.0  0.44200  0.42200  0.21420  1.0000
  C   C95       1.0  0.94200  0.07800  0.21420  1.0000
  C   C96       1.0  0.05800  0.92200  0.71420  1.0000
  U   U5        1.0  0.25426  0.95714  0.55823  1.0000
  U   U6        1.0  0.74574  0.04286  0.05823  1.0000
  U   U7        1.0  0.24574  0.45714  0.05823  1.0000
  U   U8        1.0  0.75426  0.54286  0.55823  1.0000
  O   O41       1.0  0.18950  0.80430  0.56380  1.0000
  O   O42       1.0  0.81050  0.19570  0.06380  1.0000
  O   O43       1.0  0.31050  0.30430  0.06380  1.0000
  O   O44       1.0  0.68950  0.69570  0.56380  1.0000
  O   O45       1.0  0.13160  0.93400  0.54640  1.0000
  O   O46       1.0  0.86840  0.06600  0.04640  1.0000
  O   O47       1.0  0.36840  0.43400  0.04640  1.0000
  O   O48       1.0  0.63160  0.56600  0.54640  1.0000
  O   O49       1.0  0.87870  0.54800  0.56460  1.0000
  O   O50       1.0  0.12130  0.45200  0.06460  1.0000
  O   O51       1.0  0.62130  0.04800  0.06460  1.0000
  O   O52       1.0  0.37870  0.95200  0.56460  1.0000
  O   O53       1.0  0.82720  0.68550  0.55850  1.0000
  O   O54       1.0  0.17280  0.31450  0.05850  1.0000
  O   O55       1.0  0.67280  0.18550  0.05850  1.0000
  O   O56       1.0  0.32720  0.81450  0.55850  1.0000
  O   O57       1.0  0.19320  0.11300  0.55820  1.0000
  O   O58       1.0  0.80680  0.88700  0.05820  1.0000
  O   O59       1.0  0.30680  0.61300  0.05820  1.0000
  O   O60       1.0  0.69320  0.38700  0.55820  1.0000
  O   O61       1.0  0.30280  0.11760  0.55650  1.0000
  O   O62       1.0  0.69720  0.88240  0.05650  1.0000
  O   O63       1.0  0.19720  0.61760  0.05650  1.0000
  O   O64       1.0  0.80280  0.38240  0.55650  1.0000
  O   O65       1.0  0.22830  0.61950  0.57950  1.0000
  O   O66       1.0  0.77170  0.38050  0.07950  1.0000
  O   O67       1.0  0.27170  0.11950  0.07950  1.0000
  O   O68       1.0  0.72830  0.88050  0.57950  1.0000
  H   H53       1.0  0.21487  0.68434  0.57406  1.0000
  H   H54       1.0  0.78513  0.31566  0.07406  1.0000
  H   H55       1.0  0.28513  0.18434  0.07406  1.0000
  H   H56       1.0  0.71487  0.81566  0.57406  1.0000
  O   O69       1.0  0.22600  0.61160  0.47800  1.0000
  O   O70       1.0  0.77400  0.38840  0.97800  1.0000
  O   O71       1.0  0.27400  0.11160  0.97800  1.0000
  O   O72       1.0  0.72600  0.88840  0.47800  1.0000
  O   O73       1.0  0.25840  0.95450  0.48210  1.0000
  O   O74       1.0  0.74160  0.04550  0.98210  1.0000
  O   O75       1.0  0.24160  0.45450  0.98210  1.0000
  O   O76       1.0  0.75840  0.54550  0.48210  1.0000
  O   O77       1.0  0.25110  0.96270  0.64540  1.0000
  O   O78       1.0  0.74890  0.03730  0.14540  1.0000
  O   O79       1.0  0.24890  0.46270  0.14540  1.0000
  O   O80       1.0  0.75110  0.53730  0.64540  1.0000
  C   C97       1.0  0.07090  0.78470  0.54520  1.0000
  C   C98       1.0  0.92910  0.21530  0.04520  1.0000
  C   C99       1.0  0.42910  0.28470  0.04520  1.0000
  C   C100      1.0  0.57090  0.71530  0.54520  1.0000
  C   C101      1.0  0.06040  0.71340  0.58940  1.0000
  C   C102      1.0  0.93960  0.28660  0.08940  1.0000
  C   C103      1.0  0.43960  0.21340  0.08940  1.0000
  C   C104      1.0  0.56040  0.78660  0.58940  1.0000
  H   H57       1.0  0.09387  0.69936  0.61806  1.0000
  H   H58       1.0  0.90613  0.30064  0.11806  1.0000
  H   H59       1.0  0.40613  0.19936  0.11806  1.0000
  H   H60       1.0  0.59387  0.80064  0.61806  1.0000
  C   C105      1.0  0.99860  0.66360  0.58980  1.0000
  C   C106      1.0  0.00140  0.33640  0.08980  1.0000
  C   C107      1.0  0.50140  0.16360  0.08980  1.0000
  C   C108      1.0  0.49860  0.83640  0.58980  1.0000
  H   H61       1.0  0.99186  0.61496  0.61835  1.0000
  H   H62       1.0  0.00814  0.38504  0.11835  1.0000
  H   H63       1.0  0.50814  0.11496  0.11835  1.0000
  H   H64       1.0  0.49186  0.88504  0.61835  1.0000
  C   C109      1.0  0.94820  0.68480  0.54940  1.0000
  C   C110      1.0  0.05180  0.31520  0.04940  1.0000
  C   C111      1.0  0.55180  0.18480  0.04940  1.0000
  C   C112      1.0  0.44820  0.81520  0.54940  1.0000
  C   C113      1.0  0.91010  0.77410  0.45370  1.0000
  C   C114      1.0  0.08990  0.22590  0.95370  1.0000
  C   C115      1.0  0.58990  0.27410  0.95370  1.0000
  C   C116      1.0  0.41010  0.72590  0.45370  1.0000
  H   H65       1.0  0.86859  0.74257  0.45420  1.0000
  H   H66       1.0  0.13141  0.25743  0.95420  1.0000
  H   H67       1.0  0.63141  0.24257  0.95420  1.0000
  H   H68       1.0  0.36859  0.75743  0.45420  1.0000
  C   C117      1.0  0.92310  0.83700  0.40920  1.0000
  C   C118      1.0  0.07690  0.16300  0.90920  1.0000
  C   C119      1.0  0.57690  0.33700  0.90920  1.0000
  C   C120      1.0  0.42310  0.66300  0.40920  1.0000
  H   H69       1.0  0.89014  0.84746  0.37957  1.0000
  H   H70       1.0  0.10986  0.15254  0.87957  1.0000
  H   H71       1.0  0.60986  0.34746  0.87957  1.0000
  H   H72       1.0  0.39014  0.65254  0.37957  1.0000
  C   C121      1.0  0.98340  0.88600  0.40520  1.0000
  C   C122      1.0  0.01660  0.11400  0.90520  1.0000
  C   C123      1.0  0.51660  0.38600  0.90520  1.0000
  C   C124      1.0  0.48340  0.61400  0.40520  1.0000
  H   H73       1.0  0.99195  0.92722  0.37282  1.0000
  H   H74       1.0  0.00805  0.07278  0.87282  1.0000
  H   H75       1.0  0.50805  0.42722  0.87282  1.0000
  H   H76       1.0  0.49195  0.57278  0.37282  1.0000
  C   C125      1.0  0.03000  0.87090  0.45010  1.0000
  C   C126      1.0  0.97000  0.12910  0.95010  1.0000
  C   C127      1.0  0.47000  0.37090  0.95010  1.0000
  C   C128      1.0  0.53000  0.62910  0.45010  1.0000
  H   H77       1.0  0.07014  0.90567  0.44856  1.0000
  H   H78       1.0  0.92986  0.09433  0.94856  1.0000
  H   H79       1.0  0.42986  0.40567  0.94856  1.0000
  H   H80       1.0  0.57014  0.59433  0.44856  1.0000
  C   C129      1.0  0.95820  0.75420  0.50080  1.0000
  C   C130      1.0  0.04180  0.24580  0.00080  1.0000
  C   C131      1.0  0.54180  0.25420  0.00080  1.0000
  C   C132      1.0  0.45820  0.74580  0.50080  1.0000
  C   C133      1.0  0.02080  0.80560  0.49910  1.0000
  C   C134      1.0  0.97920  0.19440  0.99910  1.0000
  C   C135      1.0  0.47920  0.30560  0.99910  1.0000
  C   C136      1.0  0.52080  0.69440  0.49910  1.0000
  C   C137      1.0  0.13400  0.84250  0.55330  1.0000
  C   C138      1.0  0.86600  0.15750  0.05330  1.0000
  C   C139      1.0  0.36600  0.34250  0.05330  1.0000
  C   C140      1.0  0.63400  0.65750  0.55330  1.0000
  C   C141      1.0  0.88180  0.63660  0.55880  1.0000
  C   C142      1.0  0.11820  0.36340  0.05880  1.0000
  C   C143      1.0  0.61820  0.13660  0.05880  1.0000
  C   C144      1.0  0.38180  0.86340  0.55880  1.0000
  C   C145      1.0  0.24430  0.26650  0.54520  1.0000
  C   C146      1.0  0.75570  0.73350  0.04520  1.0000
  C   C147      1.0  0.25570  0.76650  0.04520  1.0000
  C   C148      1.0  0.74430  0.23350  0.54520  1.0000
  C   C149      1.0  0.21380  0.32350  0.58760  1.0000
  C   C150      1.0  0.78620  0.67650  0.08760  1.0000
  C   C151      1.0  0.28620  0.82350  0.08760  1.0000
  C   C152      1.0  0.71380  0.17650  0.58760  1.0000
  H   H81       1.0  0.19304  0.29356  0.62074  1.0000
  H   H82       1.0  0.80696  0.70644  0.12074  1.0000
  H   H83       1.0  0.30696  0.79356  0.12074  1.0000
  H   H84       1.0  0.69304  0.20644  0.62074  1.0000
  C   C153      1.0  0.21130  0.42250  0.58520  1.0000
  C   C154      1.0  0.78870  0.57750  0.08520  1.0000
  C   C155      1.0  0.28870  0.92250  0.08520  1.0000
  C   C156      1.0  0.71130  0.07750  0.58520  1.0000
  H   H85       1.0  0.19051  0.45832  0.61592  1.0000
  H   H86       1.0  0.80949  0.54168  0.11592  1.0000
  H   H87       1.0  0.30949  0.95832  0.11592  1.0000
  H   H88       1.0  0.69051  0.04168  0.61592  1.0000
  C   C157      1.0  0.24200  0.46670  0.53350  1.0000
  C   C158      1.0  0.75800  0.53330  0.03350  1.0000
  C   C159      1.0  0.25800  0.96670  0.03350  1.0000
  C   C160      1.0  0.74200  0.03330  0.53350  1.0000
  C   C161      1.0  0.31200  0.45390  0.43970  1.0000
  C   C162      1.0  0.68800  0.54610  0.93970  1.0000
  C   C163      1.0  0.18800  0.95390  0.93970  1.0000
  C   C164      1.0  0.81200  0.04610  0.43970  1.0000
  H   H89       1.0  0.31241  0.52031  0.43577  1.0000
  H   H90       1.0  0.68759  0.47969  0.93577  1.0000
  H   H91       1.0  0.18759  0.02031  0.93577  1.0000
  H   H92       1.0  0.81241  0.97969  0.43577  1.0000
  C   C165      1.0  0.34800  0.39900  0.39640  1.0000
  C   C166      1.0  0.65200  0.60100  0.89640  1.0000
  C   C167      1.0  0.15200  0.89900  0.89640  1.0000
  C   C168      1.0  0.84800  0.10100  0.39640  1.0000
  H   H93       1.0  0.37195  0.42848  0.36518  1.0000
  H   H94       1.0  0.62805  0.57152  0.86518  1.0000
  H   H95       1.0  0.12805  0.92848  0.86518  1.0000
  H   H96       1.0  0.87195  0.07152  0.36518  1.0000
  C   C169      1.0  0.34660  0.29900  0.40040  1.0000
  C   C170      1.0  0.65340  0.70100  0.90040  1.0000
  C   C171      1.0  0.15340  0.79900  0.90040  1.0000
  C   C172      1.0  0.84660  0.20100  0.40040  1.0000
  H   H97       1.0  0.36859  0.26122  0.37142  1.0000
  H   H98       1.0  0.63141  0.73878  0.87142  1.0000
  H   H99       1.0  0.13141  0.76122  0.87142  1.0000
  H   H100      1.0  0.86859  0.23878  0.37142  1.0000
  C   C173      1.0  0.31250  0.25850  0.44760  1.0000
  C   C174      1.0  0.68750  0.74150  0.94760  1.0000
  C   C175      1.0  0.18750  0.75850  0.94760  1.0000
  C   C176      1.0  0.81250  0.24150  0.44760  1.0000
  H   H101      1.0  0.31122  0.19198  0.44977  1.0000
  H   H102      1.0  0.68878  0.80802  0.94977  1.0000
  H   H103      1.0  0.18878  0.69198  0.94977  1.0000
  H   H104      1.0  0.81122  0.30802  0.44977  1.0000
  C   C177      1.0  0.27810  0.41280  0.48750  1.0000
  C   C178      1.0  0.72190  0.58720  0.98750  1.0000
  C   C179      1.0  0.22190  0.91280  0.98750  1.0000
  C   C180      1.0  0.77810  0.08720  0.48750  1.0000
  C   C181      1.0  0.27910  0.31060  0.49340  1.0000
  C   C182      1.0  0.72090  0.68940  0.99340  1.0000
  C   C183      1.0  0.22090  0.81060  0.99340  1.0000
  C   C184      1.0  0.77910  0.18940  0.49340  1.0000
  C   C185      1.0  0.24670  0.16010  0.55400  1.0000
  C   C186      1.0  0.75330  0.83990  0.05400  1.0000
  C   C187      1.0  0.25330  0.66010  0.05400  1.0000
  C   C188      1.0  0.74670  0.33990  0.55400  1.0000
  C   C189      1.0  0.23140  0.57090  0.52670  1.0000
  C   C190      1.0  0.76860  0.42910  0.02670  1.0000
  C   C191      1.0  0.26860  0.07090  0.02670  1.0000
  C   C192      1.0  0.73140  0.92910  0.52670  1.0000
