data_image0
_chemical_formula_structural       C24O48Mn4Cr4
_chemical_formula_sum              "C24 O48 Mn4 Cr4"
_cell_length_a       9.2943
_cell_length_b       32.5932
_cell_length_c       11.8266
_cell_angle_alpha    90
_cell_angle_beta     90.608
_cell_angle_gamma    90

_space_group_name_H-M_alt    "P 1"
_space_group_IT_number       1

loop_
  _space_group_symop_operation_xyz
  'x, y, z'

loop_
  _atom_site_type_symbol
  _atom_site_label
  _atom_site_symmetry_multiplicity
  _atom_site_fract_x
  _atom_site_fract_y
  _atom_site_fract_z
  _atom_site_occupancy
  C   C1        1.0  0.28410  0.90819  0.89780  1.0000
  C   C2        1.0  0.71590  0.40819  0.10220  1.0000
  C   C3        1.0  0.24080  0.93051  0.00670  1.0000
  C   C4        1.0  0.75920  0.43051  0.99330  1.0000
  C   C5        1.0  0.46530  0.04143  0.91590  1.0000
  C   C6        1.0  0.53470  0.54143  0.08410  1.0000
  C   C7        1.0  0.55530  0.03756  0.02840  1.0000
  C   C8        1.0  0.44470  0.53756  0.97160  1.0000
  C   C9        1.0  0.23020  0.15602  0.05740  1.0000
  C   C10       1.0  0.76980  0.65602  0.94260  1.0000
  C   C11       1.0  0.27040  0.17842  0.94720  1.0000
  C   C12       1.0  0.72960  0.67842  0.05280  1.0000
  C   C13       1.0  0.04940  0.78864  0.02920  1.0000
  C   C14       1.0  0.95060  0.28864  0.97080  1.0000
  C   C15       1.0  0.95580  0.78787  0.92390  1.0000
  C   C16       1.0  0.04420  0.28787  0.07610  1.0000
  C   C17       1.0  0.74680  0.17521  0.06420  1.0000
  C   C18       1.0  0.25320  0.67521  0.93580  1.0000
  C   C19       1.0  0.78590  0.15772  0.94800  1.0000
  C   C20       1.0  0.21410  0.65772  0.05200  1.0000
  C   C21       1.0  0.77590  0.92941  0.89910  1.0000
  C   C22       1.0  0.22410  0.42941  0.10090  1.0000
  C   C23       1.0  0.72670  0.90653  0.00830  1.0000
  C   C24       1.0  0.27330  0.40653  0.99170  1.0000
  O   O1        1.0  0.20170  0.88163  0.85840  1.0000
  O   O2        1.0  0.79830  0.38163  0.14160  1.0000
  O   O3        1.0  0.40430  0.91909  0.85590  1.0000
  O   O4        1.0  0.59570  0.41909  0.14410  1.0000
  O   O5        1.0  0.12500  0.92176  0.05240  1.0000
  O   O6        1.0  0.87500  0.42176  0.94760  1.0000
  O   O7        1.0  0.33210  0.95659  0.04390  1.0000
  O   O8        1.0  0.66790  0.45659  0.95610  1.0000
  O   O9        1.0  0.43240  0.00761  0.86860  1.0000
  O   O10       1.0  0.56760  0.50761  0.13140  1.0000
  O   O11       1.0  0.42900  0.07591  0.88340  1.0000
  O   O12       1.0  0.57100  0.57591  0.11660  1.0000
  O   O13       1.0  0.58870  0.00167  0.05460  1.0000
  O   O14       1.0  0.41130  0.50167  0.94540  1.0000
  O   O15       1.0  0.58380  0.06926  0.08000  1.0000
  O   O16       1.0  0.41620  0.56926  0.92000  1.0000
  O   O17       1.0  0.31520  0.12993  0.09730  1.0000
  O   O18       1.0  0.68480  0.62993  0.90270  1.0000
  O   O19       1.0  0.10790  0.16536  0.09880  1.0000
  O   O20       1.0  0.89210  0.66536  0.90120  1.0000
  O   O21       1.0  0.38390  0.16924  0.90020  1.0000
  O   O22       1.0  0.61610  0.66924  0.09980  1.0000
  O   O23       1.0  0.18030  0.20566  0.91600  1.0000
  O   O24       1.0  0.81970  0.70566  0.08400  1.0000
  O   O25       1.0  0.07820  0.75480  0.07330  1.0000
  O   O26       1.0  0.92180  0.25480  0.92670  1.0000
  O   O27       1.0  0.09480  0.82364  0.06520  1.0000
  O   O28       1.0  0.90520  0.32364  0.93480  1.0000
  O   O29       1.0  0.91460  0.75248  0.89180  1.0000
  O   O30       1.0  0.08540  0.25248  0.10820  1.0000
  O   O31       1.0  0.92640  0.82092  0.87500  1.0000
  O   O32       1.0  0.07360  0.32092  0.12500  1.0000
  O   O33       1.0  0.69940  0.13488  0.89890  1.0000
  O   O34       1.0  0.30060  0.63488  0.10110  1.0000
  O   O35       1.0  0.90940  0.16889  0.91050  1.0000
  O   O36       1.0  0.09060  0.66889  0.08950  1.0000
  O   O37       1.0  0.63510  0.16399  0.10830  1.0000
  O   O38       1.0  0.36490  0.66399  0.89170  1.0000
  O   O39       1.0  0.83600  0.20081  0.10650  1.0000
  O   O40       1.0  0.16400  0.70081  0.89350  1.0000
  O   O41       1.0  0.60150  0.91516  0.04210  1.0000
  O   O42       1.0  0.39850  0.41516  0.95790  1.0000
  O   O43       1.0  0.81160  0.88156  0.05090  1.0000
  O   O44       1.0  0.18840  0.38156  0.94910  1.0000
  O   O45       1.0  0.68560  0.95605  0.86160  1.0000
  O   O46       1.0  0.31440  0.45605  0.13840  1.0000
  O   O47       1.0  0.89330  0.92067  0.85810  1.0000
  O   O48       1.0  0.10670  0.42067  0.14190  1.0000
  Mn  Mn1       1.0  0.00870  0.87450  0.95973  1.0000
  Mn  Mn2       1.0  0.99130  0.37450  0.04027  1.0000
  Mn  Mn3       1.0  0.50716  0.12411  0.99594  1.0000
  Mn  Mn4       1.0  0.49284  0.62411  0.00406  1.0000
  Cr  Cr1       1.0  0.50900  0.95929  0.95268  1.0000
  Cr  Cr2       1.0  0.49100  0.45929  0.04732  1.0000
  Cr  Cr3       1.0  0.99170  0.70811  0.98897  1.0000
  Cr  Cr4       1.0  0.00830  0.20811  0.01103  1.0000
