data_image0
_chemical_formula_structural       Cr4Mn4C24O48
_chemical_formula_sum              "Cr4 Mn4 C24 O48"
_cell_length_a       9.2926
_cell_length_b       32.5571
_cell_length_c       11.806
_cell_angle_alpha    90
_cell_angle_beta     90.596
_cell_angle_gamma    90

_space_group_name_H-M_alt    "P 1"
_space_group_IT_number       1

loop_
  _space_group_symop_operation_xyz
  'x, y, z'

loop_
  _atom_site_type_symbol
  _atom_site_label
  _atom_site_symmetry_multiplicity
  _atom_site_fract_x
  _atom_site_fract_y
  _atom_site_fract_z
  _atom_site_occupancy
  Cr  Cr1       1.0  0.49172  0.25379  0.04721  1.0000
  Cr  Cr2       1.0  0.50828  0.75379  0.95279  1.0000
  Cr  Cr3       1.0  0.99151  0.00491  0.98882  1.0000
  Cr  Cr4       1.0  0.00849  0.50491  0.01118  1.0000
  Mn  Mn1       1.0  0.99164  0.33852  0.04002  1.0000
  Mn  Mn2       1.0  0.00836  0.83852  0.95998  1.0000
  Mn  Mn3       1.0  0.49230  0.08874  0.00374  1.0000
  Mn  Mn4       1.0  0.50770  0.58874  0.99626  1.0000
  C   C1        1.0  0.75960  0.28280  0.99260  1.0000
  C   C2        1.0  0.24040  0.78280  0.00740  1.0000
  C   C3        1.0  0.71670  0.30486  0.10320  1.0000
  C   C4        1.0  0.28330  0.80486  0.89680  1.0000
  C   C5        1.0  0.27260  0.30670  0.99240  1.0000
  C   C6        1.0  0.72740  0.80670  0.00760  1.0000
  C   C7        1.0  0.22560  0.28348  0.10080  1.0000
  C   C8        1.0  0.77440  0.78348  0.89920  1.0000
  C   C9        1.0  0.95400  0.92483  0.92230  1.0000
  C   C10       1.0  0.04600  0.42483  0.07770  1.0000
  C   C11       1.0  0.05040  0.92364  0.02880  1.0000
  C   C12       1.0  0.94960  0.42364  0.97120  1.0000
  C   C13       1.0  0.72820  0.03454  0.05160  1.0000
  C   C14       1.0  0.27180  0.53454  0.94840  1.0000
  C   C15       1.0  0.76980  0.05740  0.94100  1.0000
  C   C16       1.0  0.23020  0.55740  0.05900  1.0000
  C   C17       1.0  0.25280  0.03767  0.93570  1.0000
  C   C18       1.0  0.74720  0.53767  0.06430  1.0000
  C   C19       1.0  0.21310  0.05535  0.05230  1.0000
  C   C20       1.0  0.78690  0.55535  0.94770  1.0000
  C   C21       1.0  0.44590  0.17555  0.97190  1.0000
  C   C22       1.0  0.55410  0.67555  0.02810  1.0000
  C   C23       1.0  0.53560  0.17212  0.08300  1.0000
  C   C24       1.0  0.46440  0.67212  0.91700  1.0000
  O   O1        1.0  0.79900  0.33127  0.14110  1.0000
  O   O2        1.0  0.20100  0.83127  0.85890  1.0000
  O   O3        1.0  0.59630  0.29404  0.14410  1.0000
  O   O4        1.0  0.40370  0.79404  0.85590  1.0000
  O   O5        1.0  0.87560  0.29170  0.94820  1.0000
  O   O6        1.0  0.12440  0.79170  0.05180  1.0000
  O   O7        1.0  0.66890  0.25638  0.95600  1.0000
  O   O8        1.0  0.33110  0.75638  0.04400  1.0000
  O   O9        1.0  0.39850  0.29777  0.95790  1.0000
  O   O10       1.0  0.60150  0.79777  0.04210  1.0000
  O   O11       1.0  0.18910  0.33147  0.94980  1.0000
  O   O12       1.0  0.81090  0.83147  0.05020  1.0000
  O   O13       1.0  0.31390  0.25705  0.13840  1.0000
  O   O14       1.0  0.68610  0.75705  0.86160  1.0000
  O   O15       1.0  0.10780  0.29235  0.14170  1.0000
  O   O16       1.0  0.89220  0.79235  0.85830  1.0000
  O   O17       1.0  0.92520  0.89217  0.87510  1.0000
  O   O18       1.0  0.07480  0.39217  0.12490  1.0000
  O   O19       1.0  0.91260  0.96014  0.89140  1.0000
  O   O20       1.0  0.08740  0.46014  0.10860  1.0000
  O   O21       1.0  0.09360  0.88931  0.06410  1.0000
  O   O22       1.0  0.90640  0.38931  0.93590  1.0000
  O   O23       1.0  0.07780  0.95818  0.07300  1.0000
  O   O24       1.0  0.92220  0.45818  0.92700  1.0000
  O   O25       1.0  0.89120  0.04777  0.90030  1.0000
  O   O26       1.0  0.10880  0.54777  0.09970  1.0000
  O   O27       1.0  0.68390  0.08297  0.90320  1.0000
  O   O28       1.0  0.31610  0.58297  0.09680  1.0000
  O   O29       1.0  0.81820  0.00737  0.08420  1.0000
  O   O30       1.0  0.18180  0.50737  0.91580  1.0000
  O   O31       1.0  0.61600  0.04367  0.09920  1.0000
  O   O32       1.0  0.38400  0.54367  0.90080  1.0000
  O   O33       1.0  0.36460  0.04900  0.89100  1.0000
  O   O34       1.0  0.63540  0.54900  0.10900  1.0000
  O   O35       1.0  0.16430  0.01197  0.89300  1.0000
  O   O36       1.0  0.83570  0.51197  0.10700  1.0000
  O   O37       1.0  0.30030  0.07793  0.10070  1.0000
  O   O38       1.0  0.69970  0.57793  0.89930  1.0000
  O   O39       1.0  0.09010  0.04411  0.08970  1.0000
  O   O40       1.0  0.90990  0.54411  0.91030  1.0000
  O   O41       1.0  0.41710  0.14371  0.91940  1.0000
  O   O42       1.0  0.58290  0.64371  0.08060  1.0000
  O   O43       1.0  0.41130  0.21149  0.94450  1.0000
  O   O44       1.0  0.58870  0.71149  0.05550  1.0000
  O   O45       1.0  0.57110  0.13732  0.11630  1.0000
  O   O46       1.0  0.42890  0.63732  0.88370  1.0000
  O   O47       1.0  0.56710  0.20561  0.13090  1.0000
  O   O48       1.0  0.43290  0.70561  0.86910  1.0000
