data_image0
_chemical_formula_structural       C48O96Cr8Mn8
_chemical_formula_sum              "C48 O96 Cr8 Mn8"
_cell_length_a       14.5286
_cell_length_b       20.8778
_cell_length_c       22.757
_cell_angle_alpha    90
_cell_angle_beta     90
_cell_angle_gamma    90

_space_group_name_H-M_alt    "P 1"
_space_group_IT_number       1

loop_
  _space_group_symop_operation_xyz
  'x, y, z'

loop_
  _atom_site_type_symbol
  _atom_site_label
  _atom_site_symmetry_multiplicity
  _atom_site_fract_x
  _atom_site_fract_y
  _atom_site_fract_z
  _atom_site_occupancy
  C   C1        1.0  0.39230  0.82660  0.45847  1.0000
  C   C2        1.0  0.10770  0.17340  0.95847  1.0000
  C   C3        1.0  0.89230  0.67340  0.54153  1.0000
  C   C4        1.0  0.60770  0.32660  0.04153  1.0000
  C   C5        1.0  0.47430  0.79400  0.42732  1.0000
  C   C6        1.0  0.02570  0.20600  0.92732  1.0000
  C   C7        1.0  0.97430  0.70600  0.57268  1.0000
  C   C8        1.0  0.52570  0.29400  0.07268  1.0000
  C   C9        1.0  0.63720  0.79560  0.58850  1.0000
  C   C10       1.0  0.86280  0.20440  0.08850  1.0000
  C   C11       1.0  0.13720  0.70440  0.41150  1.0000
  C   C12       1.0  0.36280  0.29560  0.91150  1.0000
  C   C13       1.0  0.71160  0.83760  0.55920  1.0000
  C   C14       1.0  0.78840  0.16240  0.05920  1.0000
  C   C15       1.0  0.21160  0.66240  0.44080  1.0000
  C   C16       1.0  0.28840  0.33760  0.94080  1.0000
  C   C17       1.0  0.51880  0.99560  0.54612  1.0000
  C   C18       1.0  0.98120  0.00440  0.04612  1.0000
  C   C19       1.0  0.01880  0.50440  0.45388  1.0000
  C   C20       1.0  0.48120  0.49560  0.95388  1.0000
  C   C21       1.0  0.52510  0.99710  0.47811  1.0000
  C   C22       1.0  0.97490  0.00290  0.97811  1.0000
  C   C23       1.0  0.02510  0.50290  0.52189  1.0000
  C   C24       1.0  0.47490  0.49710  0.02189  1.0000
  C   C25       1.0  0.55410  0.21880  0.42924  1.0000
  C   C26       1.0  0.94590  0.78120  0.92924  1.0000
  C   C27       1.0  0.05410  0.28120  0.57076  1.0000
  C   C28       1.0  0.44590  0.71880  0.07076  1.0000
  C   C29       1.0  0.64220  0.18830  0.45803  1.0000
  C   C30       1.0  0.85780  0.81170  0.95803  1.0000
  C   C31       1.0  0.14220  0.31170  0.54197  1.0000
  C   C32       1.0  0.35780  0.68830  0.04197  1.0000
  C   C33       1.0  0.30820  0.15620  0.55868  1.0000
  C   C34       1.0  0.19180  0.84380  0.05868  1.0000
  C   C35       1.0  0.80820  0.34380  0.44132  1.0000
  C   C36       1.0  0.69180  0.65620  0.94132  1.0000
  C   C37       1.0  0.37580  0.19460  0.59687  1.0000
  C   C38       1.0  0.12420  0.80540  0.09687  1.0000
  C   C39       1.0  0.87580  0.30540  0.40313  1.0000
  C   C40       1.0  0.62420  0.69460  0.90313  1.0000
  C   C41       1.0  0.30860  0.72200  0.24210  1.0000
  C   C42       1.0  0.19140  0.27800  0.74210  1.0000
  C   C43       1.0  0.80860  0.77800  0.75790  1.0000
  C   C44       1.0  0.69140  0.22200  0.25790  1.0000
  C   C45       1.0  0.31440  0.79620  0.24680  1.0000
  C   C46       1.0  0.18560  0.20380  0.74680  1.0000
  C   C47       1.0  0.81440  0.70380  0.75320  1.0000
  C   C48       1.0  0.68560  0.29620  0.25320  1.0000
  O   O1        1.0  0.41253  0.86229  0.50230  1.0000
  O   O2        1.0  0.08747  0.13771  0.00230  1.0000
  O   O3        1.0  0.91253  0.63771  0.49770  1.0000
  O   O4        1.0  0.58747  0.36229  0.99770  1.0000
  O   O5        1.0  0.55300  0.80942  0.44755  1.0000
  O   O6        1.0  0.94700  0.19058  0.94755  1.0000
  O   O7        1.0  0.05300  0.69058  0.55245  1.0000
  O   O8        1.0  0.44700  0.30942  0.05245  1.0000
  O   O9        1.0  0.31430  0.81636  0.44048  1.0000
  O   O10       1.0  0.18570  0.18364  0.94048  1.0000
  O   O11       1.0  0.81430  0.68364  0.55952  1.0000
  O   O12       1.0  0.68570  0.31636  0.05952  1.0000
  O   O13       1.0  0.45841  0.75680  0.38658  1.0000
  O   O14       1.0  0.04159  0.24320  0.88658  1.0000
  O   O15       1.0  0.95841  0.74320  0.61342  1.0000
  O   O16       1.0  0.54159  0.25680  0.11342  1.0000
  O   O17       1.0  0.55530  0.80572  0.57218  1.0000
  O   O18       1.0  0.94470  0.19428  0.07218  1.0000
  O   O19       1.0  0.05530  0.69428  0.42782  1.0000
  O   O20       1.0  0.44470  0.30572  0.92782  1.0000
  O   O21       1.0  0.68139  0.87600  0.52115  1.0000
  O   O22       1.0  0.81861  0.12400  0.02115  1.0000
  O   O23       1.0  0.18139  0.62400  0.47885  1.0000
  O   O24       1.0  0.31861  0.37600  0.97885  1.0000
  O   O25       1.0  0.66248  0.75424  0.62517  1.0000
  O   O26       1.0  0.83752  0.24576  0.12517  1.0000
  O   O27       1.0  0.16248  0.74576  0.37483  1.0000
  O   O28       1.0  0.33752  0.25424  0.87483  1.0000
  O   O29       1.0  0.79320  0.83097  0.57392  1.0000
  O   O30       1.0  0.70680  0.16903  0.07392  1.0000
  O   O31       1.0  0.29320  0.66903  0.42608  1.0000
  O   O32       1.0  0.20680  0.33097  0.92608  1.0000
  O   O33       1.0  0.53077  0.94133  0.56918  1.0000
  O   O34       1.0  0.96923  0.05867  0.06918  1.0000
  O   O35       1.0  0.03077  0.55867  0.43082  1.0000
  O   O36       1.0  0.46923  0.44133  0.93082  1.0000
  O   O37       1.0  0.54450  0.94393  0.45464  1.0000
  O   O38       1.0  0.95550  0.05607  0.95464  1.0000
  O   O39       1.0  0.04450  0.55607  0.54536  1.0000
  O   O40       1.0  0.45550  0.44393  0.04536  1.0000
  O   O41       1.0  0.50460  0.04616  0.57208  1.0000
  O   O42       1.0  0.99540  0.95384  0.07208  1.0000
  O   O43       1.0  0.00460  0.45384  0.42792  1.0000
  O   O44       1.0  0.49540  0.54616  0.92792  1.0000
  O   O45       1.0  0.50870  0.04788  0.45276  1.0000
  O   O46       1.0  0.99130  0.95212  0.95276  1.0000
  O   O47       1.0  0.00870  0.45212  0.54724  1.0000
  O   O48       1.0  0.49130  0.54788  0.04724  1.0000
  O   O49       1.0  0.47940  0.20176  0.44713  1.0000
  O   O50       1.0  0.02060  0.79824  0.94713  1.0000
  O   O51       1.0  0.97940  0.29824  0.55287  1.0000
  O   O52       1.0  0.52060  0.70176  0.05287  1.0000
  O   O53       1.0  0.63207  0.15225  0.49945  1.0000
  O   O54       1.0  0.86793  0.84775  0.99945  1.0000
  O   O55       1.0  0.13207  0.34775  0.50055  1.0000
  O   O56       1.0  0.36793  0.65225  0.00055  1.0000
  O   O57       1.0  0.57157  0.25941  0.38855  1.0000
  O   O58       1.0  0.92843  0.74059  0.88855  1.0000
  O   O59       1.0  0.07157  0.24059  0.61145  1.0000
  O   O60       1.0  0.42843  0.75941  0.11145  1.0000
  O   O61       1.0  0.71796  0.20499  0.43452  1.0000
  O   O62       1.0  0.78204  0.79501  0.93452  1.0000
  O   O63       1.0  0.21796  0.29501  0.56548  1.0000
  O   O64       1.0  0.28204  0.70499  0.06548  1.0000
  O   O65       1.0  0.33965  0.12261  0.51977  1.0000
  O   O66       1.0  0.16035  0.87739  0.01977  1.0000
  O   O67       1.0  0.83965  0.37739  0.48023  1.0000
  O   O68       1.0  0.66035  0.62261  0.98023  1.0000
  O   O69       1.0  0.45930  0.19012  0.58782  1.0000
  O   O70       1.0  0.04070  0.80988  0.08782  1.0000
  O   O71       1.0  0.95930  0.30988  0.41218  1.0000
  O   O72       1.0  0.54070  0.69012  0.91218  1.0000
  O   O73       1.0  0.22360  0.16331  0.57215  1.0000
  O   O74       1.0  0.27640  0.83669  0.07215  1.0000
  O   O75       1.0  0.72360  0.33669  0.42785  1.0000
  O   O76       1.0  0.77640  0.66331  0.92785  1.0000
  O   O77       1.0  0.33852  0.22880  0.63803  1.0000
  O   O78       1.0  0.16148  0.77120  0.13803  1.0000
  O   O79       1.0  0.83852  0.27120  0.36197  1.0000
  O   O80       1.0  0.66148  0.72880  0.86197  1.0000
  O   O81       1.0  0.30990  0.69056  0.28787  1.0000
  O   O82       1.0  0.19010  0.30944  0.78787  1.0000
  O   O83       1.0  0.80990  0.80944  0.71213  1.0000
  O   O84       1.0  0.69010  0.19056  0.21213  1.0000
  O   O85       1.0  0.31830  0.82117  0.29532  1.0000
  O   O86       1.0  0.18170  0.17883  0.79532  1.0000
  O   O87       1.0  0.81830  0.67883  0.70468  1.0000
  O   O88       1.0  0.68170  0.32117  0.20468  1.0000
  O   O89       1.0  0.30480  0.69991  0.19041  1.0000
  O   O90       1.0  0.19520  0.30009  0.69041  1.0000
  O   O91       1.0  0.80480  0.80009  0.80959  1.0000
  O   O92       1.0  0.69520  0.19991  0.30959  1.0000
  O   O93       1.0  0.31370  0.82530  0.19742  1.0000
  O   O94       1.0  0.18630  0.17470  0.69742  1.0000
  O   O95       1.0  0.81370  0.67470  0.80258  1.0000
  O   O96       1.0  0.68630  0.32530  0.30258  1.0000
  Cr  Cr1       1.0  0.29614  0.76762  0.12993  1.0000
  Cr  Cr2       1.0  0.20386  0.23238  0.62993  1.0000
  Cr  Cr3       1.0  0.79614  0.73238  0.87007  1.0000
  Cr  Cr4       1.0  0.70386  0.26762  0.37007  1.0000
  Cr  Cr5       1.0  0.54697  0.87224  0.51162  1.0000
  Cr  Cr6       1.0  0.95303  0.12776  0.01162  1.0000
  Cr  Cr7       1.0  0.04697  0.62776  0.48838  1.0000
  Cr  Cr8       1.0  0.45303  0.37224  0.98838  1.0000
  Mn  Mn1       1.0  0.48872  0.12838  0.51468  1.0000
  Mn  Mn2       1.0  0.01128  0.87162  0.01468  1.0000
  Mn  Mn3       1.0  0.98872  0.37162  0.48532  1.0000
  Mn  Mn4       1.0  0.51128  0.62838  0.98532  1.0000
  Mn  Mn5       1.0  0.31256  0.75019  0.36530  1.0000
  Mn  Mn6       1.0  0.18744  0.24981  0.86530  1.0000
  Mn  Mn7       1.0  0.81256  0.74981  0.63470  1.0000
  Mn  Mn8       1.0  0.68744  0.25019  0.13470  1.0000
