data_image0
_chemical_formula_structural       Ni8N4C4N4C4N8C4N4C4N8C4N4C4N8C4N4C4N8C4N4C4N8C4N4C4N4
_chemical_formula_sum              "Ni8 N72 C48"
_cell_length_a       13.8039
_cell_length_b       16.8679
_cell_length_c       20.7639
_cell_angle_alpha    90
_cell_angle_beta     90
_cell_angle_gamma    90

_space_group_name_H-M_alt    "P 1"
_space_group_IT_number       1

loop_
  _space_group_symop_operation_xyz
  'x, y, z'

loop_
  _atom_site_type_symbol
  _atom_site_label
  _atom_site_symmetry_multiplicity
  _atom_site_fract_x
  _atom_site_fract_y
  _atom_site_fract_z
  _atom_site_occupancy
  Ni  Ni1       1.0  0.88000  0.20366  0.07707  1.0000
  Ni  Ni2       1.0  0.62000  0.79634  0.57707  1.0000
  Ni  Ni3       1.0  0.12000  0.70366  0.42293  1.0000
  Ni  Ni4       1.0  0.38000  0.29634  0.92293  1.0000
  Ni  Ni5       1.0  0.03669  0.20287  0.41362  1.0000
  Ni  Ni6       1.0  0.46331  0.79713  0.91362  1.0000
  Ni  Ni7       1.0  0.96331  0.70287  0.08638  1.0000
  Ni  Ni8       1.0  0.53669  0.29713  0.58638  1.0000
  N   N1        1.0  0.82975  0.20902  0.17056  1.0000
  N   N2        1.0  0.67025  0.79098  0.67056  1.0000
  N   N3        1.0  0.17025  0.70902  0.32944  1.0000
  N   N4        1.0  0.32975  0.29098  0.82944  1.0000
  C   C1        1.0  0.81010  0.21249  0.22406  1.0000
  C   C2        1.0  0.68990  0.78751  0.72406  1.0000
  C   C3        1.0  0.18990  0.71249  0.27594  1.0000
  C   C4        1.0  0.31010  0.28751  0.77594  1.0000
  N   N5        1.0  0.90130  0.21513  0.37065  1.0000
  N   N6        1.0  0.59870  0.78487  0.87065  1.0000
  N   N7        1.0  0.09870  0.71513  0.12935  1.0000
  N   N8        1.0  0.40130  0.28487  0.62935  1.0000
  C   C5        1.0  0.84720  0.21475  0.32899  1.0000
  C   C6        1.0  0.65280  0.78525  0.82899  1.0000
  C   C7        1.0  0.15280  0.71475  0.17101  1.0000
  C   C8        1.0  0.34720  0.28525  0.67101  1.0000
  N   N9        1.0  0.77980  0.21490  0.28413  1.0000
  N   N10       1.0  0.72020  0.78510  0.78413  1.0000
  N   N11       1.0  0.22020  0.71490  0.21587  1.0000
  N   N12       1.0  0.27980  0.28510  0.71587  1.0000
  N   N13       1.0  0.01937  0.19252  0.11780  1.0000
  N   N14       1.0  0.48063  0.80748  0.61780  1.0000
  N   N15       1.0  0.98063  0.69252  0.38220  1.0000
  N   N16       1.0  0.51937  0.30748  0.88220  1.0000
  C   C9        1.0  0.07050  0.18631  0.16083  1.0000
  C   C10       1.0  0.42950  0.81369  0.66083  1.0000
  C   C11       1.0  0.92950  0.68631  0.33917  1.0000
  C   C12       1.0  0.57050  0.31369  0.83917  1.0000
  N   N17       1.0  0.09432  0.19501  0.32062  1.0000
  N   N18       1.0  0.40568  0.80499  0.82062  1.0000
  N   N19       1.0  0.90568  0.69501  0.17938  1.0000
  N   N20       1.0  0.59432  0.30499  0.67938  1.0000
  C   C13       1.0  0.11020  0.18910  0.26666  1.0000
  C   C14       1.0  0.38980  0.81090  0.76666  1.0000
  C   C15       1.0  0.88980  0.68910  0.23334  1.0000
  C   C16       1.0  0.61020  0.31090  0.73334  1.0000
  N   N21       1.0  0.13690  0.18000  0.20623  1.0000
  N   N22       1.0  0.36310  0.82000  0.70623  1.0000
  N   N23       1.0  0.86310  0.68000  0.29377  1.0000
  N   N24       1.0  0.63690  0.32000  0.79377  1.0000
  N   N25       1.0  0.93595  0.20419  0.98276  1.0000
  N   N26       1.0  0.56405  0.79581  0.48276  1.0000
  N   N27       1.0  0.06405  0.70419  0.51724  1.0000
  N   N28       1.0  0.43595  0.29581  0.01724  1.0000
  C   C17       1.0  0.99750  0.23723  0.95700  1.0000
  C   C18       1.0  0.50250  0.76277  0.45700  1.0000
  C   C19       1.0  0.00250  0.73723  0.54300  1.0000
  C   C20       1.0  0.49750  0.26277  0.04300  1.0000
  N   N29       1.0  0.23384  0.28460  0.94791  1.0000
  N   N30       1.0  0.26616  0.71540  0.44791  1.0000
  N   N31       1.0  0.76616  0.78460  0.55209  1.0000
  N   N32       1.0  0.73384  0.21540  0.05209  1.0000
  C   C21       1.0  0.15190  0.27914  0.93853  1.0000
  C   C22       1.0  0.34810  0.72086  0.43853  1.0000
  C   C23       1.0  0.84810  0.77914  0.56147  1.0000
  C   C24       1.0  0.65190  0.22086  0.06147  1.0000
  N   N33       1.0  0.06011  0.27730  0.92273  1.0000
  N   N34       1.0  0.43989  0.72270  0.42273  1.0000
  N   N35       1.0  0.93989  0.77730  0.57727  1.0000
  N   N36       1.0  0.56011  0.22270  0.07727  1.0000
  N   N37       1.0  0.90103  0.32539  0.07437  1.0000
  N   N38       1.0  0.59897  0.67461  0.57437  1.0000
  N   N39       1.0  0.09897  0.82539  0.42563  1.0000
  N   N40       1.0  0.40103  0.17461  0.92563  1.0000
  C   C25       1.0  0.94070  0.38342  0.06327  1.0000
  C   C26       1.0  0.55930  0.61658  0.56327  1.0000
  C   C27       1.0  0.05930  0.88342  0.43673  1.0000
  C   C28       1.0  0.44070  0.11658  0.93673  1.0000
  N   N41       1.0  0.97955  0.58229  0.08092  1.0000
  N   N42       1.0  0.52045  0.41771  0.58092  1.0000
  N   N43       1.0  0.02045  0.08229  0.41908  1.0000
  N   N44       1.0  0.47955  0.91771  0.91908  1.0000
  C   C29       1.0  0.98070  0.51636  0.06723  1.0000
  C   C30       1.0  0.51930  0.48364  0.56723  1.0000
  C   C31       1.0  0.01930  0.01636  0.43277  1.0000
  C   C32       1.0  0.48070  0.98364  0.93277  1.0000
  N   N45       1.0  0.99380  0.44429  0.04606  1.0000
  N   N46       1.0  0.50620  0.55571  0.54606  1.0000
  N   N47       1.0  0.00620  0.94429  0.45394  1.0000
  N   N48       1.0  0.49380  0.05571  0.95394  1.0000
  N   N49       1.0  0.17380  0.19125  0.45429  1.0000
  N   N50       1.0  0.32620  0.80875  0.95429  1.0000
  N   N51       1.0  0.82620  0.69125  0.04571  1.0000
  N   N52       1.0  0.67380  0.30875  0.54571  1.0000
  C   C33       1.0  0.25700  0.19064  0.45697  1.0000
  C   C34       1.0  0.24300  0.80936  0.95697  1.0000
  C   C35       1.0  0.74300  0.69064  0.04303  1.0000
  C   C36       1.0  0.75700  0.30936  0.54303  1.0000
  N   N53       1.0  0.46693  0.28415  0.49491  1.0000
  N   N54       1.0  0.03307  0.71585  0.99491  1.0000
  N   N55       1.0  0.53307  0.78415  0.00509  1.0000
  N   N56       1.0  0.96693  0.21585  0.50509  1.0000
  C   C37       1.0  0.40880  0.23985  0.47890  1.0000
  C   C38       1.0  0.09120  0.76015  0.97890  1.0000
  C   C39       1.0  0.59120  0.73985  0.02110  1.0000
  C   C40       1.0  0.90880  0.26015  0.52110  1.0000
  N   N57       1.0  0.35210  0.18295  0.45775  1.0000
  N   N58       1.0  0.14790  0.81705  0.95775  1.0000
  N   N59       1.0  0.64790  0.68295  0.04225  1.0000
  N   N60       1.0  0.85210  0.31705  0.54225  1.0000
  N   N61       1.0  0.94120  0.82375  0.08913  1.0000
  N   N62       1.0  0.55880  0.17625  0.58913  1.0000
  N   N63       1.0  0.05880  0.32375  0.41087  1.0000
  N   N64       1.0  0.44120  0.67625  0.91087  1.0000
  C   C41       1.0  0.89820  0.88191  0.09151  1.0000
  C   C42       1.0  0.60180  0.11809  0.59151  1.0000
  C   C43       1.0  0.10180  0.38191  0.40849  1.0000
  C   C44       1.0  0.39820  0.61809  0.90849  1.0000
  N   N65       1.0  0.86916  0.08224  0.07311  1.0000
  N   N66       1.0  0.63084  0.91776  0.57311  1.0000
  N   N67       1.0  0.13084  0.58224  0.42689  1.0000
  N   N68       1.0  0.36916  0.41776  0.92689  1.0000
  C   C45       1.0  0.86230  0.01541  0.08300  1.0000
  C   C46       1.0  0.63770  0.98459  0.58300  1.0000
  C   C47       1.0  0.13770  0.51541  0.41700  1.0000
  C   C48       1.0  0.36230  0.48459  0.91700  1.0000
  N   N69       1.0  0.83901  0.94188  0.09644  1.0000
  N   N70       1.0  0.66099  0.05812  0.59644  1.0000
  N   N71       1.0  0.16099  0.44188  0.40356  1.0000
  N   N72       1.0  0.33901  0.55812  0.90356  1.0000
