data_image0
_chemical_formula_structural       Co8N4C4N4C4N8C4N4C4N8C4N4C4N8C4N4C4N8C4N4C4N8C4N4C4N4
_chemical_formula_sum              "Co8 N72 C48"
_cell_length_a       13.8718
_cell_length_b       16.9489
_cell_length_c       20.772
_cell_angle_alpha    90
_cell_angle_beta     90
_cell_angle_gamma    90

_space_group_name_H-M_alt    "P 1"
_space_group_IT_number       1

loop_
  _space_group_symop_operation_xyz
  'x, y, z'

loop_
  _atom_site_type_symbol
  _atom_site_label
  _atom_site_symmetry_multiplicity
  _atom_site_fract_x
  _atom_site_fract_y
  _atom_site_fract_z
  _atom_site_occupancy
  Co  Co1       1.0  0.87834  0.20171  0.07608  1.0000
  Co  Co2       1.0  0.62166  0.79829  0.57608  1.0000
  Co  Co3       1.0  0.12166  0.70171  0.42392  1.0000
  Co  Co4       1.0  0.37834  0.29829  0.92392  1.0000
  Co  Co5       1.0  0.03634  0.20105  0.41522  1.0000
  Co  Co6       1.0  0.46366  0.79895  0.91522  1.0000
  Co  Co7       1.0  0.96366  0.70105  0.08478  1.0000
  Co  Co8       1.0  0.53634  0.29895  0.58478  1.0000
  N   N1        1.0  0.82826  0.20764  0.17182  1.0000
  N   N2        1.0  0.67174  0.79236  0.67182  1.0000
  N   N3        1.0  0.17174  0.70764  0.32818  1.0000
  N   N4        1.0  0.32826  0.29236  0.82818  1.0000
  C   C1        1.0  0.80867  0.21121  0.22518  1.0000
  C   C2        1.0  0.69133  0.78879  0.72518  1.0000
  C   C3        1.0  0.19133  0.71121  0.27482  1.0000
  C   C4        1.0  0.30867  0.28879  0.77482  1.0000
  N   N5        1.0  0.89772  0.21431  0.37269  1.0000
  N   N6        1.0  0.60228  0.78569  0.87269  1.0000
  N   N7        1.0  0.10228  0.71431  0.12731  1.0000
  N   N8        1.0  0.39772  0.28569  0.62731  1.0000
  C   C5        1.0  0.84501  0.21351  0.33012  1.0000
  C   C6        1.0  0.65499  0.78649  0.83012  1.0000
  C   C7        1.0  0.15499  0.71351  0.16988  1.0000
  C   C8        1.0  0.34501  0.28649  0.66988  1.0000
  N   N9        1.0  0.77844  0.21329  0.28531  1.0000
  N   N10       1.0  0.72156  0.78671  0.78531  1.0000
  N   N11       1.0  0.22156  0.71329  0.21469  1.0000
  N   N12       1.0  0.27844  0.28671  0.71469  1.0000
  N   N13       1.0  0.01984  0.18998  0.11723  1.0000
  N   N14       1.0  0.48016  0.81002  0.61723  1.0000
  N   N15       1.0  0.98016  0.68998  0.38277  1.0000
  N   N16       1.0  0.51984  0.31002  0.88277  1.0000
  C   C9        1.0  0.07155  0.18454  0.16063  1.0000
  C   C10       1.0  0.42845  0.81546  0.66063  1.0000
  C   C11       1.0  0.92845  0.68454  0.33937  1.0000
  C   C12       1.0  0.57155  0.31546  0.83937  1.0000
  N   N17       1.0  0.09376  0.19317  0.32035  1.0000
  N   N18       1.0  0.40624  0.80683  0.82035  1.0000
  N   N19       1.0  0.90624  0.69317  0.17965  1.0000
  N   N20       1.0  0.59376  0.30683  0.67965  1.0000
  C   C13       1.0  0.10968  0.18749  0.26620  1.0000
  C   C14       1.0  0.39032  0.81251  0.76620  1.0000
  C   C15       1.0  0.89032  0.68749  0.23380  1.0000
  C   C16       1.0  0.60968  0.31251  0.73380  1.0000
  N   N21       1.0  0.13659  0.17875  0.20582  1.0000
  N   N22       1.0  0.36341  0.82125  0.70582  1.0000
  N   N23       1.0  0.86341  0.67875  0.29418  1.0000
  N   N24       1.0  0.63659  0.32125  0.79418  1.0000
  N   N25       1.0  0.93438  0.20206  0.97955  1.0000
  N   N26       1.0  0.56562  0.79794  0.47955  1.0000
  N   N27       1.0  0.06562  0.70206  0.52045  1.0000
  N   N28       1.0  0.43438  0.29794  0.02045  1.0000
  C   C17       1.0  0.99544  0.23561  0.95394  1.0000
  C   C18       1.0  0.50456  0.76439  0.45394  1.0000
  C   C19       1.0  0.00456  0.73561  0.54606  1.0000
  C   C20       1.0  0.49544  0.26439  0.04606  1.0000
  N   N29       1.0  0.22928  0.28526  0.94748  1.0000
  N   N30       1.0  0.27072  0.71474  0.44748  1.0000
  N   N31       1.0  0.77072  0.78526  0.55252  1.0000
  N   N32       1.0  0.72928  0.21474  0.05252  1.0000
  C   C21       1.0  0.14809  0.27887  0.93702  1.0000
  C   C22       1.0  0.35191  0.72113  0.43702  1.0000
  C   C23       1.0  0.85191  0.77887  0.56298  1.0000
  C   C24       1.0  0.64809  0.22113  0.06298  1.0000
  N   N33       1.0  0.05720  0.27585  0.92031  1.0000
  N   N34       1.0  0.44280  0.72415  0.42031  1.0000
  N   N35       1.0  0.94280  0.77585  0.57969  1.0000
  N   N36       1.0  0.55720  0.22415  0.07969  1.0000
  N   N37       1.0  0.90114  0.32476  0.07251  1.0000
  N   N38       1.0  0.59886  0.67524  0.57251  1.0000
  N   N39       1.0  0.09886  0.82476  0.42749  1.0000
  N   N40       1.0  0.40114  0.17524  0.92749  1.0000
  C   C25       1.0  0.94238  0.38198  0.06200  1.0000
  C   C26       1.0  0.55762  0.61802  0.56200  1.0000
  C   C27       1.0  0.05762  0.88198  0.43800  1.0000
  C   C28       1.0  0.44238  0.11802  0.93800  1.0000
  N   N41       1.0  0.98122  0.57890  0.07904  1.0000
  N   N42       1.0  0.51878  0.42110  0.57904  1.0000
  N   N43       1.0  0.01878  0.07890  0.42096  1.0000
  N   N44       1.0  0.48122  0.92110  0.92096  1.0000
  C   C29       1.0  0.98329  0.51338  0.06583  1.0000
  C   C30       1.0  0.51671  0.48662  0.56583  1.0000
  C   C31       1.0  0.01671  0.01338  0.43417  1.0000
  C   C32       1.0  0.48329  0.98662  0.93417  1.0000
  N   N45       1.0  0.99735  0.44145  0.04590  1.0000
  N   N46       1.0  0.50265  0.55855  0.54590  1.0000
  N   N47       1.0  0.00265  0.94145  0.45410  1.0000
  N   N48       1.0  0.49735  0.05855  0.95410  1.0000
  N   N49       1.0  0.17633  0.18800  0.45557  1.0000
  N   N50       1.0  0.32367  0.81200  0.95557  1.0000
  N   N51       1.0  0.82367  0.68800  0.04443  1.0000
  N   N52       1.0  0.67633  0.31200  0.54443  1.0000
  C   C33       1.0  0.25949  0.18812  0.45760  1.0000
  C   C34       1.0  0.24051  0.81188  0.95760  1.0000
  C   C35       1.0  0.74051  0.68812  0.04240  1.0000
  C   C36       1.0  0.75949  0.31188  0.54240  1.0000
  N   N53       1.0  0.46675  0.28484  0.49111  1.0000
  N   N54       1.0  0.03325  0.71516  0.99111  1.0000
  N   N55       1.0  0.53325  0.78484  0.00889  1.0000
  N   N56       1.0  0.96675  0.21516  0.50889  1.0000
  C   C37       1.0  0.40878  0.23878  0.47637  1.0000
  C   C38       1.0  0.09122  0.76122  0.97637  1.0000
  C   C39       1.0  0.59122  0.73878  0.02363  1.0000
  C   C40       1.0  0.90878  0.26122  0.52363  1.0000
  N   N57       1.0  0.35342  0.18113  0.45740  1.0000
  N   N58       1.0  0.14658  0.81887  0.95740  1.0000
  N   N59       1.0  0.64658  0.68113  0.04260  1.0000
  N   N60       1.0  0.85342  0.31887  0.54260  1.0000
  N   N61       1.0  0.93938  0.82307  0.08702  1.0000
  N   N62       1.0  0.56062  0.17693  0.58702  1.0000
  N   N63       1.0  0.06062  0.32307  0.41298  1.0000
  N   N64       1.0  0.43938  0.67693  0.91298  1.0000
  C   C41       1.0  0.89598  0.88062  0.09046  1.0000
  C   C42       1.0  0.60402  0.11938  0.59046  1.0000
  C   C43       1.0  0.10402  0.38062  0.40954  1.0000
  C   C44       1.0  0.39598  0.61938  0.90954  1.0000
  N   N65       1.0  0.86662  0.07887  0.07195  1.0000
  N   N66       1.0  0.63338  0.92113  0.57195  1.0000
  N   N67       1.0  0.13338  0.57887  0.42805  1.0000
  N   N68       1.0  0.36662  0.42113  0.92805  1.0000
  C   C45       1.0  0.85931  0.01267  0.08199  1.0000
  C   C46       1.0  0.64069  0.98733  0.58199  1.0000
  C   C47       1.0  0.14069  0.51267  0.41801  1.0000
  C   C48       1.0  0.35931  0.48733  0.91801  1.0000
  N   N69       1.0  0.83707  0.93986  0.09654  1.0000
  N   N70       1.0  0.66293  0.06014  0.59654  1.0000
  N   N71       1.0  0.16293  0.43986  0.40346  1.0000
  N   N72       1.0  0.33707  0.56014  0.90346  1.0000
