data_image0
_chemical_formula_structural       Fe8N4C4N4C4N8C4N4C4N8C4N4C4N8C4N4C4N8C4N4C4N8C4N4C4N4
_chemical_formula_sum              "Fe8 N72 C48"
_cell_length_a       13.9104
_cell_length_b       17.0365
_cell_length_c       20.815
_cell_angle_alpha    90
_cell_angle_beta     90
_cell_angle_gamma    90

_space_group_name_H-M_alt    "P 1"
_space_group_IT_number       1

loop_
  _space_group_symop_operation_xyz
  'x, y, z'

loop_
  _atom_site_type_symbol
  _atom_site_label
  _atom_site_symmetry_multiplicity
  _atom_site_fract_x
  _atom_site_fract_y
  _atom_site_fract_z
  _atom_site_occupancy
  Fe  Fe1       1.0  0.87648  0.19975  0.07563  1.0000
  Fe  Fe2       1.0  0.62352  0.80025  0.57563  1.0000
  Fe  Fe3       1.0  0.12352  0.69975  0.42437  1.0000
  Fe  Fe4       1.0  0.37648  0.30025  0.92437  1.0000
  Fe  Fe5       1.0  0.03537  0.19941  0.41692  1.0000
  Fe  Fe6       1.0  0.46463  0.80059  0.91692  1.0000
  Fe  Fe7       1.0  0.96463  0.69941  0.08308  1.0000
  Fe  Fe8       1.0  0.53537  0.30059  0.58308  1.0000
  N   N1        1.0  0.82689  0.20676  0.17315  1.0000
  N   N2        1.0  0.67311  0.79324  0.67315  1.0000
  N   N3        1.0  0.17311  0.70676  0.32685  1.0000
  N   N4        1.0  0.32689  0.29324  0.82685  1.0000
  C   C1        1.0  0.80728  0.21020  0.22631  1.0000
  C   C2        1.0  0.69272  0.78980  0.72631  1.0000
  C   C3        1.0  0.19272  0.71020  0.27369  1.0000
  C   C4        1.0  0.30728  0.28980  0.77369  1.0000
  N   N5        1.0  0.89442  0.21424  0.37401  1.0000
  N   N6        1.0  0.60558  0.78576  0.87401  1.0000
  N   N7        1.0  0.10558  0.71424  0.12599  1.0000
  N   N8        1.0  0.39442  0.28576  0.62599  1.0000
  C   C5        1.0  0.84271  0.21308  0.33118  1.0000
  C   C6        1.0  0.65729  0.78692  0.83118  1.0000
  C   C7        1.0  0.15729  0.71308  0.16882  1.0000
  C   C8        1.0  0.34271  0.28692  0.66882  1.0000
  N   N9        1.0  0.77647  0.21207  0.28611  1.0000
  N   N10       1.0  0.72353  0.78793  0.78611  1.0000
  N   N11       1.0  0.22353  0.71207  0.21389  1.0000
  N   N12       1.0  0.27647  0.28793  0.71389  1.0000
  N   N13       1.0  0.01973  0.18791  0.11774  1.0000
  N   N14       1.0  0.48027  0.81209  0.61774  1.0000
  N   N15       1.0  0.98027  0.68791  0.38226  1.0000
  N   N16       1.0  0.51973  0.31209  0.88226  1.0000
  C   C9        1.0  0.07102  0.18347  0.16069  1.0000
  C   C10       1.0  0.42898  0.81653  0.66069  1.0000
  C   C11       1.0  0.92898  0.68347  0.33931  1.0000
  C   C12       1.0  0.57102  0.31653  0.83931  1.0000
  N   N17       1.0  0.09199  0.19166  0.32048  1.0000
  N   N18       1.0  0.40801  0.80834  0.82048  1.0000
  N   N19       1.0  0.90801  0.69166  0.17952  1.0000
  N   N20       1.0  0.59199  0.30834  0.67952  1.0000
  C   C13       1.0  0.10862  0.18641  0.26648  1.0000
  C   C14       1.0  0.39138  0.81359  0.76648  1.0000
  C   C15       1.0  0.89138  0.68641  0.23352  1.0000
  C   C16       1.0  0.60862  0.31359  0.73352  1.0000
  N   N21       1.0  0.13617  0.17915  0.20635  1.0000
  N   N22       1.0  0.36383  0.82085  0.70635  1.0000
  N   N23       1.0  0.86383  0.67915  0.29365  1.0000
  N   N24       1.0  0.63617  0.32085  0.79365  1.0000
  N   N25       1.0  0.93302  0.20053  0.97754  1.0000
  N   N26       1.0  0.56698  0.79947  0.47754  1.0000
  N   N27       1.0  0.06698  0.70053  0.52246  1.0000
  N   N28       1.0  0.43302  0.29947  0.02246  1.0000
  C   C17       1.0  0.99338  0.23392  0.95178  1.0000
  C   C18       1.0  0.50662  0.76608  0.45178  1.0000
  C   C19       1.0  0.00662  0.73392  0.54822  1.0000
  C   C20       1.0  0.49338  0.26608  0.04822  1.0000
  N   N29       1.0  0.22537  0.28599  0.94743  1.0000
  N   N30       1.0  0.27463  0.71401  0.44743  1.0000
  N   N31       1.0  0.77463  0.78599  0.55257  1.0000
  N   N32       1.0  0.72537  0.21401  0.05257  1.0000
  C   C21       1.0  0.14490  0.27872  0.93574  1.0000
  C   C22       1.0  0.35510  0.72128  0.43574  1.0000
  C   C23       1.0  0.85510  0.77872  0.56426  1.0000
  C   C24       1.0  0.64490  0.22128  0.06426  1.0000
  N   N33       1.0  0.05494  0.27385  0.91817  1.0000
  N   N34       1.0  0.44506  0.72615  0.41817  1.0000
  N   N35       1.0  0.94506  0.77385  0.58183  1.0000
  N   N36       1.0  0.55494  0.22615  0.08183  1.0000
  N   N37       1.0  0.90093  0.32390  0.07184  1.0000
  N   N38       1.0  0.59907  0.67610  0.57184  1.0000
  N   N39       1.0  0.09907  0.82390  0.42816  1.0000
  N   N40       1.0  0.40093  0.17610  0.92816  1.0000
  C   C25       1.0  0.94315  0.38031  0.06110  1.0000
  C   C26       1.0  0.55685  0.61969  0.56110  1.0000
  C   C27       1.0  0.05685  0.88031  0.43890  1.0000
  C   C28       1.0  0.44315  0.11969  0.93890  1.0000
  N   N41       1.0  0.98359  0.57625  0.07670  1.0000
  N   N42       1.0  0.51641  0.42375  0.57670  1.0000
  N   N43       1.0  0.01641  0.07625  0.42330  1.0000
  N   N44       1.0  0.48359  0.92375  0.92330  1.0000
  C   C29       1.0  0.98522  0.51070  0.06415  1.0000
  C   C30       1.0  0.51478  0.48930  0.56415  1.0000
  C   C31       1.0  0.01478  0.01070  0.43585  1.0000
  C   C32       1.0  0.48522  0.98930  0.93585  1.0000
  N   N45       1.0  0.99878  0.43880  0.04500  1.0000
  N   N46       1.0  0.50122  0.56120  0.54500  1.0000
  N   N47       1.0  0.00122  0.93880  0.45500  1.0000
  N   N48       1.0  0.49878  0.06120  0.95500  1.0000
  N   N49       1.0  0.17723  0.18470  0.45800  1.0000
  N   N50       1.0  0.32277  0.81530  0.95800  1.0000
  N   N51       1.0  0.82277  0.68470  0.04200  1.0000
  N   N52       1.0  0.67723  0.31530  0.54200  1.0000
  C   C33       1.0  0.26030  0.18577  0.45857  1.0000
  C   C34       1.0  0.23970  0.81423  0.95857  1.0000
  C   C35       1.0  0.73970  0.68577  0.04143  1.0000
  C   C36       1.0  0.76030  0.31423  0.54143  1.0000
  N   N53       1.0  0.46581  0.28496  0.48826  1.0000
  N   N54       1.0  0.03419  0.71504  0.98826  1.0000
  N   N55       1.0  0.53419  0.78496  0.01174  1.0000
  N   N56       1.0  0.96581  0.21504  0.51174  1.0000
  C   C37       1.0  0.40882  0.23831  0.47478  1.0000
  C   C38       1.0  0.09118  0.76169  0.97478  1.0000
  C   C39       1.0  0.59118  0.73831  0.02522  1.0000
  C   C40       1.0  0.90882  0.26169  0.52522  1.0000
  N   N57       1.0  0.35395  0.17986  0.45737  1.0000
  N   N58       1.0  0.14605  0.82014  0.95737  1.0000
  N   N59       1.0  0.64605  0.67986  0.04263  1.0000
  N   N60       1.0  0.85395  0.32014  0.54263  1.0000
  N   N61       1.0  0.93903  0.82270  0.08589  1.0000
  N   N62       1.0  0.56097  0.17730  0.58589  1.0000
  N   N63       1.0  0.06097  0.32270  0.41411  1.0000
  N   N64       1.0  0.43903  0.67730  0.91411  1.0000
  C   C41       1.0  0.89511  0.87924  0.08995  1.0000
  C   C42       1.0  0.60489  0.12076  0.58995  1.0000
  C   C43       1.0  0.10489  0.37924  0.41005  1.0000
  C   C44       1.0  0.39511  0.62076  0.91005  1.0000
  N   N65       1.0  0.86448  0.07615  0.07064  1.0000
  N   N66       1.0  0.63552  0.92385  0.57064  1.0000
  N   N67       1.0  0.13552  0.57615  0.42936  1.0000
  N   N68       1.0  0.36448  0.42385  0.92936  1.0000
  C   C45       1.0  0.85726  0.01017  0.08163  1.0000
  C   C46       1.0  0.64274  0.98983  0.58163  1.0000
  C   C47       1.0  0.14274  0.51017  0.41837  1.0000
  C   C48       1.0  0.35726  0.48983  0.91837  1.0000
  N   N69       1.0  0.83578  0.93805  0.09684  1.0000
  N   N70       1.0  0.66422  0.06195  0.59684  1.0000
  N   N71       1.0  0.16422  0.43805  0.40316  1.0000
  N   N72       1.0  0.33578  0.56195  0.90316  1.0000
