data_image0
_chemical_formula_structural       Ni8N4C4N4C4N8C4N4C4N8C4N4C4N8C4N4C4N8C4N4C4N8C4N4C4N4
_chemical_formula_sum              "Ni8 N72 C48"
_cell_length_a       14.1192
_cell_length_b       16.6545
_cell_length_c       21.5833
_cell_angle_alpha    90
_cell_angle_beta     90
_cell_angle_gamma    90

_space_group_name_H-M_alt    "P 1"
_space_group_IT_number       1

loop_
  _space_group_symop_operation_xyz
  'x, y, z'

loop_
  _atom_site_type_symbol
  _atom_site_label
  _atom_site_symmetry_multiplicity
  _atom_site_fract_x
  _atom_site_fract_y
  _atom_site_fract_z
  _atom_site_occupancy
  Ni  Ni1       1.0  0.87412  0.26898  0.92333  1.0000
  Ni  Ni2       1.0  0.62588  0.73102  0.42333  1.0000
  Ni  Ni3       1.0  0.37412  0.23102  0.07667  1.0000
  Ni  Ni4       1.0  0.12588  0.76898  0.57667  1.0000
  Ni  Ni5       1.0  0.03689  0.27003  0.59868  1.0000
  Ni  Ni6       1.0  0.46311  0.72997  0.09868  1.0000
  Ni  Ni7       1.0  0.53689  0.22997  0.40132  1.0000
  Ni  Ni8       1.0  0.96311  0.77003  0.90132  1.0000
  N   N1        1.0  0.82828  0.24661  0.83444  1.0000
  N   N2        1.0  0.67172  0.75339  0.33444  1.0000
  N   N3        1.0  0.32828  0.25339  0.16556  1.0000
  N   N4        1.0  0.17172  0.74661  0.66556  1.0000
  C   C1        1.0  0.81292  0.24443  0.78232  1.0000
  C   C2        1.0  0.68708  0.75557  0.28232  1.0000
  C   C3        1.0  0.31292  0.25557  0.21768  1.0000
  C   C4        1.0  0.18708  0.74443  0.71768  1.0000
  N   N5        1.0  0.90876  0.26021  0.64386  1.0000
  N   N6        1.0  0.59124  0.73979  0.14386  1.0000
  N   N7        1.0  0.40876  0.23979  0.35614  1.0000
  N   N8        1.0  0.09124  0.76021  0.85614  1.0000
  C   C5        1.0  0.85480  0.25198  0.68262  1.0000
  C   C6        1.0  0.64520  0.74802  0.18262  1.0000
  C   C7        1.0  0.35480  0.24802  0.31738  1.0000
  C   C8        1.0  0.14520  0.75198  0.81738  1.0000
  N   N9        1.0  0.78759  0.24196  0.72372  1.0000
  N   N10       1.0  0.71241  0.75804  0.22372  1.0000
  N   N11       1.0  0.28759  0.25804  0.27628  1.0000
  N   N12       1.0  0.21241  0.74196  0.77628  1.0000
  N   N13       1.0  0.00951  0.28265  0.88231  1.0000
  N   N14       1.0  0.49049  0.71735  0.38231  1.0000
  N   N15       1.0  0.50951  0.21735  0.11769  1.0000
  N   N16       1.0  0.99049  0.78265  0.61769  1.0000
  C   C9        1.0  0.06061  0.29096  0.84102  1.0000
  C   C10       1.0  0.43939  0.70904  0.34102  1.0000
  C   C11       1.0  0.56061  0.20904  0.15898  1.0000
  C   C12       1.0  0.93939  0.79096  0.65898  1.0000
  N   N17       1.0  0.09470  0.28591  0.68718  1.0000
  N   N18       1.0  0.40530  0.71409  0.18718  1.0000
  N   N19       1.0  0.59470  0.21409  0.31282  1.0000
  N   N20       1.0  0.90530  0.78591  0.81282  1.0000
  C   C13       1.0  0.10436  0.29129  0.73988  1.0000
  C   C14       1.0  0.39564  0.70871  0.23988  1.0000
  C   C15       1.0  0.60436  0.20871  0.26012  1.0000
  C   C16       1.0  0.89564  0.79129  0.76012  1.0000
  N   N21       1.0  0.12621  0.30044  0.79905  1.0000
  N   N22       1.0  0.37379  0.69956  0.29905  1.0000
  N   N23       1.0  0.62621  0.19956  0.20095  1.0000
  N   N24       1.0  0.87379  0.80044  0.70095  1.0000
  N   N25       1.0  0.92965  0.28747  0.01218  1.0000
  N   N26       1.0  0.57035  0.71253  0.51218  1.0000
  N   N27       1.0  0.42965  0.21253  0.98782  1.0000
  N   N28       1.0  0.07035  0.78747  0.48782  1.0000
  C   C17       1.0  0.99610  0.27688  0.04147  1.0000
  C   C18       1.0  0.50390  0.72312  0.54147  1.0000
  C   C19       1.0  0.49610  0.22312  0.95853  1.0000
  C   C20       1.0  0.00390  0.77688  0.45853  1.0000
  N   N29       1.0  0.23122  0.24300  0.05110  1.0000
  N   N30       1.0  0.26878  0.75700  0.55110  1.0000
  N   N31       1.0  0.73122  0.25700  0.94890  1.0000
  N   N32       1.0  0.76878  0.74300  0.44890  1.0000
  C   C21       1.0  0.15260  0.25339  0.06152  1.0000
  C   C22       1.0  0.34740  0.74661  0.56152  1.0000
  C   C23       1.0  0.65260  0.24661  0.93848  1.0000
  C   C24       1.0  0.84740  0.75339  0.43848  1.0000
  N   N33       1.0  0.06498  0.26501  0.08064  1.0000
  N   N34       1.0  0.43502  0.73499  0.58064  1.0000
  N   N35       1.0  0.56498  0.23499  0.91936  1.0000
  N   N36       1.0  0.93502  0.76501  0.41936  1.0000
  N   N37       1.0  0.85386  0.39063  0.91399  1.0000
  N   N38       1.0  0.64614  0.60937  0.41399  1.0000
  N   N39       1.0  0.35386  0.10937  0.08601  1.0000
  N   N40       1.0  0.14614  0.89063  0.58601  1.0000
  C   C25       1.0  0.84548  0.45899  0.90747  1.0000
  C   C26       1.0  0.65452  0.54101  0.40747  1.0000
  C   C27       1.0  0.34548  0.04101  0.09253  1.0000
  C   C28       1.0  0.15452  0.95899  0.59253  1.0000
  N   N41       1.0  0.93269  0.64787  0.89451  1.0000
  N   N42       1.0  0.56731  0.35213  0.39451  1.0000
  N   N43       1.0  0.43269  0.85213  0.10549  1.0000
  N   N44       1.0  0.06731  0.14787  0.60549  1.0000
  C   C29       1.0  0.88600  0.59187  0.89712  1.0000
  C   C30       1.0  0.61400  0.40813  0.39712  1.0000
  C   C31       1.0  0.38600  0.90813  0.10288  1.0000
  C   C32       1.0  0.11400  0.09187  0.60288  1.0000
  N   N45       1.0  0.82277  0.53420  0.89886  1.0000
  N   N46       1.0  0.67723  0.46580  0.39886  1.0000
  N   N47       1.0  0.32277  0.96580  0.10114  1.0000
  N   N48       1.0  0.17723  0.03420  0.60114  1.0000
  N   N49       1.0  0.16972  0.28185  0.55690  1.0000
  N   N50       1.0  0.33028  0.71815  0.05690  1.0000
  N   N51       1.0  0.66972  0.21815  0.44310  1.0000
  N   N52       1.0  0.83028  0.78185  0.94310  1.0000
  C   C33       1.0  0.25000  0.29044  0.55047  1.0000
  C   C34       1.0  0.25000  0.70956  0.05047  1.0000
  C   C35       1.0  0.75000  0.20956  0.44953  1.0000
  C   C36       1.0  0.75000  0.79044  0.94953  1.0000
  N   N53       1.0  0.46217  0.24945  0.48260  1.0000
  N   N54       1.0  0.03783  0.75055  0.98260  1.0000
  N   N55       1.0  0.96217  0.25055  0.51740  1.0000
  N   N56       1.0  0.53783  0.74945  0.01740  1.0000
  C   C37       1.0  0.40050  0.27342  0.51205  1.0000
  C   C38       1.0  0.09950  0.72658  0.01205  1.0000
  C   C39       1.0  0.90050  0.22658  0.48795  1.0000
  C   C40       1.0  0.59950  0.77342  0.98795  1.0000
  N   N57       1.0  0.34070  0.30698  0.55055  1.0000
  N   N58       1.0  0.15930  0.69302  0.05055  1.0000
  N   N59       1.0  0.84070  0.19302  0.44945  1.0000
  N   N60       1.0  0.65930  0.80698  0.94945  1.0000
  N   N61       1.0  0.97840  0.89321  0.91585  1.0000
  N   N62       1.0  0.52160  0.10679  0.41585  1.0000
  N   N63       1.0  0.47840  0.60679  0.08415  1.0000
  N   N64       1.0  0.02160  0.39321  0.58415  1.0000
  C   C41       1.0  0.95240  0.95099  0.94128  1.0000
  C   C42       1.0  0.54760  0.04901  0.44128  1.0000
  C   C43       1.0  0.45240  0.54901  0.05872  1.0000
  C   C44       1.0  0.04760  0.45099  0.55872  1.0000
  N   N65       1.0  0.89536  0.14770  0.93890  1.0000
  N   N66       1.0  0.60464  0.85230  0.43890  1.0000
  N   N67       1.0  0.39536  0.35230  0.06110  1.0000
  N   N68       1.0  0.10464  0.64770  0.56110  1.0000
  C   C45       1.0  0.90974  0.08249  0.95352  1.0000
  C   C46       1.0  0.59026  0.91751  0.45352  1.0000
  C   C47       1.0  0.40974  0.41751  0.04648  1.0000
  C   C48       1.0  0.09026  0.58249  0.54648  1.0000
  N   N69       1.0  0.92532  0.01057  0.97607  1.0000
  N   N70       1.0  0.57468  0.98943  0.47607  1.0000
  N   N71       1.0  0.42532  0.48943  0.02393  1.0000
  N   N72       1.0  0.07468  0.51057  0.52393  1.0000
