data_image0
_chemical_formula_structural       Co8N4C4N4C4N8C4N4C4N8C4N4C4N8C4N4C4N8C4N4C4N8C4N4C4N4
_chemical_formula_sum              "Co8 N72 C48"
_cell_length_a       14.2228
_cell_length_b       16.705
_cell_length_c       21.602
_cell_angle_alpha    90
_cell_angle_beta     90
_cell_angle_gamma    90

_space_group_name_H-M_alt    "P 1"
_space_group_IT_number       1

loop_
  _space_group_symop_operation_xyz
  'x, y, z'

loop_
  _atom_site_type_symbol
  _atom_site_label
  _atom_site_symmetry_multiplicity
  _atom_site_fract_x
  _atom_site_fract_y
  _atom_site_fract_z
  _atom_site_occupancy
  Co  Co1       1.0  0.87076  0.26820  0.92522  1.0000
  Co  Co2       1.0  0.62924  0.73180  0.42522  1.0000
  Co  Co3       1.0  0.37076  0.23180  0.07478  1.0000
  Co  Co4       1.0  0.12924  0.76820  0.57478  1.0000
  Co  Co5       1.0  0.03565  0.26935  0.59847  1.0000
  Co  Co6       1.0  0.46435  0.73065  0.09848  1.0000
  Co  Co7       1.0  0.53565  0.23065  0.40153  1.0000
  Co  Co8       1.0  0.96435  0.76935  0.90153  1.0000
  N   N1        1.0  0.82653  0.24429  0.83416  1.0000
  N   N2        1.0  0.67347  0.75571  0.33416  1.0000
  N   N3        1.0  0.32653  0.25571  0.16584  1.0000
  N   N4        1.0  0.17347  0.74429  0.66584  1.0000
  C   C1        1.0  0.81128  0.24251  0.78211  1.0000
  C   C2        1.0  0.68872  0.75749  0.28211  1.0000
  C   C3        1.0  0.31128  0.25749  0.21789  1.0000
  C   C4        1.0  0.18872  0.74251  0.71789  1.0000
  N   N5        1.0  0.90505  0.25904  0.64324  1.0000
  N   N6        1.0  0.59495  0.74096  0.14324  1.0000
  N   N7        1.0  0.40505  0.24096  0.35676  1.0000
  N   N8        1.0  0.09495  0.75904  0.85676  1.0000
  C   C5        1.0  0.85179  0.25117  0.68230  1.0000
  C   C6        1.0  0.64821  0.74883  0.18230  1.0000
  C   C7        1.0  0.35179  0.24883  0.31770  1.0000
  C   C8        1.0  0.14821  0.75117  0.81770  1.0000
  N   N9        1.0  0.78571  0.24062  0.72374  1.0000
  N   N10       1.0  0.71429  0.75938  0.22374  1.0000
  N   N11       1.0  0.28571  0.25938  0.27626  1.0000
  N   N12       1.0  0.21429  0.74062  0.77626  1.0000
  N   N13       1.0  0.00883  0.28340  0.88437  1.0000
  N   N14       1.0  0.49117  0.71660  0.38437  1.0000
  N   N15       1.0  0.50883  0.21660  0.11563  1.0000
  N   N16       1.0  0.99117  0.78340  0.61563  1.0000
  C   C9        1.0  0.05906  0.29146  0.84271  1.0000
  C   C10       1.0  0.44094  0.70854  0.34271  1.0000
  C   C11       1.0  0.55906  0.20854  0.15729  1.0000
  C   C12       1.0  0.94094  0.79146  0.65729  1.0000
  N   N17       1.0  0.09219  0.28553  0.68925  1.0000
  N   N18       1.0  0.40781  0.71447  0.18925  1.0000
  N   N19       1.0  0.59219  0.21447  0.31075  1.0000
  N   N20       1.0  0.90781  0.78553  0.81075  1.0000
  C   C13       1.0  0.10233  0.29083  0.74187  1.0000
  C   C14       1.0  0.39767  0.70917  0.24187  1.0000
  C   C15       1.0  0.60233  0.20917  0.25813  1.0000
  C   C16       1.0  0.89767  0.79083  0.75813  1.0000
  N   N21       1.0  0.12444  0.30035  0.80063  1.0000
  N   N22       1.0  0.37556  0.69965  0.30063  1.0000
  N   N23       1.0  0.62444  0.19965  0.19937  1.0000
  N   N24       1.0  0.87556  0.80035  0.69937  1.0000
  N   N25       1.0  0.92443  0.28746  0.01630  1.0000
  N   N26       1.0  0.57557  0.71254  0.51630  1.0000
  N   N27       1.0  0.42443  0.21254  0.98370  1.0000
  N   N28       1.0  0.07557  0.78746  0.48370  1.0000
  C   C17       1.0  0.99200  0.27891  0.04450  1.0000
  C   C18       1.0  0.50800  0.72109  0.54450  1.0000
  C   C19       1.0  0.49200  0.22109  0.95550  1.0000
  C   C20       1.0  0.00800  0.77891  0.45550  1.0000
  N   N29       1.0  0.22527  0.24495  0.05076  1.0000
  N   N30       1.0  0.27473  0.75505  0.55076  1.0000
  N   N31       1.0  0.72527  0.25505  0.94924  1.0000
  N   N32       1.0  0.77473  0.74495  0.44924  1.0000
  C   C21       1.0  0.14770  0.25642  0.06257  1.0000
  C   C22       1.0  0.35230  0.74358  0.56257  1.0000
  C   C23       1.0  0.64770  0.24358  0.93743  1.0000
  C   C24       1.0  0.85230  0.75642  0.43743  1.0000
  N   N33       1.0  0.06192  0.26980  0.08267  1.0000
  N   N34       1.0  0.43808  0.73020  0.58267  1.0000
  N   N35       1.0  0.56192  0.23020  0.91733  1.0000
  N   N36       1.0  0.93808  0.76980  0.41733  1.0000
  N   N37       1.0  0.84943  0.39110  0.91565  1.0000
  N   N38       1.0  0.65057  0.60890  0.41565  1.0000
  N   N39       1.0  0.34943  0.10890  0.08435  1.0000
  N   N40       1.0  0.15057  0.89110  0.58435  1.0000
  C   C25       1.0  0.84167  0.45925  0.90907  1.0000
  C   C26       1.0  0.65833  0.54075  0.40907  1.0000
  C   C27       1.0  0.34167  0.04075  0.09093  1.0000
  C   C28       1.0  0.15833  0.95925  0.59093  1.0000
  N   N41       1.0  0.93187  0.64602  0.89535  1.0000
  N   N42       1.0  0.56813  0.35398  0.39535  1.0000
  N   N43       1.0  0.43187  0.85398  0.10465  1.0000
  N   N44       1.0  0.06813  0.14602  0.60465  1.0000
  C   C29       1.0  0.88360  0.59080  0.89800  1.0000
  C   C30       1.0  0.61640  0.40920  0.39800  1.0000
  C   C31       1.0  0.38360  0.90920  0.10200  1.0000
  C   C32       1.0  0.11640  0.09080  0.60200  1.0000
  N   N45       1.0  0.82024  0.53411  0.89998  1.0000
  N   N46       1.0  0.67976  0.46589  0.39998  1.0000
  N   N47       1.0  0.32024  0.96589  0.10002  1.0000
  N   N48       1.0  0.17976  0.03411  0.60002  1.0000
  N   N49       1.0  0.17091  0.28285  0.55724  1.0000
  N   N50       1.0  0.32909  0.71715  0.05724  1.0000
  N   N51       1.0  0.67091  0.21715  0.44276  1.0000
  N   N52       1.0  0.82909  0.78285  0.94276  1.0000
  C   C33       1.0  0.25060  0.29144  0.55193  1.0000
  C   C34       1.0  0.24940  0.70856  0.05193  1.0000
  C   C35       1.0  0.75060  0.20856  0.44807  1.0000
  C   C36       1.0  0.74940  0.79144  0.94807  1.0000
  N   N53       1.0  0.46090  0.25128  0.48445  1.0000
  N   N54       1.0  0.03910  0.74872  0.98445  1.0000
  N   N55       1.0  0.96090  0.24872  0.51555  1.0000
  N   N56       1.0  0.53910  0.75128  0.01555  1.0000
  C   C37       1.0  0.39991  0.27500  0.51427  1.0000
  C   C38       1.0  0.10009  0.72500  0.01427  1.0000
  C   C39       1.0  0.89991  0.22500  0.48573  1.0000
  C   C40       1.0  0.60009  0.77500  0.98573  1.0000
  N   N57       1.0  0.34108  0.30786  0.55262  1.0000
  N   N58       1.0  0.15892  0.69214  0.05262  1.0000
  N   N59       1.0  0.84108  0.19214  0.44738  1.0000
  N   N60       1.0  0.65892  0.80786  0.94738  1.0000
  N   N61       1.0  0.98034  0.89427  0.91673  1.0000
  N   N62       1.0  0.51966  0.10573  0.41673  1.0000
  N   N63       1.0  0.48034  0.60573  0.08327  1.0000
  N   N64       1.0  0.01966  0.39427  0.58327  1.0000
  C   C41       1.0  0.95385  0.95067  0.94268  1.0000
  C   C42       1.0  0.54615  0.04933  0.44268  1.0000
  C   C43       1.0  0.45385  0.54933  0.05732  1.0000
  C   C44       1.0  0.04615  0.45067  0.55732  1.0000
  N   N65       1.0  0.89371  0.14592  0.94157  1.0000
  N   N66       1.0  0.60629  0.85408  0.44157  1.0000
  N   N67       1.0  0.39371  0.35408  0.05843  1.0000
  N   N68       1.0  0.10629  0.64592  0.55843  1.0000
  C   C45       1.0  0.90947  0.08088  0.95613  1.0000
  C   C46       1.0  0.59053  0.91912  0.45613  1.0000
  C   C47       1.0  0.40947  0.41912  0.04387  1.0000
  C   C48       1.0  0.09053  0.58088  0.54387  1.0000
  N   N69       1.0  0.92617  0.00918  0.97836  1.0000
  N   N70       1.0  0.57383  0.99082  0.47836  1.0000
  N   N71       1.0  0.42617  0.49082  0.02164  1.0000
  N   N72       1.0  0.07383  0.50918  0.52164  1.0000
