data_image0
_chemical_formula_structural       Mn8N4C4N4C4N8C4N4C4N8C4N4C4N8C4N4C4N8C4N4C4N8C4N4C4N4
_chemical_formula_sum              "Mn8 N72 C48"
_cell_length_a       14.3759
_cell_length_b       16.9055
_cell_length_c       21.6345
_cell_angle_alpha    90
_cell_angle_beta     90
_cell_angle_gamma    90

_space_group_name_H-M_alt    "P 1"
_space_group_IT_number       1

loop_
  _space_group_symop_operation_xyz
  'x, y, z'

loop_
  _atom_site_type_symbol
  _atom_site_label
  _atom_site_symmetry_multiplicity
  _atom_site_fract_x
  _atom_site_fract_y
  _atom_site_fract_z
  _atom_site_occupancy
  Mn  Mn1       1.0  0.86564  0.26698  0.92976  1.0000
  Mn  Mn2       1.0  0.63436  0.73302  0.42976  1.0000
  Mn  Mn3       1.0  0.36564  0.23302  0.07024  1.0000
  Mn  Mn4       1.0  0.13436  0.76698  0.57024  1.0000
  Mn  Mn5       1.0  0.02926  0.26813  0.59713  1.0000
  Mn  Mn6       1.0  0.47074  0.73187  0.09713  1.0000
  Mn  Mn7       1.0  0.52926  0.23187  0.40287  1.0000
  Mn  Mn8       1.0  0.97074  0.76813  0.90287  1.0000
  N   N1        1.0  0.82460  0.24525  0.83291  1.0000
  N   N2        1.0  0.67540  0.75475  0.33291  1.0000
  N   N3        1.0  0.32460  0.25475  0.16709  1.0000
  N   N4        1.0  0.17540  0.74525  0.66709  1.0000
  C   C1        1.0  0.80738  0.24739  0.78137  1.0000
  C   C2        1.0  0.69262  0.75261  0.28137  1.0000
  C   C3        1.0  0.30738  0.25261  0.21863  1.0000
  C   C4        1.0  0.19262  0.74739  0.71863  1.0000
  N   N5        1.0  0.88957  0.25275  0.63893  1.0000
  N   N6        1.0  0.61043  0.74725  0.13893  1.0000
  N   N7        1.0  0.38957  0.24725  0.36107  1.0000
  N   N8        1.0  0.11043  0.75275  0.86107  1.0000
  C   C5        1.0  0.84101  0.25229  0.68033  1.0000
  C   C6        1.0  0.65899  0.74771  0.18033  1.0000
  C   C7        1.0  0.34101  0.24771  0.31967  1.0000
  C   C8        1.0  0.15899  0.75229  0.81967  1.0000
  N   N9        1.0  0.77825  0.25231  0.72431  1.0000
  N   N10       1.0  0.72175  0.74769  0.22431  1.0000
  N   N11       1.0  0.27825  0.24769  0.27569  1.0000
  N   N12       1.0  0.22175  0.75231  0.77569  1.0000
  N   N13       1.0  0.00937  0.28571  0.89030  1.0000
  N   N14       1.0  0.49063  0.71429  0.39030  1.0000
  N   N15       1.0  0.50937  0.21429  0.10970  1.0000
  N   N16       1.0  0.99063  0.78571  0.60970  1.0000
  C   C9        1.0  0.05678  0.29346  0.84729  1.0000
  C   C10       1.0  0.44322  0.70654  0.34729  1.0000
  C   C11       1.0  0.55678  0.20654  0.15271  1.0000
  C   C12       1.0  0.94322  0.79346  0.65271  1.0000
  N   N17       1.0  0.08225  0.28250  0.69329  1.0000
  N   N18       1.0  0.41775  0.71750  0.19329  1.0000
  N   N19       1.0  0.58225  0.21750  0.30671  1.0000
  N   N20       1.0  0.91775  0.78250  0.80671  1.0000
  C   C13       1.0  0.09436  0.29050  0.74561  1.0000
  C   C14       1.0  0.40564  0.70950  0.24561  1.0000
  C   C15       1.0  0.59436  0.20950  0.25439  1.0000
  C   C16       1.0  0.90564  0.79050  0.75439  1.0000
  N   N21       1.0  0.11792  0.30235  0.80356  1.0000
  N   N22       1.0  0.38208  0.69765  0.30356  1.0000
  N   N23       1.0  0.61792  0.19765  0.19644  1.0000
  N   N24       1.0  0.88208  0.80235  0.69644  1.0000
  N   N25       1.0  0.91182  0.28122  0.02794  1.0000
  N   N26       1.0  0.58818  0.71878  0.52794  1.0000
  N   N27       1.0  0.41182  0.21878  0.97206  1.0000
  N   N28       1.0  0.08818  0.78122  0.47206  1.0000
  C   C17       1.0  0.98263  0.28141  0.05249  1.0000
  C   C18       1.0  0.51737  0.71859  0.55249  1.0000
  C   C19       1.0  0.48263  0.21859  0.94751  1.0000
  C   C20       1.0  0.01737  0.78141  0.44751  1.0000
  N   N29       1.0  0.21323  0.24893  0.05106  1.0000
  N   N30       1.0  0.28677  0.75107  0.55106  1.0000
  N   N31       1.0  0.71323  0.25107  0.94894  1.0000
  N   N32       1.0  0.78677  0.74893  0.44894  1.0000
  C   C21       1.0  0.13827  0.26413  0.06499  1.0000
  C   C22       1.0  0.36173  0.73587  0.56499  1.0000
  C   C23       1.0  0.63827  0.23587  0.93501  1.0000
  C   C24       1.0  0.86173  0.76413  0.43501  1.0000
  N   N33       1.0  0.05678  0.28472  0.08638  1.0000
  N   N34       1.0  0.44322  0.71528  0.58638  1.0000
  N   N35       1.0  0.55678  0.21528  0.91362  1.0000
  N   N36       1.0  0.94322  0.78472  0.41362  1.0000
  N   N37       1.0  0.84272  0.39457  0.92332  1.0000
  N   N38       1.0  0.65728  0.60543  0.42332  1.0000
  N   N39       1.0  0.34272  0.10543  0.07668  1.0000
  N   N40       1.0  0.15728  0.89457  0.57668  1.0000
  C   C25       1.0  0.83611  0.46166  0.91466  1.0000
  C   C26       1.0  0.66389  0.53834  0.41466  1.0000
  C   C27       1.0  0.33611  0.03834  0.08534  1.0000
  C   C28       1.0  0.16389  0.96166  0.58534  1.0000
  N   N41       1.0  0.93347  0.64142  0.89921  1.0000
  N   N42       1.0  0.56653  0.35858  0.39921  1.0000
  N   N43       1.0  0.43347  0.85858  0.10079  1.0000
  N   N44       1.0  0.06653  0.14142  0.60079  1.0000
  C   C29       1.0  0.88283  0.58903  0.90223  1.0000
  C   C30       1.0  0.61717  0.41097  0.40223  1.0000
  C   C31       1.0  0.38283  0.91097  0.09777  1.0000
  C   C32       1.0  0.11717  0.08903  0.59777  1.0000
  N   N45       1.0  0.81725  0.53544  0.90398  1.0000
  N   N46       1.0  0.68275  0.46456  0.40398  1.0000
  N   N47       1.0  0.31725  0.96456  0.09602  1.0000
  N   N48       1.0  0.18275  0.03544  0.59602  1.0000
  N   N49       1.0  0.16888  0.28722  0.55574  1.0000
  N   N50       1.0  0.33112  0.71278  0.05574  1.0000
  N   N51       1.0  0.66888  0.21278  0.44426  1.0000
  N   N52       1.0  0.83112  0.78722  0.94426  1.0000
  C   C33       1.0  0.24724  0.29819  0.55070  1.0000
  C   C34       1.0  0.25276  0.70181  0.05070  1.0000
  C   C35       1.0  0.74724  0.20181  0.44930  1.0000
  C   C36       1.0  0.75276  0.79819  0.94930  1.0000
  N   N53       1.0  0.45769  0.25093  0.49248  1.0000
  N   N54       1.0  0.04231  0.74907  0.99248  1.0000
  N   N55       1.0  0.95769  0.24907  0.50752  1.0000
  N   N56       1.0  0.54231  0.75093  0.00752  1.0000
  C   C37       1.0  0.39621  0.27885  0.51765  1.0000
  C   C38       1.0  0.10379  0.72115  0.01765  1.0000
  C   C39       1.0  0.89621  0.22115  0.48235  1.0000
  C   C40       1.0  0.60379  0.77885  0.98235  1.0000
  N   N57       1.0  0.33529  0.31750  0.55019  1.0000
  N   N58       1.0  0.16471  0.68250  0.05019  1.0000
  N   N59       1.0  0.83529  0.18250  0.44981  1.0000
  N   N60       1.0  0.66471  0.81750  0.94981  1.0000
  N   N61       1.0  0.99230  0.89773  0.91553  1.0000
  N   N62       1.0  0.50770  0.10227  0.41553  1.0000
  N   N63       1.0  0.49230  0.60227  0.08447  1.0000
  N   N64       1.0  0.00770  0.39773  0.58447  1.0000
  C   C41       1.0  0.96242  0.95097  0.94299  1.0000
  C   C42       1.0  0.53758  0.04903  0.44299  1.0000
  C   C43       1.0  0.46242  0.54903  0.05701  1.0000
  C   C44       1.0  0.03758  0.45097  0.55701  1.0000
  N   N65       1.0  0.89219  0.14049  0.94461  1.0000
  N   N66       1.0  0.60781  0.85951  0.44461  1.0000
  N   N67       1.0  0.39219  0.35951  0.05539  1.0000
  N   N68       1.0  0.10781  0.64049  0.55539  1.0000
  C   C45       1.0  0.91087  0.07662  0.95801  1.0000
  C   C46       1.0  0.58913  0.92338  0.45801  1.0000
  C   C47       1.0  0.41087  0.42338  0.04199  1.0000
  C   C48       1.0  0.08913  0.57662  0.54199  1.0000
  N   N69       1.0  0.93048  0.00589  0.97957  1.0000
  N   N70       1.0  0.56952  0.99411  0.47957  1.0000
  N   N71       1.0  0.43048  0.49411  0.02043  1.0000
  N   N72       1.0  0.06952  0.50589  0.52043  1.0000
