data_image0
_chemical_formula_structural       U8S8O76H8O4H8C16H4C8H4C8H4C16H4C8H4C8H4
_chemical_formula_sum              "U8 S8 O80 H40 C64"
_cell_length_a       11.4801
_cell_length_b       21.0566
_cell_length_c       14.7227
_cell_angle_alpha    90
_cell_angle_beta     110.471
_cell_angle_gamma    90

_space_group_name_H-M_alt    "P 1"
_space_group_IT_number       1

loop_
  _space_group_symop_operation_xyz
  'x, y, z'

loop_
  _atom_site_type_symbol
  _atom_site_label
  _atom_site_symmetry_multiplicity
  _atom_site_fract_x
  _atom_site_fract_y
  _atom_site_fract_z
  _atom_site_occupancy
  U   U1        1.0  0.10649  0.47120  0.87469  1.0000
  U   U2        1.0  0.89351  0.97120  0.62531  1.0000
  U   U3        1.0  0.89351  0.52880  0.12531  1.0000
  U   U4        1.0  0.10649  0.02880  0.37469  1.0000
  U   U5        1.0  0.39099  0.24548  0.95595  1.0000
  U   U6        1.0  0.60901  0.74548  0.54405  1.0000
  U   U7        1.0  0.60901  0.75452  0.04405  1.0000
  U   U8        1.0  0.39099  0.25452  0.45595  1.0000
  S   S1        1.0  0.15639  0.17825  0.05570  1.0000
  S   S2        1.0  0.84361  0.67825  0.44430  1.0000
  S   S3        1.0  0.84361  0.82175  0.94430  1.0000
  S   S4        1.0  0.15639  0.32175  0.55570  1.0000
  S   S5        1.0  0.61308  0.32739  0.67792  1.0000
  S   S6        1.0  0.38692  0.82739  0.82208  1.0000
  S   S7        1.0  0.38692  0.67261  0.32208  1.0000
  S   S8        1.0  0.61308  0.17261  0.17792  1.0000
  O   O1        1.0  0.94310  0.47140  0.81820  1.0000
  O   O2        1.0  0.05690  0.97140  0.68180  1.0000
  O   O3        1.0  0.05690  0.52860  0.18180  1.0000
  O   O4        1.0  0.94310  0.02860  0.31820  1.0000
  O   O5        1.0  0.26790  0.46600  0.93710  1.0000
  O   O6        1.0  0.73210  0.96600  0.56290  1.0000
  O   O7        1.0  0.73210  0.53400  0.06290  1.0000
  O   O8        1.0  0.26790  0.03400  0.43710  1.0000
  O   O9        1.0  0.37980  0.16760  0.91120  1.0000
  O   O10       1.0  0.62020  0.66760  0.58880  1.0000
  O   O11       1.0  0.62020  0.83240  0.08880  1.0000
  O   O12       1.0  0.37980  0.33240  0.41120  1.0000
  O   O13       1.0  0.40010  0.32290  0.00300  1.0000
  O   O14       1.0  0.59990  0.82290  0.49700  1.0000
  O   O15       1.0  0.59990  0.67710  0.99700  1.0000
  O   O16       1.0  0.40010  0.17710  0.50300  1.0000
  O   O17       1.0  0.07420  0.42330  0.00820  1.0000
  O   O18       1.0  0.92580  0.92330  0.49180  1.0000
  O   O19       1.0  0.92580  0.57670  0.99180  1.0000
  O   O20       1.0  0.07420  0.07670  0.50820  1.0000
  O   O21       1.0  0.88630  0.44250  0.01820  1.0000
  O   O22       1.0  0.11370  0.94250  0.48180  1.0000
  O   O23       1.0  0.11370  0.55750  0.98180  1.0000
  O   O24       1.0  0.88630  0.05750  0.51820  1.0000
  O   O25       1.0  0.59390  0.25760  0.96040  1.0000
  O   O26       1.0  0.40610  0.75760  0.53960  1.0000
  O   O27       1.0  0.40610  0.74240  0.03960  1.0000
  O   O28       1.0  0.59390  0.24240  0.46040  1.0000
  O   O29       1.0  0.65700  0.16500  0.91890  1.0000
  O   O30       1.0  0.34300  0.66500  0.58110  1.0000
  O   O31       1.0  0.34300  0.83500  0.08110  1.0000
  O   O32       1.0  0.65700  0.33500  0.41890  1.0000
  O   O33       1.0  0.25590  0.21680  0.04370  1.0000
  O   O34       1.0  0.74410  0.71680  0.45630  1.0000
  O   O35       1.0  0.74410  0.78320  0.95630  1.0000
  O   O36       1.0  0.25590  0.28320  0.54370  1.0000
  O   O37       1.0  0.12270  0.12480  0.99120  1.0000
  O   O38       1.0  0.87730  0.62480  0.50880  1.0000
  O   O39       1.0  0.87730  0.87520  0.00880  1.0000
  O   O40       1.0  0.12270  0.37520  0.49120  1.0000
  O   O41       1.0  0.18560  0.16090  0.15690  1.0000
  O   O42       1.0  0.81440  0.66090  0.34310  1.0000
  O   O43       1.0  0.81440  0.83910  0.84310  1.0000
  O   O44       1.0  0.18560  0.33910  0.65690  1.0000
  O   O45       1.0  0.10400  0.36020  0.83960  1.0000
  O   O46       1.0  0.89600  0.86020  0.66040  1.0000
  O   O47       1.0  0.89600  0.63980  0.16040  1.0000
  O   O48       1.0  0.10400  0.13980  0.33960  1.0000
  O   O49       1.0  0.18770  0.26420  0.84980  1.0000
  O   O50       1.0  0.81230  0.76420  0.65020  1.0000
  O   O51       1.0  0.81230  0.73580  0.15020  1.0000
  O   O52       1.0  0.18770  0.23580  0.34980  1.0000
  O   O53       1.0  0.92690  0.07340  0.71190  1.0000
  O   O54       1.0  0.07310  0.57340  0.78810  1.0000
  O   O55       1.0  0.07310  0.92660  0.28810  1.0000
  O   O56       1.0  0.92690  0.42660  0.21190  1.0000
  O   O57       1.0  0.72190  0.08700  0.65800  1.0000
  O   O58       1.0  0.27810  0.58700  0.84200  1.0000
  O   O59       1.0  0.27810  0.91300  0.34200  1.0000
  O   O60       1.0  0.72190  0.41300  0.15800  1.0000
  O   O61       1.0  0.51370  0.28720  0.61520  1.0000
  O   O62       1.0  0.48630  0.78720  0.88480  1.0000
  O   O63       1.0  0.48630  0.71280  0.38480  1.0000
  O   O64       1.0  0.51370  0.21280  0.11520  1.0000
  O   O65       1.0  0.59080  0.34190  0.76680  1.0000
  O   O66       1.0  0.40920  0.84190  0.73320  1.0000
  O   O67       1.0  0.40920  0.65810  0.23320  1.0000
  O   O68       1.0  0.59080  0.15810  0.26680  1.0000
  O   O69       1.0  0.63450  0.38310  0.62950  1.0000
  O   O70       1.0  0.36550  0.88310  0.87050  1.0000
  O   O71       1.0  0.36550  0.61690  0.37050  1.0000
  O   O72       1.0  0.63450  0.11690  0.12950  1.0000
  O   O73       1.0  0.14040  0.45730  0.72230  1.0000
  O   O74       1.0  0.85960  0.95730  0.77770  1.0000
  O   O75       1.0  0.85960  0.54270  0.27770  1.0000
  O   O76       1.0  0.14040  0.04270  0.22230  1.0000
  H   H1        1.0  0.12960  0.42240  0.67810  1.0000
  H   H2        1.0  0.87040  0.92240  0.82190  1.0000
  H   H3        1.0  0.87040  0.57760  0.32190  1.0000
  H   H4        1.0  0.12960  0.07760  0.17810  1.0000
  H   H5        1.0  0.12800  0.49070  0.67400  1.0000
  H   H6        1.0  0.87200  0.99070  0.82600  1.0000
  H   H7        1.0  0.87200  0.50930  0.32600  1.0000
  H   H8        1.0  0.12800  0.00930  0.17400  1.0000
  O   O77       1.0  0.39310  0.28590  0.80100  1.0000
  O   O78       1.0  0.60690  0.78590  0.69900  1.0000
  O   O79       1.0  0.60690  0.71410  0.19900  1.0000
  O   O80       1.0  0.39310  0.21410  0.30100  1.0000
  H   H9        1.0  0.31160  0.29230  0.76000  1.0000
  H   H10       1.0  0.68840  0.79230  0.74000  1.0000
  H   H11       1.0  0.68840  0.70770  0.24000  1.0000
  H   H12       1.0  0.31160  0.20770  0.26000  1.0000
  H   H13       1.0  0.44420  0.30900  0.79170  1.0000
  H   H14       1.0  0.55580  0.80900  0.70830  1.0000
  H   H15       1.0  0.55580  0.69100  0.20830  1.0000
  H   H16       1.0  0.44420  0.19100  0.29170  1.0000
  C   C1        1.0  0.96960  0.40540  0.01210  1.0000
  C   C2        1.0  0.03040  0.90540  0.48790  1.0000
  C   C3        1.0  0.03040  0.59460  0.98790  1.0000
  C   C4        1.0  0.96960  0.09460  0.51210  1.0000
  C   C5        1.0  0.67630  0.21930  0.94730  1.0000
  C   C6        1.0  0.32370  0.71930  0.55270  1.0000
  C   C7        1.0  0.32370  0.78070  0.05270  1.0000
  C   C8        1.0  0.67630  0.28070  0.44730  1.0000
  C   C9        1.0  0.94580  0.33610  0.00760  1.0000
  C   C10       1.0  0.05420  0.83610  0.49240  1.0000
  C   C11       1.0  0.05420  0.66390  0.99240  1.0000
  C   C12       1.0  0.94580  0.16390  0.50760  1.0000
  C   C13       1.0  0.82650  0.31170  0.98460  1.0000
  C   C14       1.0  0.17350  0.81170  0.51540  1.0000
  C   C15       1.0  0.17350  0.68830  0.01540  1.0000
  C   C16       1.0  0.82650  0.18830  0.48460  1.0000
  H   H17       1.0  0.75940  0.33920  0.97290  1.0000
  H   H18       1.0  0.24060  0.83920  0.52710  1.0000
  H   H19       1.0  0.24060  0.66080  0.02710  1.0000
  H   H20       1.0  0.75940  0.16080  0.47290  1.0000
  C   C17       1.0  0.80650  0.24610  0.97870  1.0000
  C   C18       1.0  0.19350  0.74610  0.52130  1.0000
  C   C19       1.0  0.19350  0.75390  0.02130  1.0000
  C   C20       1.0  0.80650  0.25390  0.47870  1.0000
  C   C21       1.0  0.90640  0.20490  0.99770  1.0000
  C   C22       1.0  0.09360  0.70490  0.50230  1.0000
  C   C23       1.0  0.09360  0.79510  0.00230  1.0000
  C   C24       1.0  0.90640  0.29510  0.49770  1.0000
  H   H21       1.0  0.89330  0.16120  0.99240  1.0000
  H   H22       1.0  0.10670  0.66120  0.50760  1.0000
  H   H23       1.0  0.10670  0.83880  0.00760  1.0000
  H   H24       1.0  0.89330  0.33880  0.49240  1.0000
  C   C25       1.0  0.02750  0.22960  0.02510  1.0000
  C   C26       1.0  0.97250  0.72960  0.47490  1.0000
  C   C27       1.0  0.97250  0.77040  0.97490  1.0000
  C   C28       1.0  0.02750  0.27040  0.52510  1.0000
  C   C29       1.0  0.04650  0.29490  0.02860  1.0000
  C   C30       1.0  0.95350  0.79490  0.47140  1.0000
  C   C31       1.0  0.95350  0.70510  0.97140  1.0000
  C   C32       1.0  0.04650  0.20510  0.52860  1.0000
  H   H25       1.0  0.12670  0.31100  0.04500  1.0000
  H   H26       1.0  0.87330  0.81100  0.45500  1.0000
  H   H27       1.0  0.87330  0.68900  0.95500  1.0000
  H   H28       1.0  0.12670  0.18900  0.54500  1.0000
  C   C33       1.0  0.09640  0.30170  0.82500  1.0000
  C   C34       1.0  0.90360  0.80170  0.67500  1.0000
  C   C35       1.0  0.90360  0.69830  0.17500  1.0000
  C   C36       1.0  0.09640  0.19830  0.32500  1.0000
  C   C37       1.0  0.82980  0.10810  0.69640  1.0000
  C   C38       1.0  0.17020  0.60810  0.80360  1.0000
  C   C39       1.0  0.17020  0.89190  0.30360  1.0000
  C   C40       1.0  0.82980  0.39190  0.19640  1.0000
  C   C41       1.0  0.97010  0.27190  0.77770  1.0000
  C   C42       1.0  0.02990  0.77190  0.72230  1.0000
  C   C43       1.0  0.02990  0.72810  0.22230  1.0000
  C   C44       1.0  0.97010  0.22810  0.27770  1.0000
  C   C45       1.0  0.96140  0.20610  0.76010  1.0000
  C   C46       1.0  0.03860  0.70610  0.73990  1.0000
  C   C47       1.0  0.03860  0.79390  0.23990  1.0000
  C   C48       1.0  0.96140  0.29390  0.26010  1.0000
  H   H29       1.0  0.03310  0.18150  0.77610  1.0000
  H   H30       1.0  0.96690  0.68150  0.72390  1.0000
  H   H31       1.0  0.96690  0.81850  0.22390  1.0000
  H   H32       1.0  0.03310  0.31850  0.27610  1.0000
  C   C49       1.0  0.84710  0.17840  0.71930  1.0000
  C   C50       1.0  0.15290  0.67840  0.78070  1.0000
  C   C51       1.0  0.15290  0.82160  0.28070  1.0000
  C   C52       1.0  0.84710  0.32160  0.21930  1.0000
  C   C53       1.0  0.73970  0.21560  0.69410  1.0000
  C   C54       1.0  0.26030  0.71560  0.80590  1.0000
  C   C55       1.0  0.26030  0.78440  0.30590  1.0000
  C   C56       1.0  0.73970  0.28440  0.19410  1.0000
  H   H33       1.0  0.66220  0.19650  0.66670  1.0000
  H   H34       1.0  0.33780  0.69650  0.83330  1.0000
  H   H35       1.0  0.33780  0.80350  0.33330  1.0000
  H   H36       1.0  0.66220  0.30350  0.16670  1.0000
  C   C57       1.0  0.74750  0.28060  0.70930  1.0000
  C   C58       1.0  0.25250  0.78060  0.79070  1.0000
  C   C59       1.0  0.25250  0.71940  0.29070  1.0000
  C   C60       1.0  0.74750  0.21940  0.20930  1.0000
  C   C61       1.0  0.86500  0.30940  0.75140  1.0000
  C   C62       1.0  0.13500  0.80940  0.74860  1.0000
  C   C63       1.0  0.13500  0.69060  0.24860  1.0000
  C   C64       1.0  0.86500  0.19060  0.25140  1.0000
  H   H37       1.0  0.87150  0.35300  0.76140  1.0000
  H   H38       1.0  0.12850  0.85300  0.73860  1.0000
  H   H39       1.0  0.12850  0.64700  0.23860  1.0000
  H   H40       1.0  0.87150  0.14700  0.26140  1.0000
