data_image0
_chemical_formula_structural       Th2O32C16
_chemical_formula_sum              "Th2 O32 C16"
_cell_length_a       9.179
_cell_length_b       11.119
_cell_length_c       12.563
_cell_angle_alpha    67.051
_cell_angle_beta     86.36
_cell_angle_gamma    68.654

_space_group_name_H-M_alt    "P 1"
_space_group_IT_number       1

loop_
  _space_group_symop_operation_xyz
  'x, y, z'

loop_
  _atom_site_type_symbol
  _atom_site_label
  _atom_site_symmetry_multiplicity
  _atom_site_fract_x
  _atom_site_fract_y
  _atom_site_fract_z
  _atom_site_occupancy
  Th  Th1       1.0  0.49736  0.74737  0.24863  1.0000
  Th  Th2       1.0  0.50264  0.25263  0.75137  1.0000
  O   O1        1.0  0.22070  0.79980  0.18390  1.0000
  O   O2        1.0  0.77930  0.20020  0.81610  1.0000
  O   O3        1.0  0.29280  0.96350  0.25310  1.0000
  O   O4        1.0  0.70720  0.03650  0.74690  1.0000
  O   O5        1.0  0.54580  0.80030  0.41530  1.0000
  O   O6        1.0  0.45420  0.19970  0.58470  1.0000
  O   O7        1.0  0.77410  0.70940  0.29910  1.0000
  O   O8        1.0  0.22590  0.29060  0.70090  1.0000
  O   O9        1.0  0.69600  0.62850  0.14510  1.0000
  O   O10       1.0  0.30400  0.37150  0.85490  1.0000
  O   O11       1.0  0.45000  0.56340  0.20750  1.0000
  O   O12       1.0  0.55000  0.43660  0.79250  1.0000
  O   O13       1.0  0.35230  0.49320  0.59330  1.0000
  O   O14       1.0  0.64770  0.50680  0.40670  1.0000
  O   O15       1.0  0.34760  0.65310  0.41530  1.0000
  O   O16       1.0  0.65240  0.34690  0.58470  1.0000
  O   O17       1.0  0.56830  0.96100  0.13970  1.0000
  O   O18       1.0  0.43170  0.03900  0.86030  1.0000
  O   O19       1.0  0.56820  0.13470  0.97130  1.0000
  O   O20       1.0  0.43180  0.86530  0.02870  1.0000
  O   O21       1.0  0.96840  0.93460  0.15310  1.0000
  O   O22       1.0  0.03160  0.06540  0.84690  1.0000
  O   O23       1.0  0.03980  0.09010  0.25310  1.0000
  O   O24       1.0  0.96020  0.90990  0.74690  1.0000
  O   O25       1.0  0.71530  0.75780  0.55670  1.0000
  O   O26       1.0  0.28470  0.24220  0.44330  1.0000
  O   O27       1.0  0.95330  0.67510  0.43000  1.0000
  O   O28       1.0  0.04670  0.32490  0.57000  1.0000
  O   O29       1.0  0.78900  0.46600  0.07250  1.0000
  O   O30       1.0  0.21100  0.53400  0.92750  1.0000
  O   O31       1.0  0.54030  0.38490  0.15090  1.0000
  O   O32       1.0  0.45970  0.61510  0.84910  1.0000
  C   C1        1.0  0.10540  0.90410  0.18580  1.0000
  C   C2        1.0  0.89460  0.09590  0.81420  1.0000
  C   C3        1.0  0.14590  0.99610  0.23570  1.0000
  C   C4        1.0  0.85410  0.00390  0.76430  1.0000
  C   C5        1.0  0.68190  0.76090  0.46230  1.0000
  C   C6        1.0  0.31810  0.23910  0.53770  1.0000
  C   C7        1.0  0.81650  0.71010  0.39200  1.0000
  C   C8        1.0  0.18350  0.28990  0.60800  1.0000
  C   C9        1.0  0.69090  0.52940  0.12170  1.0000
  C   C10       1.0  0.30910  0.47060  0.87830  1.0000
  C   C11       1.0  0.54930  0.48530  0.16350  1.0000
  C   C12       1.0  0.45070  0.51470  0.83650  1.0000
  C   C13       1.0  0.41340  0.54330  0.50220  1.0000
  C   C14       1.0  0.58660  0.45670  0.49780  1.0000
  C   C15       1.0  0.53930  0.02730  0.03230  1.0000
  C   C16       1.0  0.46070  0.97270  0.96770  1.0000
