data_image0
_chemical_formula_structural       Th12O120C60
_chemical_formula_sum              "Th12 O120 C60"
_cell_length_a       19.4484
_cell_length_b       19.4484
_cell_length_c       12.9293
_cell_angle_alpha    90
_cell_angle_beta     90
_cell_angle_gamma    120

_space_group_name_H-M_alt    "P 1"
_space_group_IT_number       1

loop_
  _space_group_symop_operation_xyz
  'x, y, z'

loop_
  _atom_site_type_symbol
  _atom_site_label
  _atom_site_symmetry_multiplicity
  _atom_site_fract_x
  _atom_site_fract_y
  _atom_site_fract_z
  _atom_site_occupancy
  Th  Th1       1.0  0.33304  0.33304  0.50000  1.0000
  Th  Th2       1.0  0.00000  0.33304  0.00000  1.0000
  Th  Th3       1.0  0.66696  0.00000  0.50000  1.0000
  Th  Th4       1.0  0.66696  0.66696  0.00000  1.0000
  Th  Th5       1.0  0.00000  0.66696  0.50000  1.0000
  Th  Th6       1.0  0.33304  0.00000  0.00000  1.0000
  Th  Th7       1.0  0.66696  0.66696  0.50000  1.0000
  Th  Th8       1.0  0.00000  0.66696  0.00000  1.0000
  Th  Th9       1.0  0.33304  0.00000  0.50000  1.0000
  Th  Th10      1.0  0.33304  0.33304  0.00000  1.0000
  Th  Th11      1.0  0.00000  0.33304  0.50000  1.0000
  Th  Th12      1.0  0.66696  0.00000  0.00000  1.0000
  O   O1        1.0  0.33740  0.40660  0.66280  1.0000
  O   O2        1.0  0.93080  0.33740  0.16280  1.0000
  O   O3        1.0  0.59340  0.93080  0.66280  1.0000
  O   O4        1.0  0.66260  0.59340  0.16280  1.0000
  O   O5        1.0  0.06920  0.66260  0.66280  1.0000
  O   O6        1.0  0.40660  0.06920  0.16280  1.0000
  O   O7        1.0  0.93080  0.59340  0.33720  1.0000
  O   O8        1.0  0.66260  0.06920  0.33720  1.0000
  O   O9        1.0  0.40660  0.33740  0.33720  1.0000
  O   O10       1.0  0.59340  0.66260  0.83720  1.0000
  O   O11       1.0  0.06920  0.40660  0.83720  1.0000
  O   O12       1.0  0.33740  0.93080  0.83720  1.0000
  O   O13       1.0  0.66260  0.59340  0.33720  1.0000
  O   O14       1.0  0.06920  0.66260  0.83720  1.0000
  O   O15       1.0  0.40660  0.06920  0.33720  1.0000
  O   O16       1.0  0.33740  0.40660  0.83720  1.0000
  O   O17       1.0  0.93080  0.33740  0.33720  1.0000
  O   O18       1.0  0.59340  0.93080  0.83720  1.0000
  O   O19       1.0  0.06920  0.40660  0.66280  1.0000
  O   O20       1.0  0.33740  0.93080  0.66280  1.0000
  O   O21       1.0  0.59340  0.66260  0.66280  1.0000
  O   O22       1.0  0.40660  0.33740  0.16280  1.0000
  O   O23       1.0  0.93080  0.59340  0.16280  1.0000
  O   O24       1.0  0.66260  0.06920  0.16280  1.0000
  O   O25       1.0  0.31180  0.25830  0.66280  1.0000
  O   O26       1.0  0.05350  0.31180  0.16280  1.0000
  O   O27       1.0  0.74170  0.05350  0.66280  1.0000
  O   O28       1.0  0.68820  0.74170  0.16280  1.0000
  O   O29       1.0  0.94650  0.68820  0.66280  1.0000
  O   O30       1.0  0.25830  0.94650  0.16280  1.0000
  O   O31       1.0  0.05350  0.74170  0.33720  1.0000
  O   O32       1.0  0.68820  0.94650  0.33720  1.0000
  O   O33       1.0  0.25830  0.31180  0.33720  1.0000
  O   O34       1.0  0.74170  0.68820  0.83720  1.0000
  O   O35       1.0  0.94650  0.25830  0.83720  1.0000
  O   O36       1.0  0.31180  0.05350  0.83720  1.0000
  O   O37       1.0  0.68820  0.74170  0.33720  1.0000
  O   O38       1.0  0.94650  0.68820  0.83720  1.0000
  O   O39       1.0  0.25830  0.94650  0.33720  1.0000
  O   O40       1.0  0.31180  0.25830  0.83720  1.0000
  O   O41       1.0  0.05350  0.31180  0.33720  1.0000
  O   O42       1.0  0.74170  0.05350  0.83720  1.0000
  O   O43       1.0  0.94650  0.25830  0.66280  1.0000
  O   O44       1.0  0.31180  0.05350  0.66280  1.0000
  O   O45       1.0  0.74170  0.68820  0.66280  1.0000
  O   O46       1.0  0.25830  0.31180  0.16280  1.0000
  O   O47       1.0  0.05350  0.74170  0.16280  1.0000
  O   O48       1.0  0.68820  0.94650  0.16280  1.0000
  O   O49       1.0  0.18920  0.26270  0.54700  1.0000
  O   O50       1.0  0.92650  0.18920  0.04700  1.0000
  O   O51       1.0  0.73730  0.92650  0.54700  1.0000
  O   O52       1.0  0.81080  0.73730  0.04700  1.0000
  O   O53       1.0  0.07350  0.81080  0.54700  1.0000
  O   O54       1.0  0.26270  0.07350  0.04700  1.0000
  O   O55       1.0  0.92650  0.73730  0.45300  1.0000
  O   O56       1.0  0.81080  0.07350  0.45300  1.0000
  O   O57       1.0  0.26270  0.18920  0.45300  1.0000
  O   O58       1.0  0.73730  0.81080  0.95300  1.0000
  O   O59       1.0  0.07350  0.26270  0.95300  1.0000
  O   O60       1.0  0.18920  0.92650  0.95300  1.0000
  O   O61       1.0  0.81080  0.73730  0.45300  1.0000
  O   O62       1.0  0.07350  0.81080  0.95300  1.0000
  O   O63       1.0  0.26270  0.07350  0.45300  1.0000
  O   O64       1.0  0.18920  0.26270  0.95300  1.0000
  O   O65       1.0  0.92650  0.18920  0.45300  1.0000
  O   O66       1.0  0.73730  0.92650  0.95300  1.0000
  O   O67       1.0  0.07350  0.26270  0.54700  1.0000
  O   O68       1.0  0.18920  0.92650  0.54700  1.0000
  O   O69       1.0  0.73730  0.81080  0.54700  1.0000
  O   O70       1.0  0.26270  0.18920  0.04700  1.0000
  O   O71       1.0  0.92650  0.73730  0.04700  1.0000
  O   O72       1.0  0.81080  0.07350  0.04700  1.0000
  O   O73       1.0  0.26440  0.41480  0.48920  1.0000
  O   O74       1.0  0.84960  0.26440  0.98920  1.0000
  O   O75       1.0  0.58520  0.84960  0.48920  1.0000
  O   O76       1.0  0.73560  0.58520  0.98920  1.0000
  O   O77       1.0  0.15040  0.73560  0.48920  1.0000
  O   O78       1.0  0.41480  0.15040  0.98920  1.0000
  O   O79       1.0  0.84960  0.58520  0.51080  1.0000
  O   O80       1.0  0.73560  0.15040  0.51080  1.0000
  O   O81       1.0  0.41480  0.26440  0.51080  1.0000
  O   O82       1.0  0.58520  0.73560  0.01080  1.0000
  O   O83       1.0  0.15040  0.41480  0.01080  1.0000
  O   O84       1.0  0.26440  0.84960  0.01080  1.0000
  O   O85       1.0  0.73560  0.58520  0.51080  1.0000
  O   O86       1.0  0.15040  0.73560  0.01080  1.0000
  O   O87       1.0  0.41480  0.15040  0.51080  1.0000
  O   O88       1.0  0.26440  0.41480  0.01080  1.0000
  O   O89       1.0  0.84960  0.26440  0.51080  1.0000
  O   O90       1.0  0.58520  0.84960  0.01080  1.0000
  O   O91       1.0  0.15040  0.41480  0.48920  1.0000
  O   O92       1.0  0.26440  0.84960  0.48920  1.0000
  O   O93       1.0  0.58520  0.73560  0.48920  1.0000
  O   O94       1.0  0.41480  0.26440  0.98920  1.0000
  O   O95       1.0  0.84960  0.58520  0.98920  1.0000
  O   O96       1.0  0.73560  0.15040  0.98920  1.0000
  O   O97       1.0  0.41340  0.47080  0.42750  1.0000
  O   O98       1.0  0.94260  0.41340  0.92750  1.0000
  O   O99       1.0  0.52920  0.94260  0.42750  1.0000
  O   O100      1.0  0.58660  0.52920  0.92750  1.0000
  O   O101      1.0  0.05740  0.58660  0.42750  1.0000
  O   O102      1.0  0.47080  0.05740  0.92750  1.0000
  O   O103      1.0  0.94260  0.52920  0.57250  1.0000
  O   O104      1.0  0.58660  0.05740  0.57250  1.0000
  O   O105      1.0  0.47080  0.41340  0.57250  1.0000
  O   O106      1.0  0.52920  0.58660  0.07250  1.0000
  O   O107      1.0  0.05740  0.47080  0.07250  1.0000
  O   O108      1.0  0.41340  0.94260  0.07250  1.0000
  O   O109      1.0  0.58660  0.52920  0.57250  1.0000
  O   O110      1.0  0.05740  0.58660  0.07250  1.0000
  O   O111      1.0  0.47080  0.05740  0.57250  1.0000
  O   O112      1.0  0.41340  0.47080  0.07250  1.0000
  O   O113      1.0  0.94260  0.41340  0.57250  1.0000
  O   O114      1.0  0.52920  0.94260  0.07250  1.0000
  O   O115      1.0  0.05740  0.47080  0.42750  1.0000
  O   O116      1.0  0.41340  0.94260  0.42750  1.0000
  O   O117      1.0  0.52920  0.58660  0.42750  1.0000
  O   O118      1.0  0.47080  0.41340  0.92750  1.0000
  O   O119      1.0  0.94260  0.52920  0.92750  1.0000
  O   O120      1.0  0.58660  0.05740  0.92750  1.0000
  C   C1        1.0  0.32600  0.37180  0.75000  1.0000
  C   C2        1.0  0.95420  0.32600  0.25000  1.0000
  C   C3        1.0  0.62820  0.95420  0.75000  1.0000
  C   C4        1.0  0.67400  0.62820  0.25000  1.0000
  C   C5        1.0  0.04580  0.67400  0.75000  1.0000
  C   C6        1.0  0.37180  0.04580  0.25000  1.0000
  C   C7        1.0  0.95420  0.62820  0.25000  1.0000
  C   C8        1.0  0.67400  0.04580  0.25000  1.0000
  C   C9        1.0  0.37180  0.32600  0.25000  1.0000
  C   C10       1.0  0.62820  0.67400  0.75000  1.0000
  C   C11       1.0  0.04580  0.37180  0.75000  1.0000
  C   C12       1.0  0.32600  0.95420  0.75000  1.0000
  C   C13       1.0  0.31590  0.28970  0.75000  1.0000
  C   C14       1.0  0.02620  0.31590  0.25000  1.0000
  C   C15       1.0  0.71030  0.02620  0.75000  1.0000
  C   C16       1.0  0.68410  0.71030  0.25000  1.0000
  C   C17       1.0  0.97380  0.68410  0.75000  1.0000
  C   C18       1.0  0.28970  0.97380  0.25000  1.0000
  C   C19       1.0  0.02620  0.71030  0.25000  1.0000
  C   C20       1.0  0.68410  0.97380  0.25000  1.0000
  C   C21       1.0  0.28970  0.31590  0.25000  1.0000
  C   C22       1.0  0.71030  0.68410  0.75000  1.0000
  C   C23       1.0  0.97380  0.28970  0.75000  1.0000
  C   C24       1.0  0.31590  0.02620  0.75000  1.0000
  C   C25       1.0  0.14740  0.29480  0.53570  1.0000
  C   C26       1.0  0.85260  0.14740  0.03570  1.0000
  C   C27       1.0  0.70520  0.85260  0.53570  1.0000
  C   C28       1.0  0.85260  0.70520  0.03570  1.0000
  C   C29       1.0  0.14740  0.85260  0.53570  1.0000
  C   C30       1.0  0.29480  0.14740  0.03570  1.0000
  C   C31       1.0  0.85260  0.70520  0.46430  1.0000
  C   C32       1.0  0.85260  0.14740  0.46430  1.0000
  C   C33       1.0  0.29480  0.14740  0.46430  1.0000
  C   C34       1.0  0.70520  0.85260  0.96430  1.0000
  C   C35       1.0  0.14740  0.29480  0.96430  1.0000
  C   C36       1.0  0.14740  0.85260  0.96430  1.0000
  C   C37       1.0  0.19240  0.38480  0.49900  1.0000
  C   C38       1.0  0.80760  0.19240  0.99900  1.0000
  C   C39       1.0  0.61520  0.80760  0.49900  1.0000
  C   C40       1.0  0.80760  0.61520  0.99900  1.0000
  C   C41       1.0  0.19240  0.80760  0.49900  1.0000
  C   C42       1.0  0.38480  0.19240  0.99900  1.0000
  C   C43       1.0  0.80760  0.61520  0.50100  1.0000
  C   C44       1.0  0.80760  0.19240  0.50100  1.0000
  C   C45       1.0  0.38480  0.19240  0.50100  1.0000
  C   C46       1.0  0.61520  0.80760  0.00100  1.0000
  C   C47       1.0  0.19240  0.38480  0.00100  1.0000
  C   C48       1.0  0.19240  0.80760  0.00100  1.0000
  C   C49       1.0  0.48440  0.51560  0.46100  1.0000
  C   C50       1.0  0.96880  0.48440  0.96100  1.0000
  C   C51       1.0  0.48440  0.96880  0.46100  1.0000
  C   C52       1.0  0.51560  0.48440  0.96100  1.0000
  C   C53       1.0  0.03120  0.51560  0.46100  1.0000
  C   C54       1.0  0.51560  0.03120  0.96100  1.0000
  C   C55       1.0  0.96880  0.48440  0.53900  1.0000
  C   C56       1.0  0.51560  0.03120  0.53900  1.0000
  C   C57       1.0  0.51560  0.48440  0.53900  1.0000
  C   C58       1.0  0.48440  0.51560  0.03900  1.0000
  C   C59       1.0  0.03120  0.51560  0.03900  1.0000
  C   C60       1.0  0.48440  0.96880  0.03900  1.0000
