data_image0
_chemical_formula_structural       Th4O64C32
_chemical_formula_sum              "Th4 O64 C32"
_cell_length_a       9.5286
_cell_length_b       18.6468
_cell_length_c       12.7401
_cell_angle_alpha    90
_cell_angle_beta     109.72
_cell_angle_gamma    90

_space_group_name_H-M_alt    "P 1"
_space_group_IT_number       1

loop_
  _space_group_symop_operation_xyz
  'x, y, z'

loop_
  _atom_site_type_symbol
  _atom_site_label
  _atom_site_symmetry_multiplicity
  _atom_site_fract_x
  _atom_site_fract_y
  _atom_site_fract_z
  _atom_site_occupancy
  Th  Th1       1.0  0.67211  0.27302  0.52947  1.0000
  Th  Th2       1.0  0.32789  0.77302  0.97053  1.0000
  Th  Th3       1.0  0.32789  0.72698  0.47053  1.0000
  Th  Th4       1.0  0.67211  0.22698  0.02947  1.0000
  O   O1        1.0  0.54780  0.27543  0.15779  1.0000
  O   O2        1.0  0.45220  0.77543  0.34221  1.0000
  O   O3        1.0  0.45220  0.72457  0.84221  1.0000
  O   O4        1.0  0.54780  0.22457  0.65779  1.0000
  O   O5        1.0  0.77560  0.18216  0.22823  1.0000
  O   O6        1.0  0.22440  0.68216  0.27177  1.0000
  O   O7        1.0  0.22440  0.81784  0.77177  1.0000
  O   O8        1.0  0.77560  0.31784  0.72823  1.0000
  O   O9        1.0  0.81590  0.17362  0.64717  1.0000
  O   O10       1.0  0.18410  0.67362  0.85283  1.0000
  O   O11       1.0  0.18410  0.82638  0.35283  1.0000
  O   O12       1.0  0.81590  0.32638  0.14717  1.0000
  O   O13       1.0  0.94580  0.28208  0.58895  1.0000
  O   O14       1.0  0.05420  0.78208  0.91105  1.0000
  O   O15       1.0  0.05420  0.71792  0.41105  1.0000
  O   O16       1.0  0.94580  0.21792  0.08895  1.0000
  O   O17       1.0  0.76510  0.39591  0.52689  1.0000
  O   O18       1.0  0.23490  0.89591  0.97311  1.0000
  O   O19       1.0  0.23490  0.60409  0.47311  1.0000
  O   O20       1.0  0.76510  0.10409  0.02689  1.0000
  O   O21       1.0  0.79060  0.20621  0.40382  1.0000
  O   O22       1.0  0.20940  0.70621  0.09618  1.0000
  O   O23       1.0  0.20940  0.79379  0.59618  1.0000
  O   O24       1.0  0.79060  0.29379  0.90382  1.0000
  O   O25       1.0  0.60000  0.31310  0.33246  1.0000
  O   O26       1.0  0.40000  0.81310  0.16754  1.0000
  O   O27       1.0  0.40000  0.68690  0.66754  1.0000
  O   O28       1.0  0.60000  0.18690  0.83246  1.0000
  O   O29       1.0  0.56240  0.15129  0.46419  1.0000
  O   O30       1.0  0.43760  0.65129  0.03581  1.0000
  O   O31       1.0  0.43760  0.84871  0.53581  1.0000
  O   O32       1.0  0.56240  0.34871  0.96419  1.0000
  O   O33       1.0  0.51340  0.37238  0.55865  1.0000
  O   O34       1.0  0.48660  0.87238  0.94135  1.0000
  O   O35       1.0  0.48660  0.62762  0.44135  1.0000
  O   O36       1.0  0.51340  0.12762  0.05865  1.0000
  O   O37       1.0  0.40000  0.26634  0.42780  1.0000
  O   O38       1.0  0.60000  0.76634  0.07220  1.0000
  O   O39       1.0  0.60000  0.73366  0.57220  1.0000
  O   O40       1.0  0.40000  0.23366  0.92780  1.0000
  O   O41       1.0  0.03370  0.12627  0.74670  1.0000
  O   O42       1.0  0.96630  0.62627  0.75330  1.0000
  O   O43       1.0  0.96630  0.87373  0.25330  1.0000
  O   O44       1.0  0.03370  0.37373  0.24670  1.0000
  O   O45       1.0  0.16280  0.22471  0.64160  1.0000
  O   O46       1.0  0.83720  0.72471  0.85840  1.0000
  O   O47       1.0  0.83720  0.77529  0.35840  1.0000
  O   O48       1.0  0.16280  0.27529  0.14160  1.0000
  O   O49       1.0  0.78290  0.50528  0.60141  1.0000
  O   O50       1.0  0.21710  0.00528  0.89859  1.0000
  O   O51       1.0  0.21710  0.49472  0.39859  1.0000
  O   O52       1.0  0.78290  0.99472  0.10141  1.0000
  O   O53       1.0  0.36110  0.08124  0.41830  1.0000
  O   O54       1.0  0.63890  0.58124  0.08170  1.0000
  O   O55       1.0  0.63890  0.91876  0.58170  1.0000
  O   O56       1.0  0.36110  0.41876  0.91830  1.0000
  O   O57       1.0  0.51620  0.48019  0.63428  1.0000
  O   O58       1.0  0.48380  0.98019  0.86572  1.0000
  O   O59       1.0  0.48380  0.51981  0.36572  1.0000
  O   O60       1.0  0.51620  0.01981  0.13428  1.0000
  O   O61       1.0  0.18990  0.20373  0.37970  1.0000
  O   O62       1.0  0.81010  0.70373  0.12030  1.0000
  O   O63       1.0  0.81010  0.79627  0.62030  1.0000
  O   O64       1.0  0.18990  0.29627  0.87970  1.0000
  C   C1        1.0  0.61800  0.27255  0.25930  1.0000
  C   C2        1.0  0.38200  0.77255  0.24070  1.0000
  C   C3        1.0  0.38200  0.72745  0.74070  1.0000
  C   C4        1.0  0.61800  0.22745  0.75930  1.0000
  C   C5        1.0  0.73980  0.21505  0.30110  1.0000
  C   C6        1.0  0.26020  0.71505  0.19890  1.0000
  C   C7        1.0  0.26020  0.78495  0.69890  1.0000
  C   C8        1.0  0.73980  0.28495  0.80110  1.0000
  C   C9        1.0  0.95690  0.17105  0.68140  1.0000
  C   C10       1.0  0.04310  0.67105  0.81860  1.0000
  C   C11       1.0  0.04310  0.82895  0.31860  1.0000
  C   C12       1.0  0.95690  0.32895  0.18140  1.0000
  C   C13       1.0  0.03180  0.23072  0.63350  1.0000
  C   C14       1.0  0.96820  0.73072  0.86650  1.0000
  C   C15       1.0  0.96820  0.76928  0.36650  1.0000
  C   C16       1.0  0.03180  0.26928  0.13350  1.0000
  C   C17       1.0  0.71860  0.44800  0.57140  1.0000
  C   C18       1.0  0.28140  0.94800  0.92860  1.0000
  C   C19       1.0  0.28140  0.55200  0.42860  1.0000
  C   C20       1.0  0.71860  0.05200  0.07140  1.0000
  C   C21       1.0  0.42320  0.13990  0.43160  1.0000
  C   C22       1.0  0.57680  0.63990  0.06840  1.0000
  C   C23       1.0  0.57680  0.86010  0.56840  1.0000
  C   C24       1.0  0.42320  0.36010  0.93160  1.0000
  C   C25       1.0  0.56920  0.43375  0.59070  1.0000
  C   C26       1.0  0.43080  0.93375  0.90930  1.0000
  C   C27       1.0  0.43080  0.56625  0.40930  1.0000
  C   C28       1.0  0.56920  0.06625  0.09070  1.0000
  C   C29       1.0  0.32600  0.20851  0.40980  1.0000
  C   C30       1.0  0.67400  0.70851  0.09020  1.0000
  C   C31       1.0  0.67400  0.79149  0.59020  1.0000
  C   C32       1.0  0.32600  0.29149  0.90980  1.0000
