data_image0
_chemical_formula_structural       Th4Ca4O72C36
_chemical_formula_sum              "Th4 Ca4 O72 C36"
_cell_length_a       8.9032
_cell_length_b       14.9223
_cell_length_c       18.1553
_cell_angle_alpha    90
_cell_angle_beta     90
_cell_angle_gamma    90

_space_group_name_H-M_alt    "P 1"
_space_group_IT_number       1

loop_
  _space_group_symop_operation_xyz
  'x, y, z'

loop_
  _atom_site_type_symbol
  _atom_site_label
  _atom_site_symmetry_multiplicity
  _atom_site_fract_x
  _atom_site_fract_y
  _atom_site_fract_z
  _atom_site_occupancy
  Th  Th1       1.0  0.82586  0.19080  0.50000  1.0000
  Th  Th2       1.0  0.17414  0.80920  0.50000  1.0000
  Th  Th3       1.0  0.67414  0.69080  0.00000  1.0000
  Th  Th4       1.0  0.32586  0.30920  0.00000  1.0000
  Ca  Ca1       1.0  0.00000  0.50000  0.72918  1.0000
  Ca  Ca2       1.0  0.50000  0.00000  0.77082  1.0000
  Ca  Ca3       1.0  0.00000  0.50000  0.27082  1.0000
  Ca  Ca4       1.0  0.50000  0.00000  0.22918  1.0000
  O   O1        1.0  0.06800  0.10940  0.50000  1.0000
  O   O2        1.0  0.93200  0.89060  0.50000  1.0000
  O   O3        1.0  0.43200  0.60940  0.00000  1.0000
  O   O4        1.0  0.56800  0.39060  0.00000  1.0000
  O   O5        1.0  0.19250  0.97950  0.50000  1.0000
  O   O6        1.0  0.80750  0.02050  0.50000  1.0000
  O   O7        1.0  0.30750  0.47950  0.00000  1.0000
  O   O8        1.0  0.69250  0.52050  0.00000  1.0000
  O   O9        1.0  0.85470  0.11950  0.37480  1.0000
  O   O10       1.0  0.14530  0.88050  0.37480  1.0000
  O   O11       1.0  0.64530  0.61950  0.12520  1.0000
  O   O12       1.0  0.35470  0.38050  0.12520  1.0000
  O   O13       1.0  0.14530  0.88050  0.62520  1.0000
  O   O14       1.0  0.85470  0.11950  0.62520  1.0000
  O   O15       1.0  0.35470  0.38050  0.87480  1.0000
  O   O16       1.0  0.64530  0.61950  0.87480  1.0000
  O   O17       1.0  0.59270  0.16410  0.42840  1.0000
  O   O18       1.0  0.40730  0.83590  0.42840  1.0000
  O   O19       1.0  0.90730  0.66410  0.07160  1.0000
  O   O20       1.0  0.09270  0.33590  0.07160  1.0000
  O   O21       1.0  0.40730  0.83590  0.57160  1.0000
  O   O22       1.0  0.59270  0.16410  0.57160  1.0000
  O   O23       1.0  0.09270  0.33590  0.92840  1.0000
  O   O24       1.0  0.90730  0.66410  0.92840  1.0000
  O   O25       1.0  0.02460  0.26590  0.57680  1.0000
  O   O26       1.0  0.97540  0.73410  0.57680  1.0000
  O   O27       1.0  0.47540  0.76590  0.92320  1.0000
  O   O28       1.0  0.52460  0.23410  0.92320  1.0000
  O   O29       1.0  0.97540  0.73410  0.42320  1.0000
  O   O30       1.0  0.02460  0.26590  0.42320  1.0000
  O   O31       1.0  0.52460  0.23410  0.07680  1.0000
  O   O32       1.0  0.47540  0.76590  0.07680  1.0000
  O   O33       1.0  0.74780  0.32310  0.57570  1.0000
  O   O34       1.0  0.25220  0.67690  0.57570  1.0000
  O   O35       1.0  0.75220  0.82310  0.92430  1.0000
  O   O36       1.0  0.24780  0.17690  0.92430  1.0000
  O   O37       1.0  0.25220  0.67690  0.42430  1.0000
  O   O38       1.0  0.74780  0.32310  0.42430  1.0000
  O   O39       1.0  0.24780  0.17690  0.07570  1.0000
  O   O40       1.0  0.75220  0.82310  0.07570  1.0000
  O   O41       1.0  0.74460  0.03920  0.28590  1.0000
  O   O42       1.0  0.25540  0.96080  0.28590  1.0000
  O   O43       1.0  0.75540  0.53920  0.21410  1.0000
  O   O44       1.0  0.24460  0.46080  0.21410  1.0000
  O   O45       1.0  0.25540  0.96080  0.71410  1.0000
  O   O46       1.0  0.74460  0.03920  0.71410  1.0000
  O   O47       1.0  0.24460  0.46080  0.78590  1.0000
  O   O48       1.0  0.75540  0.53920  0.78590  1.0000
  O   O49       1.0  0.47660  0.10980  0.32890  1.0000
  O   O50       1.0  0.52340  0.89020  0.32890  1.0000
  O   O51       1.0  0.02340  0.60980  0.17110  1.0000
  O   O52       1.0  0.97660  0.39020  0.17110  1.0000
  O   O53       1.0  0.52340  0.89020  0.67110  1.0000
  O   O54       1.0  0.47660  0.10980  0.67110  1.0000
  O   O55       1.0  0.97660  0.39020  0.82890  1.0000
  O   O56       1.0  0.02340  0.60980  0.82890  1.0000
  O   O57       1.0  0.08710  0.37170  0.65840  1.0000
  O   O58       1.0  0.91290  0.62830  0.65840  1.0000
  O   O59       1.0  0.41290  0.87170  0.84160  1.0000
  O   O60       1.0  0.58710  0.12830  0.84160  1.0000
  O   O61       1.0  0.91290  0.62830  0.34160  1.0000
  O   O62       1.0  0.08710  0.37170  0.34160  1.0000
  O   O63       1.0  0.58710  0.12830  0.15840  1.0000
  O   O64       1.0  0.41290  0.87170  0.15840  1.0000
  O   O65       1.0  0.80440  0.43100  0.65530  1.0000
  O   O66       1.0  0.19560  0.56900  0.65530  1.0000
  O   O67       1.0  0.69560  0.93100  0.84470  1.0000
  O   O68       1.0  0.30440  0.06900  0.84470  1.0000
  O   O69       1.0  0.19560  0.56900  0.34470  1.0000
  O   O70       1.0  0.80440  0.43100  0.34470  1.0000
  O   O71       1.0  0.30440  0.06900  0.15530  1.0000
  O   O72       1.0  0.69560  0.93100  0.15530  1.0000
  C   C1        1.0  0.07560  0.02510  0.50000  1.0000
  C   C2        1.0  0.92440  0.97490  0.50000  1.0000
  C   C3        1.0  0.42440  0.52510  0.00000  1.0000
  C   C4        1.0  0.57560  0.47490  0.00000  1.0000
  C   C5        1.0  0.74250  0.09020  0.34000  1.0000
  C   C6        1.0  0.25750  0.90980  0.34000  1.0000
  C   C7        1.0  0.75750  0.59020  0.16000  1.0000
  C   C8        1.0  0.24250  0.40980  0.16000  1.0000
  C   C9        1.0  0.25750  0.90980  0.66000  1.0000
  C   C10       1.0  0.74250  0.09020  0.66000  1.0000
  C   C11       1.0  0.24250  0.40980  0.84000  1.0000
  C   C12       1.0  0.75750  0.59020  0.84000  1.0000
  C   C13       1.0  0.58910  0.12380  0.36750  1.0000
  C   C14       1.0  0.41090  0.87620  0.36750  1.0000
  C   C15       1.0  0.91090  0.62380  0.13250  1.0000
  C   C16       1.0  0.08910  0.37620  0.13250  1.0000
  C   C17       1.0  0.41090  0.87620  0.63250  1.0000
  C   C18       1.0  0.58910  0.12380  0.63250  1.0000
  C   C19       1.0  0.08910  0.37620  0.86750  1.0000
  C   C20       1.0  0.91090  0.62380  0.86750  1.0000
  C   C21       1.0  0.83470  0.36510  0.61670  1.0000
  C   C22       1.0  0.16530  0.63490  0.61670  1.0000
  C   C23       1.0  0.66530  0.86510  0.88330  1.0000
  C   C24       1.0  0.33470  0.13490  0.88330  1.0000
  C   C25       1.0  0.16530  0.63490  0.38330  1.0000
  C   C26       1.0  0.83470  0.36510  0.38330  1.0000
  C   C27       1.0  0.33470  0.13490  0.11670  1.0000
  C   C28       1.0  0.66530  0.86510  0.11670  1.0000
  C   C29       1.0  0.99800  0.33230  0.61720  1.0000
  C   C30       1.0  0.00200  0.66770  0.61720  1.0000
  C   C31       1.0  0.50200  0.83230  0.88280  1.0000
  C   C32       1.0  0.49800  0.16770  0.88280  1.0000
  C   C33       1.0  0.00200  0.66770  0.38280  1.0000
  C   C34       1.0  0.99800  0.33230  0.38280  1.0000
  C   C35       1.0  0.49800  0.16770  0.11720  1.0000
  C   C36       1.0  0.50200  0.83230  0.11720  1.0000
