data_image0
_chemical_formula_structural       Th4Ca4O72C36
_chemical_formula_sum              "Th4 Ca4 O72 C36"
_cell_length_a       10.9641
_cell_length_b       16.3075
_cell_length_c       15.0633
_cell_angle_alpha    90
_cell_angle_beta     104.075
_cell_angle_gamma    90

_space_group_name_H-M_alt    "P 1"
_space_group_IT_number       1

loop_
  _space_group_symop_operation_xyz
  'x, y, z'

loop_
  _atom_site_type_symbol
  _atom_site_label
  _atom_site_symmetry_multiplicity
  _atom_site_fract_x
  _atom_site_fract_y
  _atom_site_fract_z
  _atom_site_occupancy
  Th  Th1       1.0  0.51549  0.60694  0.32148  1.0000
  Th  Th2       1.0  0.98451  0.10694  0.17852  1.0000
  Th  Th3       1.0  0.48451  0.39306  0.67852  1.0000
  Th  Th4       1.0  0.01549  0.89306  0.82148  1.0000
  Ca  Ca1       1.0  0.45476  0.28718  0.08205  1.0000
  Ca  Ca2       1.0  0.04524  0.78718  0.41795  1.0000
  Ca  Ca3       1.0  0.54524  0.71282  0.91795  1.0000
  Ca  Ca4       1.0  0.95476  0.21282  0.58205  1.0000
  O   O1        1.0  0.38290  0.51830  0.40090  1.0000
  O   O2        1.0  0.11710  0.01830  0.09910  1.0000
  O   O3        1.0  0.61710  0.48170  0.59910  1.0000
  O   O4        1.0  0.88290  0.98170  0.90090  1.0000
  O   O5        1.0  0.37760  0.44130  0.52220  1.0000
  O   O6        1.0  0.12240  0.94130  0.97780  1.0000
  O   O7        1.0  0.62240  0.55870  0.47780  1.0000
  O   O8        1.0  0.87760  0.05870  0.02220  1.0000
  O   O9        1.0  0.57090  0.57160  0.17250  1.0000
  O   O10       1.0  0.92910  0.07160  0.32750  1.0000
  O   O11       1.0  0.42910  0.42840  0.82750  1.0000
  O   O12       1.0  0.07090  0.92840  0.67250  1.0000
  O   O13       1.0  0.52020  0.72160  0.21180  1.0000
  O   O14       1.0  0.97980  0.22160  0.28820  1.0000
  O   O15       1.0  0.47980  0.27840  0.78820  1.0000
  O   O16       1.0  0.02020  0.77840  0.71180  1.0000
  O   O17       1.0  0.74670  0.60010  0.33930  1.0000
  O   O18       1.0  0.75330  0.10010  0.16070  1.0000
  O   O19       1.0  0.25330  0.39990  0.66070  1.0000
  O   O20       1.0  0.24670  0.89990  0.83930  1.0000
  O   O21       1.0  0.64120  0.72790  0.39580  1.0000
  O   O22       1.0  0.85880  0.22790  0.10420  1.0000
  O   O23       1.0  0.35880  0.27210  0.60420  1.0000
  O   O24       1.0  0.14120  0.77210  0.89580  1.0000
  O   O25       1.0  0.58020  0.46160  0.31450  1.0000
  O   O26       1.0  0.91980  0.96160  0.18550  1.0000
  O   O27       1.0  0.41980  0.53840  0.68550  1.0000
  O   O28       1.0  0.08020  0.03840  0.81450  1.0000
  O   O29       1.0  0.36050  0.51570  0.21570  1.0000
  O   O30       1.0  0.13950  0.01570  0.28430  1.0000
  O   O31       1.0  0.63950  0.48430  0.78430  1.0000
  O   O32       1.0  0.86050  0.98430  0.71570  1.0000
  O   O33       1.0  0.42820  0.68320  0.44150  1.0000
  O   O34       1.0  0.07180  0.18320  0.05850  1.0000
  O   O35       1.0  0.57180  0.31680  0.55850  1.0000
  O   O36       1.0  0.92820  0.81680  0.94150  1.0000
  O   O37       1.0  0.30610  0.66750  0.26900  1.0000
  O   O38       1.0  0.19390  0.16750  0.23100  1.0000
  O   O39       1.0  0.69390  0.33250  0.73100  1.0000
  O   O40       1.0  0.80610  0.83250  0.76900  1.0000
  O   O41       1.0  0.57220  0.60700  0.03020  1.0000
  O   O42       1.0  0.92780  0.10700  0.46980  1.0000
  O   O43       1.0  0.42780  0.39300  0.96980  1.0000
  O   O44       1.0  0.07220  0.89300  0.53020  1.0000
  O   O45       1.0  0.54080  0.76510  0.07500  1.0000
  O   O46       1.0  0.95920  0.26510  0.42500  1.0000
  O   O47       1.0  0.45920  0.23490  0.92500  1.0000
  O   O48       1.0  0.04080  0.73490  0.57500  1.0000
  O   O49       1.0  0.93610  0.66040  0.37920  1.0000
  O   O50       1.0  0.56390  0.16040  0.12080  1.0000
  O   O51       1.0  0.06390  0.33960  0.62080  1.0000
  O   O52       1.0  0.43610  0.83960  0.87920  1.0000
  O   O53       1.0  0.82370  0.79600  0.42630  1.0000
  O   O54       1.0  0.67630  0.29600  0.07370  1.0000
  O   O55       1.0  0.17630  0.20400  0.57370  1.0000
  O   O56       1.0  0.32370  0.70400  0.92630  1.0000
  O   O57       1.0  0.56930  0.35360  0.22210  1.0000
  O   O58       1.0  0.93070  0.85360  0.27790  1.0000
  O   O59       1.0  0.43070  0.64640  0.77790  1.0000
  O   O60       1.0  0.06930  0.14640  0.72210  1.0000
  O   O61       1.0  0.33690  0.40140  0.13140  1.0000
  O   O62       1.0  0.16310  0.90140  0.36860  1.0000
  O   O63       1.0  0.66310  0.59860  0.86860  1.0000
  O   O64       1.0  0.83690  0.09860  0.63140  1.0000
  O   O65       1.0  0.25430  0.73210  0.47750  1.0000
  O   O66       1.0  0.24570  0.23210  0.02250  1.0000
  O   O67       1.0  0.74570  0.26790  0.52250  1.0000
  O   O68       1.0  0.75430  0.76790  0.97750  1.0000
  O   O69       1.0  0.13480  0.72460  0.29800  1.0000
  O   O70       1.0  0.36520  0.22460  0.20200  1.0000
  O   O71       1.0  0.86520  0.27540  0.70200  1.0000
  O   O72       1.0  0.63480  0.77540  0.79800  1.0000
  C   C1        1.0  0.43030  0.48830  0.47790  1.0000
  C   C2        1.0  0.06970  0.98830  0.02210  1.0000
  C   C3        1.0  0.56970  0.51170  0.52210  1.0000
  C   C4        1.0  0.93030  0.01170  0.97790  1.0000
  C   C5        1.0  0.56360  0.62190  0.10900  1.0000
  C   C6        1.0  0.93640  0.12190  0.39100  1.0000
  C   C7        1.0  0.43640  0.37810  0.89100  1.0000
  C   C8        1.0  0.06360  0.87810  0.60900  1.0000
  C   C9        1.0  0.53950  0.71150  0.13310  1.0000
  C   C10       1.0  0.96050  0.21150  0.36690  1.0000
  C   C11       1.0  0.46050  0.28850  0.86690  1.0000
  C   C12       1.0  0.03950  0.78850  0.63310  1.0000
  C   C13       1.0  0.81990  0.65890  0.37010  1.0000
  C   C14       1.0  0.68010  0.15890  0.12990  1.0000
  C   C15       1.0  0.18010  0.34110  0.62990  1.0000
  C   C16       1.0  0.31990  0.84110  0.87010  1.0000
  C   C17       1.0  0.75740  0.73540  0.40040  1.0000
  C   C18       1.0  0.74260  0.23540  0.09960  1.0000
  C   C19       1.0  0.24260  0.26460  0.59960  1.0000
  C   C20       1.0  0.25740  0.76460  0.90040  1.0000
  C   C21       1.0  0.52730  0.41730  0.24770  1.0000
  C   C22       1.0  0.97270  0.91730  0.25230  1.0000
  C   C23       1.0  0.47270  0.58270  0.75230  1.0000
  C   C24       1.0  0.02730  0.08270  0.74770  1.0000
  C   C25       1.0  0.39610  0.44690  0.19230  1.0000
  C   C26       1.0  0.10390  0.94690  0.30770  1.0000
  C   C27       1.0  0.60390  0.55310  0.80770  1.0000
  C   C28       1.0  0.89610  0.05310  0.69230  1.0000
  C   C29       1.0  0.31460  0.70610  0.42240  1.0000
  C   C30       1.0  0.18540  0.20610  0.07760  1.0000
  C   C31       1.0  0.68540  0.29390  0.57760  1.0000
  C   C32       1.0  0.81460  0.79390  0.92240  1.0000
  C   C33       1.0  0.24360  0.69910  0.32080  1.0000
  C   C34       1.0  0.25640  0.19910  0.17920  1.0000
  C   C35       1.0  0.75640  0.30090  0.67920  1.0000
  C   C36       1.0  0.74360  0.80090  0.82080  1.0000
