data_image0
_chemical_formula_structural       U8O8C8N8O8C8H8O8C8H8C8O8C8H8O8C8H8O8C8O8C8H8O8C8H8C8H8C16H8C16H8C8H8C16H8C16H8C16H8C8H8C16H8C8H8C24H8C8H8C16H8C8H8C16H8C8H8C16H8C8H8C8
_chemical_formula_sum              "U8 O64 C312 N8 H192"
_cell_length_a       42.132
_cell_length_b       11.9656
_cell_length_c       18.373
_cell_angle_alpha    90
_cell_angle_beta     113.369
_cell_angle_gamma    90

_space_group_name_H-M_alt    "P 1"
_space_group_IT_number       1

loop_
  _space_group_symop_operation_xyz
  'x, y, z'

loop_
  _atom_site_type_symbol
  _atom_site_label
  _atom_site_symmetry_multiplicity
  _atom_site_fract_x
  _atom_site_fract_y
  _atom_site_fract_z
  _atom_site_occupancy
  U   U1        1.0  0.93202  0.72959  0.88228  1.0000
  U   U2        1.0  0.06798  0.72959  0.61772  1.0000
  U   U3        1.0  0.43202  0.22959  0.88228  1.0000
  U   U4        1.0  0.56798  0.22959  0.61772  1.0000
  U   U5        1.0  0.06798  0.27041  0.11772  1.0000
  U   U6        1.0  0.93202  0.27041  0.38228  1.0000
  U   U7        1.0  0.56798  0.77041  0.11772  1.0000
  U   U8        1.0  0.43202  0.77041  0.38228  1.0000
  O   O1        1.0  0.92730  0.64280  0.99760  1.0000
  O   O2        1.0  0.07270  0.64280  0.50240  1.0000
  O   O3        1.0  0.42730  0.14280  0.99760  1.0000
  O   O4        1.0  0.57270  0.14280  0.50240  1.0000
  O   O5        1.0  0.07270  0.35720  0.00240  1.0000
  O   O6        1.0  0.92730  0.35720  0.49760  1.0000
  O   O7        1.0  0.57270  0.85720  0.00240  1.0000
  O   O8        1.0  0.42730  0.85720  0.49760  1.0000
  C   C1        1.0  0.77920  0.30020  0.19040  1.0000
  C   C2        1.0  0.22080  0.30020  0.30960  1.0000
  C   C3        1.0  0.27920  0.80020  0.19040  1.0000
  C   C4        1.0  0.72080  0.80020  0.30960  1.0000
  C   C5        1.0  0.22080  0.69980  0.80960  1.0000
  C   C6        1.0  0.77920  0.69980  0.69040  1.0000
  C   C7        1.0  0.72080  0.19980  0.80960  1.0000
  C   C8        1.0  0.27920  0.19980  0.69040  1.0000
  N   N1        1.0  0.76180  0.23270  0.22640  1.0000
  N   N2        1.0  0.23820  0.23270  0.27360  1.0000
  N   N3        1.0  0.26180  0.73270  0.22640  1.0000
  N   N4        1.0  0.73820  0.73270  0.27360  1.0000
  N   N5        1.0  0.23820  0.76730  0.77360  1.0000
  N   N6        1.0  0.76180  0.76730  0.72640  1.0000
  N   N7        1.0  0.73820  0.26730  0.77360  1.0000
  N   N8        1.0  0.26180  0.26730  0.72640  1.0000
  O   O9        1.0  0.87940  0.68510  0.90190  1.0000
  O   O10       1.0  0.12060  0.68510  0.59810  1.0000
  O   O11       1.0  0.37940  0.18510  0.90190  1.0000
  O   O12       1.0  0.62060  0.18510  0.59810  1.0000
  O   O13       1.0  0.12060  0.31490  0.09810  1.0000
  O   O14       1.0  0.87940  0.31490  0.40190  1.0000
  O   O15       1.0  0.62060  0.81490  0.09810  1.0000
  O   O16       1.0  0.37940  0.81490  0.40190  1.0000
  C   C9        1.0  0.80890  0.35800  0.23740  1.0000
  C   C10       1.0  0.19110  0.35800  0.26260  1.0000
  C   C11       1.0  0.30890  0.85800  0.23740  1.0000
  C   C12       1.0  0.69110  0.85800  0.26260  1.0000
  C   C13       1.0  0.19110  0.64200  0.76260  1.0000
  C   C14       1.0  0.80890  0.64200  0.73740  1.0000
  C   C15       1.0  0.69110  0.14200  0.76260  1.0000
  C   C16       1.0  0.30890  0.14200  0.73740  1.0000
  H   H1        1.0  0.81690  0.35510  0.29230  1.0000
  H   H2        1.0  0.18310  0.35510  0.20770  1.0000
  H   H3        1.0  0.31690  0.85510  0.29230  1.0000
  H   H4        1.0  0.68310  0.85510  0.20770  1.0000
  H   H5        1.0  0.18310  0.64490  0.70770  1.0000
  H   H6        1.0  0.81690  0.64490  0.79230  1.0000
  H   H7        1.0  0.68310  0.14490  0.70770  1.0000
  H   H8        1.0  0.31690  0.14490  0.79230  1.0000
  O   O17       1.0  0.92870  0.60030  0.83380  1.0000
  O   O18       1.0  0.07130  0.60030  0.66620  1.0000
  O   O19       1.0  0.42870  0.10030  0.83380  1.0000
  O   O20       1.0  0.57130  0.10030  0.66620  1.0000
  O   O21       1.0  0.07130  0.39970  0.16620  1.0000
  O   O22       1.0  0.92870  0.39970  0.33380  1.0000
  O   O23       1.0  0.57130  0.89970  0.16620  1.0000
  O   O24       1.0  0.42870  0.89970  0.33380  1.0000
  C   C17       1.0  0.82660  0.42030  0.20160  1.0000
  C   C18       1.0  0.17340  0.42030  0.29840  1.0000
  C   C19       1.0  0.32660  0.92030  0.20160  1.0000
  C   C20       1.0  0.67340  0.92030  0.29840  1.0000
  C   C21       1.0  0.17340  0.57970  0.79840  1.0000
  C   C22       1.0  0.82660  0.57970  0.70160  1.0000
  C   C23       1.0  0.67340  0.07970  0.79840  1.0000
  C   C24       1.0  0.32660  0.07970  0.70160  1.0000
  H   H9        1.0  0.84690  0.45590  0.23410  1.0000
  H   H10       1.0  0.15310  0.45590  0.26590  1.0000
  H   H11       1.0  0.34690  0.95590  0.23410  1.0000
  H   H12       1.0  0.65310  0.95590  0.26590  1.0000
  H   H13       1.0  0.15310  0.54410  0.76590  1.0000
  H   H14       1.0  0.84690  0.54410  0.73410  1.0000
  H   H15       1.0  0.65310  0.04410  0.76590  1.0000
  H   H16       1.0  0.34690  0.04410  0.73410  1.0000
  C   C25       1.0  0.81570  0.43240  0.12040  1.0000
  C   C26       1.0  0.18430  0.43240  0.37960  1.0000
  C   C27       1.0  0.31570  0.93240  0.12040  1.0000
  C   C28       1.0  0.68430  0.93240  0.37960  1.0000
  C   C29       1.0  0.18430  0.56760  0.87960  1.0000
  C   C30       1.0  0.81570  0.56760  0.62040  1.0000
  C   C31       1.0  0.68430  0.06760  0.87960  1.0000
  C   C32       1.0  0.31570  0.06760  0.62040  1.0000
  O   O25       1.0  0.93450  0.85060  0.92680  1.0000
  O   O26       1.0  0.06550  0.85060  0.57320  1.0000
  O   O27       1.0  0.43450  0.35060  0.92680  1.0000
  O   O28       1.0  0.56550  0.35060  0.57320  1.0000
  O   O29       1.0  0.06550  0.14940  0.07320  1.0000
  O   O30       1.0  0.93450  0.14940  0.42680  1.0000
  O   O31       1.0  0.56550  0.64940  0.07320  1.0000
  O   O32       1.0  0.43450  0.64940  0.42680  1.0000
  C   C33       1.0  0.78480  0.37940  0.07530  1.0000
  C   C34       1.0  0.21520  0.37940  0.42470  1.0000
  C   C35       1.0  0.28480  0.87940  0.07530  1.0000
  C   C36       1.0  0.71520  0.87940  0.42470  1.0000
  C   C37       1.0  0.21520  0.62060  0.92470  1.0000
  C   C38       1.0  0.78480  0.62060  0.57530  1.0000
  C   C39       1.0  0.71520  0.12060  0.92470  1.0000
  C   C40       1.0  0.28480  0.12060  0.57530  1.0000
  H   H17       1.0  0.77510  0.38990  0.02060  1.0000
  H   H18       1.0  0.22490  0.38990  0.47940  1.0000
  H   H19       1.0  0.27510  0.88990  0.02060  1.0000
  H   H20       1.0  0.72490  0.88990  0.47940  1.0000
  H   H21       1.0  0.22490  0.61010  0.97940  1.0000
  H   H22       1.0  0.77510  0.61010  0.52060  1.0000
  H   H23       1.0  0.72490  0.11010  0.97940  1.0000
  H   H24       1.0  0.27510  0.11010  0.52060  1.0000
  O   O33       1.0  0.49060  0.25950  0.88210  1.0000
  O   O34       1.0  0.50940  0.25950  0.61790  1.0000
  O   O35       1.0  0.99060  0.75950  0.88210  1.0000
  O   O36       1.0  0.00940  0.75950  0.61790  1.0000
  O   O37       1.0  0.50940  0.74050  0.11790  1.0000
  O   O38       1.0  0.49060  0.74050  0.38210  1.0000
  O   O39       1.0  0.00940  0.24050  0.11790  1.0000
  O   O40       1.0  0.99060  0.24050  0.38210  1.0000
  C   C41       1.0  0.87120  0.47700  0.11180  1.0000
  C   C42       1.0  0.12880  0.47700  0.38820  1.0000
  C   C43       1.0  0.37120  0.97700  0.11180  1.0000
  C   C44       1.0  0.62880  0.97700  0.38820  1.0000
  C   C45       1.0  0.12880  0.52300  0.88820  1.0000
  C   C46       1.0  0.87120  0.52300  0.61180  1.0000
  C   C47       1.0  0.62880  0.02300  0.88820  1.0000
  C   C48       1.0  0.37120  0.02300  0.61180  1.0000
  H   H25       1.0  0.88180  0.42930  0.15480  1.0000
  H   H26       1.0  0.11820  0.42930  0.34520  1.0000
  H   H27       1.0  0.38180  0.92930  0.15480  1.0000
  H   H28       1.0  0.61820  0.92930  0.34520  1.0000
  H   H29       1.0  0.11820  0.57070  0.84520  1.0000
  H   H30       1.0  0.88180  0.57070  0.65480  1.0000
  H   H31       1.0  0.61820  0.07070  0.84520  1.0000
  H   H32       1.0  0.38180  0.07070  0.65480  1.0000
  O   O41       1.0  0.92920  0.84200  0.76430  1.0000
  O   O42       1.0  0.07080  0.84200  0.73570  1.0000
  O   O43       1.0  0.42920  0.34200  0.76430  1.0000
  O   O44       1.0  0.57080  0.34200  0.73570  1.0000
  O   O45       1.0  0.07080  0.15800  0.23570  1.0000
  O   O46       1.0  0.92920  0.15800  0.26430  1.0000
  O   O47       1.0  0.57080  0.65800  0.23570  1.0000
  O   O48       1.0  0.42920  0.65800  0.26430  1.0000
  C   C49       1.0  0.83600  0.49440  0.08540  1.0000
  C   C50       1.0  0.16400  0.49440  0.41460  1.0000
  C   C51       1.0  0.33600  0.99440  0.08540  1.0000
  C   C52       1.0  0.66400  0.99440  0.41460  1.0000
  C   C53       1.0  0.16400  0.50560  0.91460  1.0000
  C   C54       1.0  0.83600  0.50560  0.58540  1.0000
  C   C55       1.0  0.66400  0.00560  0.91460  1.0000
  C   C56       1.0  0.33600  0.00560  0.58540  1.0000
  O   O49       1.0  0.88080  0.79850  0.77310  1.0000
  O   O50       1.0  0.11920  0.79850  0.72690  1.0000
  O   O51       1.0  0.38080  0.29850  0.77310  1.0000
  O   O52       1.0  0.61920  0.29850  0.72690  1.0000
  O   O53       1.0  0.11920  0.20150  0.22690  1.0000
  O   O54       1.0  0.88080  0.20150  0.27310  1.0000
  O   O55       1.0  0.61920  0.70150  0.22690  1.0000
  O   O56       1.0  0.38080  0.70150  0.27310  1.0000
  C   C57       1.0  0.76790  0.31100  0.10990  1.0000
  C   C58       1.0  0.23210  0.31100  0.39010  1.0000
  C   C59       1.0  0.26790  0.81100  0.10990  1.0000
  C   C60       1.0  0.73210  0.81100  0.39010  1.0000
  C   C61       1.0  0.23210  0.68900  0.89010  1.0000
  C   C62       1.0  0.76790  0.68900  0.60990  1.0000
  C   C63       1.0  0.73210  0.18900  0.89010  1.0000
  C   C64       1.0  0.26790  0.18900  0.60990  1.0000
  H   H33       1.0  0.74840  0.27150  0.07750  1.0000
  H   H34       1.0  0.25160  0.27150  0.42250  1.0000
  H   H35       1.0  0.24840  0.77150  0.07750  1.0000
  H   H36       1.0  0.75160  0.77150  0.42250  1.0000
  H   H37       1.0  0.25160  0.72850  0.92250  1.0000
  H   H38       1.0  0.74840  0.72850  0.57750  1.0000
  H   H39       1.0  0.75160  0.22850  0.92250  1.0000
  H   H40       1.0  0.24840  0.22850  0.57750  1.0000
  O   O57       1.0  0.48740  0.16310  0.98100  1.0000
  O   O58       1.0  0.51260  0.16310  0.51900  1.0000
  O   O59       1.0  0.98740  0.66310  0.98100  1.0000
  O   O60       1.0  0.01260  0.66310  0.51900  1.0000
  O   O61       1.0  0.51260  0.83690  0.01900  1.0000
  O   O62       1.0  0.48740  0.83690  0.48100  1.0000
  O   O63       1.0  0.01260  0.33690  0.01900  1.0000
  O   O64       1.0  0.98740  0.33690  0.48100  1.0000
  C   C65       1.0  0.89090  0.52600  0.07680  1.0000
  C   C66       1.0  0.10910  0.52600  0.42320  1.0000
  C   C67       1.0  0.39090  0.02600  0.07680  1.0000
  C   C68       1.0  0.60910  0.02600  0.42320  1.0000
  C   C69       1.0  0.10910  0.47400  0.92320  1.0000
  C   C70       1.0  0.89090  0.47400  0.57680  1.0000
  C   C71       1.0  0.60910  0.97400  0.92320  1.0000
  C   C72       1.0  0.39090  0.97400  0.57680  1.0000
  H   H41       1.0  0.91450  0.51250  0.09570  1.0000
  H   H42       1.0  0.08550  0.51250  0.40430  1.0000
  H   H43       1.0  0.41450  0.01250  0.09570  1.0000
  H   H44       1.0  0.58550  0.01250  0.40430  1.0000
  H   H45       1.0  0.08550  0.48750  0.90430  1.0000
  H   H46       1.0  0.91450  0.48750  0.59570  1.0000
  H   H47       1.0  0.58550  0.98750  0.90430  1.0000
  H   H48       1.0  0.41450  0.98750  0.59570  1.0000
  C   C73       1.0  0.84000  0.61730  0.98750  1.0000
  C   C74       1.0  0.16000  0.61730  0.51250  1.0000
  C   C75       1.0  0.34000  0.11730  0.98750  1.0000
  C   C76       1.0  0.66000  0.11730  0.51250  1.0000
  C   C77       1.0  0.16000  0.38270  0.01250  1.0000
  C   C78       1.0  0.84000  0.38270  0.48750  1.0000
  C   C79       1.0  0.66000  0.88270  0.01250  1.0000
  C   C80       1.0  0.34000  0.88270  0.48750  1.0000
  H   H49       1.0  0.82950  0.66710  0.94590  1.0000
  H   H50       1.0  0.17050  0.66710  0.55410  1.0000
  H   H51       1.0  0.32950  0.16710  0.94590  1.0000
  H   H52       1.0  0.67050  0.16710  0.55410  1.0000
  H   H53       1.0  0.17050  0.33290  0.05410  1.0000
  H   H54       1.0  0.82950  0.33290  0.44590  1.0000
  H   H55       1.0  0.67050  0.83290  0.05410  1.0000
  H   H56       1.0  0.32950  0.83290  0.44590  1.0000
  C   C81       1.0  0.87500  0.59750  0.01260  1.0000
  C   C82       1.0  0.12500  0.59750  0.48740  1.0000
  C   C83       1.0  0.37500  0.09750  0.01260  1.0000
  C   C84       1.0  0.62500  0.09750  0.48740  1.0000
  C   C85       1.0  0.12500  0.40250  0.98740  1.0000
  C   C86       1.0  0.87500  0.40250  0.51260  1.0000
  C   C87       1.0  0.62500  0.90250  0.98740  1.0000
  C   C88       1.0  0.37500  0.90250  0.51260  1.0000
  C   C89       1.0  0.82010  0.56520  0.02230  1.0000
  C   C90       1.0  0.17990  0.56520  0.47770  1.0000
  C   C91       1.0  0.32010  0.06520  0.02230  1.0000
  C   C92       1.0  0.67990  0.06520  0.47770  1.0000
  C   C93       1.0  0.17990  0.43480  0.97770  1.0000
  C   C94       1.0  0.82010  0.43480  0.52230  1.0000
  C   C95       1.0  0.67990  0.93480  0.97770  1.0000
  C   C96       1.0  0.32010  0.93480  0.52230  1.0000
  H   H57       1.0  0.79640  0.57790  0.00330  1.0000
  H   H58       1.0  0.20360  0.57790  0.49670  1.0000
  H   H59       1.0  0.29640  0.07790  0.00330  1.0000
  H   H60       1.0  0.70360  0.07790  0.49670  1.0000
  H   H61       1.0  0.20360  0.42210  0.99670  1.0000
  H   H62       1.0  0.79640  0.42210  0.50330  1.0000
  H   H63       1.0  0.70360  0.92210  0.99670  1.0000
  H   H64       1.0  0.29640  0.92210  0.50330  1.0000
  C   C97       1.0  0.89520  0.64500  0.97050  1.0000
  C   C98       1.0  0.10480  0.64500  0.52950  1.0000
  C   C99       1.0  0.39520  0.14500  0.97050  1.0000
  C   C100      1.0  0.60480  0.14500  0.52950  1.0000
  C   C101      1.0  0.10480  0.35500  0.02950  1.0000
  C   C102      1.0  0.89520  0.35500  0.47050  1.0000
  C   C103      1.0  0.60480  0.85500  0.02950  1.0000
  C   C104      1.0  0.39520  0.85500  0.47050  1.0000
  C   C105      1.0  0.70390  0.31250  0.15410  1.0000
  C   C106      1.0  0.29610  0.31250  0.34590  1.0000
  C   C107      1.0  0.20390  0.81250  0.15410  1.0000
  C   C108      1.0  0.79610  0.81250  0.34590  1.0000
  C   C109      1.0  0.29610  0.68750  0.84590  1.0000
  C   C110      1.0  0.70390  0.68750  0.65410  1.0000
  C   C111      1.0  0.79610  0.18750  0.84590  1.0000
  C   C112      1.0  0.20390  0.18750  0.65410  1.0000
  H   H65       1.0  0.71380  0.38300  0.15910  1.0000
  H   H66       1.0  0.28620  0.38300  0.34090  1.0000
  H   H67       1.0  0.21380  0.88300  0.15910  1.0000
  H   H68       1.0  0.78620  0.88300  0.34090  1.0000
  H   H69       1.0  0.28620  0.61700  0.84090  1.0000
  H   H70       1.0  0.71380  0.61700  0.65910  1.0000
  H   H71       1.0  0.78620  0.11700  0.84090  1.0000
  H   H72       1.0  0.21380  0.11700  0.65910  1.0000
  C   C113      1.0  0.70930  0.11920  0.17960  1.0000
  C   C114      1.0  0.29070  0.11920  0.32040  1.0000
  C   C115      1.0  0.20930  0.61920  0.17960  1.0000
  C   C116      1.0  0.79070  0.61920  0.32040  1.0000
  C   C117      1.0  0.29070  0.88080  0.82040  1.0000
  C   C118      1.0  0.70930  0.88080  0.67960  1.0000
  C   C119      1.0  0.79070  0.38080  0.82040  1.0000
  C   C120      1.0  0.20930  0.38080  0.67960  1.0000
  H   H73       1.0  0.72300  0.05700  0.20150  1.0000
  H   H74       1.0  0.27700  0.05700  0.29850  1.0000
  H   H75       1.0  0.22300  0.55700  0.20150  1.0000
  H   H76       1.0  0.77700  0.55700  0.29850  1.0000
  H   H77       1.0  0.27700  0.94300  0.79850  1.0000
  H   H78       1.0  0.72300  0.94300  0.70150  1.0000
  H   H79       1.0  0.77700  0.44300  0.79850  1.0000
  H   H80       1.0  0.22300  0.44300  0.70150  1.0000
  C   C121      1.0  0.72430  0.22400  0.18650  1.0000
  C   C122      1.0  0.27570  0.22400  0.31350  1.0000
  C   C123      1.0  0.22430  0.72400  0.18650  1.0000
  C   C124      1.0  0.77570  0.72400  0.31350  1.0000
  C   C125      1.0  0.27570  0.77600  0.81350  1.0000
  C   C126      1.0  0.72430  0.77600  0.68650  1.0000
  C   C127      1.0  0.77570  0.27600  0.81350  1.0000
  C   C128      1.0  0.22430  0.27600  0.68650  1.0000
  C   C129      1.0  0.67410  0.10770  0.14040  1.0000
  C   C130      1.0  0.32590  0.10770  0.35960  1.0000
  C   C131      1.0  0.17410  0.60770  0.14040  1.0000
  C   C132      1.0  0.82590  0.60770  0.35960  1.0000
  C   C133      1.0  0.32590  0.89230  0.85960  1.0000
  C   C134      1.0  0.67410  0.89230  0.64040  1.0000
  C   C135      1.0  0.82590  0.39230  0.85960  1.0000
  C   C136      1.0  0.17410  0.39230  0.64040  1.0000
  H   H81       1.0  0.66420  0.03750  0.13700  1.0000
  H   H82       1.0  0.33580  0.03750  0.36300  1.0000
  H   H83       1.0  0.16420  0.53750  0.13700  1.0000
  H   H84       1.0  0.83580  0.53750  0.36300  1.0000
  H   H85       1.0  0.33580  0.96250  0.86300  1.0000
  H   H86       1.0  0.66420  0.96250  0.63700  1.0000
  H   H87       1.0  0.83580  0.46250  0.86300  1.0000
  H   H88       1.0  0.16420  0.46250  0.63700  1.0000
  C   C137      1.0  0.65320  0.19890  0.10570  1.0000
  C   C138      1.0  0.34680  0.19890  0.39430  1.0000
  C   C139      1.0  0.15320  0.69890  0.10570  1.0000
  C   C140      1.0  0.84680  0.69890  0.39430  1.0000
  C   C141      1.0  0.34680  0.80110  0.89430  1.0000
  C   C142      1.0  0.65320  0.80110  0.60570  1.0000
  C   C143      1.0  0.84680  0.30110  0.89430  1.0000
  C   C144      1.0  0.15320  0.30110  0.60570  1.0000
  C   C145      1.0  0.67000  0.30200  0.11520  1.0000
  C   C146      1.0  0.33000  0.30200  0.38480  1.0000
  C   C147      1.0  0.17000  0.80200  0.11520  1.0000
  C   C148      1.0  0.83000  0.80200  0.38480  1.0000
  C   C149      1.0  0.33000  0.69800  0.88480  1.0000
  C   C150      1.0  0.67000  0.69800  0.61520  1.0000
  C   C151      1.0  0.83000  0.19800  0.88480  1.0000
  C   C152      1.0  0.17000  0.19800  0.61520  1.0000
  H   H89       1.0  0.65690  0.36500  0.09330  1.0000
  H   H90       1.0  0.34310  0.36500  0.40670  1.0000
  H   H91       1.0  0.15690  0.86500  0.09330  1.0000
  H   H92       1.0  0.84310  0.86500  0.40670  1.0000
  H   H93       1.0  0.34310  0.63500  0.90670  1.0000
  H   H94       1.0  0.65690  0.63500  0.59330  1.0000
  H   H95       1.0  0.84310  0.13500  0.90670  1.0000
  H   H96       1.0  0.15690  0.13500  0.59330  1.0000
  C   C153      1.0  0.61530  0.19100  0.06180  1.0000
  C   C154      1.0  0.38470  0.19100  0.43820  1.0000
  C   C155      1.0  0.11530  0.69100  0.06180  1.0000
  C   C156      1.0  0.88470  0.69100  0.43820  1.0000
  C   C157      1.0  0.38470  0.80900  0.93820  1.0000
  C   C158      1.0  0.61530  0.80900  0.56180  1.0000
  C   C159      1.0  0.88470  0.30900  0.93820  1.0000
  C   C160      1.0  0.11530  0.30900  0.56180  1.0000
  C   C161      1.0  0.59530  0.12600  0.08640  1.0000
  C   C162      1.0  0.40470  0.12600  0.41360  1.0000
  C   C163      1.0  0.09530  0.62600  0.08640  1.0000
  C   C164      1.0  0.90470  0.62600  0.41360  1.0000
  C   C165      1.0  0.40470  0.87400  0.91360  1.0000
  C   C166      1.0  0.59530  0.87400  0.58640  1.0000
  C   C167      1.0  0.90470  0.37400  0.91360  1.0000
  C   C168      1.0  0.09530  0.37400  0.58640  1.0000
  H   H97       1.0  0.60570  0.07900  0.12970  1.0000
  H   H98       1.0  0.39430  0.07900  0.37030  1.0000
  H   H99       1.0  0.10570  0.57900  0.12970  1.0000
  H   H100      1.0  0.89430  0.57900  0.37030  1.0000
  H   H101      1.0  0.39430  0.92100  0.87030  1.0000
  H   H102      1.0  0.60570  0.92100  0.62970  1.0000
  H   H103      1.0  0.89430  0.42100  0.87030  1.0000
  H   H104      1.0  0.10570  0.42100  0.62970  1.0000
  C   C169      1.0  0.55890  0.12760  0.04790  1.0000
  C   C170      1.0  0.44110  0.12760  0.45210  1.0000
  C   C171      1.0  0.05890  0.62760  0.04790  1.0000
  C   C172      1.0  0.94110  0.62760  0.45210  1.0000
  C   C173      1.0  0.44110  0.87240  0.95210  1.0000
  C   C174      1.0  0.55890  0.87240  0.54790  1.0000
  C   C175      1.0  0.94110  0.37240  0.95210  1.0000
  C   C176      1.0  0.05890  0.37240  0.54790  1.0000
  H   H105      1.0  0.54540  0.08310  0.06580  1.0000
  H   H106      1.0  0.45460  0.08310  0.43420  1.0000
  H   H107      1.0  0.04540  0.58310  0.06580  1.0000
  H   H108      1.0  0.95460  0.58310  0.43420  1.0000
  H   H109      1.0  0.45460  0.91690  0.93420  1.0000
  H   H110      1.0  0.54540  0.91690  0.56580  1.0000
  H   H111      1.0  0.95460  0.41690  0.93420  1.0000
  H   H112      1.0  0.04540  0.41690  0.56580  1.0000
  C   C177      1.0  0.54400  0.19600  0.98390  1.0000
  C   C178      1.0  0.45600  0.19600  0.51610  1.0000
  C   C179      1.0  0.04400  0.69600  0.98390  1.0000
  C   C180      1.0  0.95600  0.69600  0.51610  1.0000
  C   C181      1.0  0.45600  0.80400  0.01610  1.0000
  C   C182      1.0  0.54400  0.80400  0.48390  1.0000
  C   C183      1.0  0.95600  0.30400  0.01610  1.0000
  C   C184      1.0  0.04400  0.30400  0.48390  1.0000
  C   C185      1.0  0.56350  0.25500  0.95510  1.0000
  C   C186      1.0  0.43650  0.25500  0.54490  1.0000
  C   C187      1.0  0.06350  0.75500  0.95510  1.0000
  C   C188      1.0  0.93650  0.75500  0.54490  1.0000
  C   C189      1.0  0.43650  0.74500  0.04490  1.0000
  C   C190      1.0  0.56350  0.74500  0.45510  1.0000
  C   C191      1.0  0.93650  0.24500  0.04490  1.0000
  C   C192      1.0  0.06350  0.24500  0.45510  1.0000
  H   H113      1.0  0.55300  0.29680  0.90890  1.0000
  H   H114      1.0  0.44700  0.29680  0.59110  1.0000
  H   H115      1.0  0.05300  0.79680  0.90890  1.0000
  H   H116      1.0  0.94700  0.79680  0.59110  1.0000
  H   H117      1.0  0.44700  0.70320  0.09110  1.0000
  H   H118      1.0  0.55300  0.70320  0.40890  1.0000
  H   H119      1.0  0.94700  0.20320  0.09110  1.0000
  H   H120      1.0  0.05300  0.20320  0.40890  1.0000
  C   C193      1.0  0.59990  0.25600  0.99470  1.0000
  C   C194      1.0  0.40010  0.25600  0.50530  1.0000
  C   C195      1.0  0.09990  0.75600  0.99470  1.0000
  C   C196      1.0  0.90010  0.75600  0.50530  1.0000
  C   C197      1.0  0.40010  0.74400  0.00530  1.0000
  C   C198      1.0  0.59990  0.74400  0.49470  1.0000
  C   C199      1.0  0.90010  0.24400  0.00530  1.0000
  C   C200      1.0  0.09990  0.24400  0.49470  1.0000
  H   H121      1.0  0.61330  0.29900  0.97580  1.0000
  H   H122      1.0  0.38670  0.29900  0.52420  1.0000
  H   H123      1.0  0.11330  0.79900  0.97580  1.0000
  H   H124      1.0  0.88670  0.79900  0.52420  1.0000
  H   H125      1.0  0.38670  0.70100  0.02420  1.0000
  H   H126      1.0  0.61330  0.70100  0.47580  1.0000
  H   H127      1.0  0.88670  0.20100  0.02420  1.0000
  H   H128      1.0  0.11330  0.20100  0.47580  1.0000
  C   C201      1.0  0.50490  0.20300  0.94430  1.0000
  C   C202      1.0  0.49510  0.20300  0.55570  1.0000
  C   C203      1.0  0.00490  0.70300  0.94430  1.0000
  C   C204      1.0  0.99510  0.70300  0.55570  1.0000
  C   C205      1.0  0.49510  0.79700  0.05570  1.0000
  C   C206      1.0  0.50490  0.79700  0.44430  1.0000
  C   C207      1.0  0.99510  0.29700  0.05570  1.0000
  C   C208      1.0  0.00490  0.29700  0.44430  1.0000
  C   C209      1.0  0.78000  0.17750  0.29960  1.0000
  C   C210      1.0  0.22000  0.17750  0.20040  1.0000
  C   C211      1.0  0.28000  0.67750  0.29960  1.0000
  C   C212      1.0  0.72000  0.67750  0.20040  1.0000
  C   C213      1.0  0.22000  0.82250  0.70040  1.0000
  C   C214      1.0  0.78000  0.82250  0.79960  1.0000
  C   C215      1.0  0.72000  0.32250  0.70040  1.0000
  C   C216      1.0  0.28000  0.32250  0.79960  1.0000
  C   C217      1.0  0.81300  0.13990  0.31680  1.0000
  C   C218      1.0  0.18700  0.13990  0.18320  1.0000
  C   C219      1.0  0.31300  0.63990  0.31680  1.0000
  C   C220      1.0  0.68700  0.63990  0.18320  1.0000
  C   C221      1.0  0.18700  0.86010  0.68320  1.0000
  C   C222      1.0  0.81300  0.86010  0.81680  1.0000
  C   C223      1.0  0.68700  0.36010  0.68320  1.0000
  C   C224      1.0  0.31300  0.36010  0.81680  1.0000
  H   H129      1.0  0.82280  0.14770  0.27970  1.0000
  H   H130      1.0  0.17720  0.14770  0.22030  1.0000
  H   H131      1.0  0.32280  0.64770  0.27970  1.0000
  H   H132      1.0  0.67720  0.64770  0.22030  1.0000
  H   H133      1.0  0.17720  0.85230  0.72030  1.0000
  H   H134      1.0  0.82280  0.85230  0.77970  1.0000
  H   H135      1.0  0.67720  0.35230  0.72030  1.0000
  H   H136      1.0  0.32280  0.35230  0.77970  1.0000
  C   C225      1.0  0.83160  0.09090  0.38870  1.0000
  C   C226      1.0  0.16840  0.09090  0.11130  1.0000
  C   C227      1.0  0.33160  0.59090  0.38870  1.0000
  C   C228      1.0  0.66840  0.59090  0.11130  1.0000
  C   C229      1.0  0.16840  0.90910  0.61130  1.0000
  C   C230      1.0  0.83160  0.90910  0.88870  1.0000
  C   C231      1.0  0.66840  0.40910  0.61130  1.0000
  C   C232      1.0  0.33160  0.40910  0.88870  1.0000
  H   H137      1.0  0.85400  0.06670  0.39990  1.0000
  H   H138      1.0  0.14600  0.06670  0.10010  1.0000
  H   H139      1.0  0.35400  0.56670  0.39990  1.0000
  H   H140      1.0  0.64600  0.56670  0.10010  1.0000
  H   H141      1.0  0.14600  0.93330  0.60010  1.0000
  H   H142      1.0  0.85400  0.93330  0.89990  1.0000
  H   H143      1.0  0.64600  0.43330  0.60010  1.0000
  H   H144      1.0  0.35400  0.43330  0.89990  1.0000
  C   C233      1.0  0.81790  0.07660  0.44460  1.0000
  C   C234      1.0  0.18210  0.07660  0.05540  1.0000
  C   C235      1.0  0.31790  0.57660  0.44460  1.0000
  C   C236      1.0  0.68210  0.57660  0.05540  1.0000
  C   C237      1.0  0.18210  0.92340  0.55540  1.0000
  C   C238      1.0  0.81790  0.92340  0.94460  1.0000
  C   C239      1.0  0.68210  0.42340  0.55540  1.0000
  C   C240      1.0  0.31790  0.42340  0.94460  1.0000
  C   C241      1.0  0.78460  0.11140  0.42470  1.0000
  C   C242      1.0  0.21540  0.11140  0.07530  1.0000
  C   C243      1.0  0.28460  0.61140  0.42470  1.0000
  C   C244      1.0  0.71540  0.61140  0.07530  1.0000
  C   C245      1.0  0.21540  0.88860  0.57530  1.0000
  C   C246      1.0  0.78460  0.88860  0.92470  1.0000
  C   C247      1.0  0.71540  0.38860  0.57530  1.0000
  C   C248      1.0  0.28460  0.38860  0.92470  1.0000
  H   H145      1.0  0.77440  0.10030  0.46070  1.0000
  H   H146      1.0  0.22560  0.10030  0.03930  1.0000
  H   H147      1.0  0.27440  0.60030  0.46070  1.0000
  H   H148      1.0  0.72560  0.60030  0.03930  1.0000
  H   H149      1.0  0.22560  0.89970  0.53930  1.0000
  H   H150      1.0  0.77440  0.89970  0.96070  1.0000
  H   H151      1.0  0.72560  0.39970  0.53930  1.0000
  H   H152      1.0  0.27440  0.39970  0.96070  1.0000
  C   C249      1.0  0.76570  0.16180  0.35380  1.0000
  C   C250      1.0  0.23430  0.16180  0.14620  1.0000
  C   C251      1.0  0.26570  0.66180  0.35380  1.0000
  C   C252      1.0  0.73430  0.66180  0.14620  1.0000
  C   C253      1.0  0.23430  0.83820  0.64620  1.0000
  C   C254      1.0  0.76570  0.83820  0.85380  1.0000
  C   C255      1.0  0.73430  0.33820  0.64620  1.0000
  C   C256      1.0  0.26570  0.33820  0.85380  1.0000
  H   H153      1.0  0.74320  0.18540  0.34260  1.0000
  H   H154      1.0  0.25680  0.18540  0.15740  1.0000
  H   H155      1.0  0.24320  0.68540  0.34260  1.0000
  H   H156      1.0  0.75680  0.68540  0.15740  1.0000
  H   H157      1.0  0.25680  0.81460  0.65740  1.0000
  H   H158      1.0  0.74320  0.81460  0.84260  1.0000
  H   H159      1.0  0.75680  0.31460  0.65740  1.0000
  H   H160      1.0  0.24320  0.31460  0.84260  1.0000
  C   C257      1.0  0.83840  0.01910  0.52200  1.0000
  C   C258      1.0  0.16160  0.01910  0.97800  1.0000
  C   C259      1.0  0.33840  0.51910  0.52200  1.0000
  C   C260      1.0  0.66160  0.51910  0.97800  1.0000
  C   C261      1.0  0.16160  0.98090  0.47800  1.0000
  C   C262      1.0  0.83840  0.98090  0.02200  1.0000
  C   C263      1.0  0.66160  0.48090  0.47800  1.0000
  C   C264      1.0  0.33840  0.48090  0.02200  1.0000
  C   C265      1.0  0.82360  0.94390  0.55610  1.0000
  C   C266      1.0  0.17640  0.94390  0.94390  1.0000
  C   C267      1.0  0.32360  0.44390  0.55610  1.0000
  C   C268      1.0  0.67640  0.44390  0.94390  1.0000
  C   C269      1.0  0.17640  0.05610  0.44390  1.0000
  C   C270      1.0  0.82360  0.05610  0.05610  1.0000
  C   C271      1.0  0.67640  0.55610  0.44390  1.0000
  C   C272      1.0  0.32360  0.55610  0.05610  1.0000
  H   H161      1.0  0.79990  0.93170  0.53180  1.0000
  H   H162      1.0  0.20010  0.93170  0.96820  1.0000
  H   H163      1.0  0.29990  0.43170  0.53180  1.0000
  H   H164      1.0  0.70010  0.43170  0.96820  1.0000
  H   H165      1.0  0.20010  0.06830  0.46820  1.0000
  H   H166      1.0  0.79990  0.06830  0.03180  1.0000
  H   H167      1.0  0.70010  0.56830  0.46820  1.0000
  H   H168      1.0  0.29990  0.56830  0.03180  1.0000
  C   C273      1.0  0.84210  0.88670  0.62400  1.0000
  C   C274      1.0  0.15790  0.88670  0.87600  1.0000
  C   C275      1.0  0.34210  0.38670  0.62400  1.0000
  C   C276      1.0  0.65790  0.38670  0.87600  1.0000
  C   C277      1.0  0.15790  0.11330  0.37600  1.0000
  C   C278      1.0  0.84210  0.11330  0.12400  1.0000
  C   C279      1.0  0.65790  0.61330  0.37600  1.0000
  C   C280      1.0  0.34210  0.61330  0.12400  1.0000
  H   H169      1.0  0.83140  0.83520  0.64470  1.0000
  H   H170      1.0  0.16860  0.83520  0.85530  1.0000
  H   H171      1.0  0.33140  0.33520  0.64470  1.0000
  H   H172      1.0  0.66860  0.33520  0.85530  1.0000
  H   H173      1.0  0.16860  0.16480  0.35530  1.0000
  H   H174      1.0  0.83140  0.16480  0.14470  1.0000
  H   H175      1.0  0.66860  0.66480  0.35530  1.0000
  H   H176      1.0  0.33140  0.66480  0.14470  1.0000
  C   C281      1.0  0.87690  0.90690  0.66080  1.0000
  C   C282      1.0  0.12310  0.90690  0.83920  1.0000
  C   C283      1.0  0.37690  0.40690  0.66080  1.0000
  C   C284      1.0  0.62310  0.40690  0.83920  1.0000
  C   C285      1.0  0.12310  0.09310  0.33920  1.0000
  C   C286      1.0  0.87690  0.09310  0.16080  1.0000
  C   C287      1.0  0.62310  0.59310  0.33920  1.0000
  C   C288      1.0  0.37690  0.59310  0.16080  1.0000
  C   C289      1.0  0.89260  0.98020  0.63000  1.0000
  C   C290      1.0  0.10740  0.98020  0.87000  1.0000
  C   C291      1.0  0.39260  0.48020  0.63000  1.0000
  C   C292      1.0  0.60740  0.48020  0.87000  1.0000
  C   C293      1.0  0.10740  0.01980  0.37000  1.0000
  C   C294      1.0  0.89260  0.01980  0.13000  1.0000
  C   C295      1.0  0.60740  0.51980  0.37000  1.0000
  C   C296      1.0  0.39260  0.51980  0.13000  1.0000
  H   H177      1.0  0.91610  0.99500  0.65580  1.0000
  H   H178      1.0  0.08390  0.99500  0.84420  1.0000
  H   H179      1.0  0.41610  0.49500  0.65580  1.0000
  H   H180      1.0  0.58390  0.49500  0.84420  1.0000
  H   H181      1.0  0.08390  0.00500  0.34420  1.0000
  H   H182      1.0  0.91610  0.00500  0.15580  1.0000
  H   H183      1.0  0.58390  0.50500  0.34420  1.0000
  H   H184      1.0  0.41610  0.50500  0.15580  1.0000
  C   C297      1.0  0.87290  0.03310  0.55920  1.0000
  C   C298      1.0  0.12710  0.03310  0.94080  1.0000
  C   C299      1.0  0.37290  0.53310  0.55920  1.0000
  C   C300      1.0  0.62710  0.53310  0.94080  1.0000
  C   C301      1.0  0.12710  0.96690  0.44080  1.0000
  C   C302      1.0  0.87290  0.96690  0.05920  1.0000
  C   C303      1.0  0.62710  0.46690  0.44080  1.0000
  C   C304      1.0  0.37290  0.46690  0.05920  1.0000
  H   H185      1.0  0.88390  0.08030  0.53640  1.0000
  H   H186      1.0  0.11610  0.08030  0.96360  1.0000
  H   H187      1.0  0.38390  0.58030  0.53640  1.0000
  H   H188      1.0  0.61610  0.58030  0.96360  1.0000
  H   H189      1.0  0.11610  0.91970  0.46360  1.0000
  H   H190      1.0  0.88390  0.91970  0.03640  1.0000
  H   H191      1.0  0.61610  0.41970  0.46360  1.0000
  H   H192      1.0  0.38390  0.41970  0.03640  1.0000
  C   C305      1.0  0.89670  0.84420  0.73550  1.0000
  C   C306      1.0  0.10330  0.84420  0.76450  1.0000
  C   C307      1.0  0.39670  0.34420  0.73550  1.0000
  C   C308      1.0  0.60330  0.34420  0.76450  1.0000
  C   C309      1.0  0.10330  0.15580  0.26450  1.0000
  C   C310      1.0  0.89670  0.15580  0.23550  1.0000
  C   C311      1.0  0.60330  0.65580  0.26450  1.0000
  C   C312      1.0  0.39670  0.65580  0.23550  1.0000
