data_image0
_chemical_formula_structural       U16O32C32N16O32C32H32O32C32O32C32H32C32H32C64H32C32H32C48H32C32
_chemical_formula_sum              "U16 O128 C336 N16 H192"
_cell_length_a       8.3019
_cell_length_b       27.9965
_cell_length_c       51.493
_cell_angle_alpha    90
_cell_angle_beta     90
_cell_angle_gamma    90

_space_group_name_H-M_alt    "P 1"
_space_group_IT_number       1

loop_
  _space_group_symop_operation_xyz
  'x, y, z'

loop_
  _atom_site_type_symbol
  _atom_site_label
  _atom_site_symmetry_multiplicity
  _atom_site_fract_x
  _atom_site_fract_y
  _atom_site_fract_z
  _atom_site_occupancy
  U   U1        1.0  0.87500  0.37500  0.50005  1.0000
  U   U2        1.0  0.87500  0.37500  0.24995  1.0000
  U   U3        1.0  0.87500  0.87500  0.00005  1.0000
  U   U4        1.0  0.87500  0.87500  0.74995  1.0000
  U   U5        1.0  0.37500  0.37500  0.00005  1.0000
  U   U6        1.0  0.37500  0.37500  0.74995  1.0000
  U   U7        1.0  0.37500  0.87500  0.50005  1.0000
  U   U8        1.0  0.37500  0.87500  0.24995  1.0000
  U   U9        1.0  0.12500  0.62500  0.49995  1.0000
  U   U10       1.0  0.12500  0.62500  0.75005  1.0000
  U   U11       1.0  0.12500  0.12500  0.99995  1.0000
  U   U12       1.0  0.12500  0.12500  0.25005  1.0000
  U   U13       1.0  0.62500  0.62500  0.99995  1.0000
  U   U14       1.0  0.62500  0.62500  0.25005  1.0000
  U   U15       1.0  0.62500  0.12500  0.49995  1.0000
  U   U16       1.0  0.62500  0.12500  0.75005  1.0000
  O   O1        1.0  0.68540  0.35110  0.50030  1.0000
  O   O2        1.0  0.06460  0.39890  0.50030  1.0000
  O   O3        1.0  0.06460  0.35110  0.24970  1.0000
  O   O4        1.0  0.68540  0.39890  0.24970  1.0000
  O   O5        1.0  0.68540  0.85110  0.00030  1.0000
  O   O6        1.0  0.06460  0.89890  0.00030  1.0000
  O   O7        1.0  0.06460  0.85110  0.74970  1.0000
  O   O8        1.0  0.68540  0.89890  0.74970  1.0000
  O   O9        1.0  0.18540  0.35110  0.00030  1.0000
  O   O10       1.0  0.56460  0.39890  0.00030  1.0000
  O   O11       1.0  0.56460  0.35110  0.74970  1.0000
  O   O12       1.0  0.18540  0.39890  0.74970  1.0000
  O   O13       1.0  0.18540  0.85110  0.50030  1.0000
  O   O14       1.0  0.56460  0.89890  0.50030  1.0000
  O   O15       1.0  0.56460  0.85110  0.24970  1.0000
  O   O16       1.0  0.18540  0.89890  0.24970  1.0000
  O   O17       1.0  0.31460  0.64890  0.49970  1.0000
  O   O18       1.0  0.93540  0.60110  0.49970  1.0000
  O   O19       1.0  0.93540  0.64890  0.75030  1.0000
  O   O20       1.0  0.31460  0.60110  0.75030  1.0000
  O   O21       1.0  0.31460  0.14890  0.99970  1.0000
  O   O22       1.0  0.93540  0.10110  0.99970  1.0000
  O   O23       1.0  0.93540  0.14890  0.25030  1.0000
  O   O24       1.0  0.31460  0.10110  0.25030  1.0000
  O   O25       1.0  0.81460  0.64890  0.99970  1.0000
  O   O26       1.0  0.43540  0.60110  0.99970  1.0000
  O   O27       1.0  0.43540  0.64890  0.25030  1.0000
  O   O28       1.0  0.81460  0.60110  0.25030  1.0000
  O   O29       1.0  0.81460  0.14890  0.49970  1.0000
  O   O30       1.0  0.43540  0.10110  0.49970  1.0000
  O   O31       1.0  0.43540  0.14890  0.75030  1.0000
  O   O32       1.0  0.81460  0.10110  0.75030  1.0000
  C   C1        1.0  0.77300  0.45690  0.47210  1.0000
  C   C2        1.0  0.97700  0.29310  0.47210  1.0000
  C   C3        1.0  0.97700  0.45690  0.27790  1.0000
  C   C4        1.0  0.77300  0.29310  0.27790  1.0000
  C   C5        1.0  0.77300  0.95690  0.97210  1.0000
  C   C6        1.0  0.97700  0.79310  0.97210  1.0000
  C   C7        1.0  0.97700  0.95690  0.77790  1.0000
  C   C8        1.0  0.77300  0.79310  0.77790  1.0000
  C   C9        1.0  0.27300  0.45690  0.97210  1.0000
  C   C10       1.0  0.47700  0.29310  0.97210  1.0000
  C   C11       1.0  0.47700  0.45690  0.77790  1.0000
  C   C12       1.0  0.27300  0.29310  0.77790  1.0000
  C   C13       1.0  0.27300  0.95690  0.47210  1.0000
  C   C14       1.0  0.47700  0.79310  0.47210  1.0000
  C   C15       1.0  0.47700  0.95690  0.27790  1.0000
  C   C16       1.0  0.27300  0.79310  0.27790  1.0000
  C   C17       1.0  0.22700  0.54310  0.52790  1.0000
  C   C18       1.0  0.02300  0.70690  0.52790  1.0000
  C   C19       1.0  0.02300  0.54310  0.72210  1.0000
  C   C20       1.0  0.22700  0.70690  0.72210  1.0000
  C   C21       1.0  0.22700  0.04310  0.02790  1.0000
  C   C22       1.0  0.02300  0.20690  0.02790  1.0000
  C   C23       1.0  0.02300  0.04310  0.22210  1.0000
  C   C24       1.0  0.22700  0.20690  0.22210  1.0000
  C   C25       1.0  0.72700  0.54310  0.02790  1.0000
  C   C26       1.0  0.52300  0.70690  0.02790  1.0000
  C   C27       1.0  0.52300  0.54310  0.22210  1.0000
  C   C28       1.0  0.72700  0.70690  0.22210  1.0000
  C   C29       1.0  0.72700  0.04310  0.52790  1.0000
  C   C30       1.0  0.52300  0.20690  0.52790  1.0000
  C   C31       1.0  0.52300  0.04310  0.72210  1.0000
  C   C32       1.0  0.72700  0.20690  0.72210  1.0000
  N   N1        1.0  0.62500  0.62500  0.41500  1.0000
  N   N2        1.0  0.12500  0.12500  0.41500  1.0000
  N   N3        1.0  0.12500  0.62500  0.33500  1.0000
  N   N4        1.0  0.62500  0.12500  0.33500  1.0000
  N   N5        1.0  0.62500  0.12500  0.91500  1.0000
  N   N6        1.0  0.12500  0.62500  0.91500  1.0000
  N   N7        1.0  0.12500  0.12500  0.83500  1.0000
  N   N8        1.0  0.62500  0.62500  0.83500  1.0000
  N   N9        1.0  0.37500  0.37500  0.58500  1.0000
  N   N10       1.0  0.87500  0.87500  0.58500  1.0000
  N   N11       1.0  0.87500  0.37500  0.66500  1.0000
  N   N12       1.0  0.37500  0.87500  0.66500  1.0000
  N   N13       1.0  0.37500  0.87500  0.08500  1.0000
  N   N14       1.0  0.87500  0.37500  0.08500  1.0000
  N   N15       1.0  0.87500  0.87500  0.16500  1.0000
  N   N16       1.0  0.37500  0.37500  0.16500  1.0000
  O   O33       1.0  0.82850  0.42140  0.46004  1.0000
  O   O34       1.0  0.92150  0.32860  0.46004  1.0000
  O   O35       1.0  0.92150  0.42140  0.28996  1.0000
  O   O36       1.0  0.82850  0.32860  0.28996  1.0000
  O   O37       1.0  0.82850  0.92140  0.96004  1.0000
  O   O38       1.0  0.92150  0.82860  0.96004  1.0000
  O   O39       1.0  0.92150  0.92140  0.78996  1.0000
  O   O40       1.0  0.82850  0.82860  0.78996  1.0000
  O   O41       1.0  0.32850  0.42140  0.96004  1.0000
  O   O42       1.0  0.42150  0.32860  0.96004  1.0000
  O   O43       1.0  0.42150  0.42140  0.78996  1.0000
  O   O44       1.0  0.32850  0.32860  0.78996  1.0000
  O   O45       1.0  0.32850  0.92140  0.46004  1.0000
  O   O46       1.0  0.42150  0.82860  0.46004  1.0000
  O   O47       1.0  0.42150  0.92140  0.28996  1.0000
  O   O48       1.0  0.32850  0.82860  0.28996  1.0000
  O   O49       1.0  0.17150  0.57860  0.53996  1.0000
  O   O50       1.0  0.07850  0.67140  0.53996  1.0000
  O   O51       1.0  0.07850  0.57860  0.71004  1.0000
  O   O52       1.0  0.17150  0.67140  0.71004  1.0000
  O   O53       1.0  0.17150  0.07860  0.03996  1.0000
  O   O54       1.0  0.07850  0.17140  0.03996  1.0000
  O   O55       1.0  0.07850  0.07860  0.21004  1.0000
  O   O56       1.0  0.17150  0.17140  0.21004  1.0000
  O   O57       1.0  0.67150  0.57860  0.03996  1.0000
  O   O58       1.0  0.57850  0.67140  0.03996  1.0000
  O   O59       1.0  0.57850  0.57860  0.21004  1.0000
  O   O60       1.0  0.67150  0.67140  0.21004  1.0000
  O   O61       1.0  0.67150  0.07860  0.53996  1.0000
  O   O62       1.0  0.57850  0.17140  0.53996  1.0000
  O   O63       1.0  0.57850  0.07860  0.71004  1.0000
  O   O64       1.0  0.67150  0.17140  0.71004  1.0000
  C   C33       1.0  0.61680  0.53230  0.46580  1.0000
  C   C34       1.0  0.13320  0.21770  0.46580  1.0000
  C   C35       1.0  0.13320  0.53230  0.28420  1.0000
  C   C36       1.0  0.61680  0.21770  0.28420  1.0000
  C   C37       1.0  0.61680  0.03230  0.96580  1.0000
  C   C38       1.0  0.13320  0.71770  0.96580  1.0000
  C   C39       1.0  0.13320  0.03230  0.78420  1.0000
  C   C40       1.0  0.61680  0.71770  0.78420  1.0000
  C   C41       1.0  0.11680  0.53230  0.96580  1.0000
  C   C42       1.0  0.63320  0.21770  0.96580  1.0000
  C   C43       1.0  0.63320  0.53230  0.78420  1.0000
  C   C44       1.0  0.11680  0.21770  0.78420  1.0000
  C   C45       1.0  0.11680  0.03230  0.46580  1.0000
  C   C46       1.0  0.63320  0.71770  0.46580  1.0000
  C   C47       1.0  0.63320  0.03230  0.28420  1.0000
  C   C48       1.0  0.11680  0.71770  0.28420  1.0000
  C   C49       1.0  0.38320  0.46770  0.53420  1.0000
  C   C50       1.0  0.86680  0.78230  0.53420  1.0000
  C   C51       1.0  0.86680  0.46770  0.71580  1.0000
  C   C52       1.0  0.38320  0.78230  0.71580  1.0000
  C   C53       1.0  0.38320  0.96770  0.03420  1.0000
  C   C54       1.0  0.86680  0.28230  0.03420  1.0000
  C   C55       1.0  0.86680  0.96770  0.21580  1.0000
  C   C56       1.0  0.38320  0.28230  0.21580  1.0000
  C   C57       1.0  0.88320  0.46770  0.03420  1.0000
  C   C58       1.0  0.36680  0.78230  0.03420  1.0000
  C   C59       1.0  0.36680  0.46770  0.21580  1.0000
  C   C60       1.0  0.88320  0.78230  0.21580  1.0000
  C   C61       1.0  0.88320  0.96770  0.53420  1.0000
  C   C62       1.0  0.36680  0.28230  0.53420  1.0000
  C   C63       1.0  0.36680  0.96770  0.71580  1.0000
  C   C64       1.0  0.88320  0.28230  0.71580  1.0000
  H   H1        1.0  0.56670  0.52750  0.48170  1.0000
  H   H2        1.0  0.18330  0.22250  0.48170  1.0000
  H   H3        1.0  0.18330  0.52750  0.26830  1.0000
  H   H4        1.0  0.56670  0.22250  0.26830  1.0000
  H   H5        1.0  0.56670  0.02750  0.98170  1.0000
  H   H6        1.0  0.18330  0.72250  0.98170  1.0000
  H   H7        1.0  0.18330  0.02750  0.76830  1.0000
  H   H8        1.0  0.56670  0.72250  0.76830  1.0000
  H   H9        1.0  0.06670  0.52750  0.98170  1.0000
  H   H10       1.0  0.68330  0.22250  0.98170  1.0000
  H   H11       1.0  0.68330  0.52750  0.76830  1.0000
  H   H12       1.0  0.06670  0.22250  0.76830  1.0000
  H   H13       1.0  0.06670  0.02750  0.48170  1.0000
  H   H14       1.0  0.68330  0.72250  0.48170  1.0000
  H   H15       1.0  0.68330  0.02750  0.26830  1.0000
  H   H16       1.0  0.06670  0.72250  0.26830  1.0000
  H   H17       1.0  0.43330  0.47250  0.51830  1.0000
  H   H18       1.0  0.81670  0.77750  0.51830  1.0000
  H   H19       1.0  0.81670  0.47250  0.73170  1.0000
  H   H20       1.0  0.43330  0.77750  0.73170  1.0000
  H   H21       1.0  0.43330  0.97250  0.01830  1.0000
  H   H22       1.0  0.81670  0.27750  0.01830  1.0000
  H   H23       1.0  0.81670  0.97250  0.23170  1.0000
  H   H24       1.0  0.43330  0.27750  0.23170  1.0000
  H   H25       1.0  0.93330  0.47250  0.01830  1.0000
  H   H26       1.0  0.31670  0.77750  0.01830  1.0000
  H   H27       1.0  0.31670  0.47250  0.23170  1.0000
  H   H28       1.0  0.93330  0.77750  0.23170  1.0000
  H   H29       1.0  0.93330  0.97250  0.51830  1.0000
  H   H30       1.0  0.31670  0.27750  0.51830  1.0000
  H   H31       1.0  0.31670  0.97250  0.73170  1.0000
  H   H32       1.0  0.93330  0.27750  0.73170  1.0000
  O   O65       1.0  0.74720  0.45430  0.49539  1.0000
  O   O66       1.0  0.00280  0.29570  0.49539  1.0000
  O   O67       1.0  0.00280  0.45430  0.25461  1.0000
  O   O68       1.0  0.74720  0.29570  0.25461  1.0000
  O   O69       1.0  0.74720  0.95430  0.99539  1.0000
  O   O70       1.0  0.00280  0.79570  0.99539  1.0000
  O   O71       1.0  0.00280  0.95430  0.75461  1.0000
  O   O72       1.0  0.74720  0.79570  0.75461  1.0000
  O   O73       1.0  0.24720  0.45430  0.99539  1.0000
  O   O74       1.0  0.50280  0.29570  0.99539  1.0000
  O   O75       1.0  0.50280  0.45430  0.75461  1.0000
  O   O76       1.0  0.24720  0.29570  0.75461  1.0000
  O   O77       1.0  0.24720  0.95430  0.49539  1.0000
  O   O78       1.0  0.50280  0.79570  0.49539  1.0000
  O   O79       1.0  0.50280  0.95430  0.25461  1.0000
  O   O80       1.0  0.24720  0.79570  0.25461  1.0000
  O   O81       1.0  0.25280  0.54570  0.50461  1.0000
  O   O82       1.0  0.99720  0.70430  0.50461  1.0000
  O   O83       1.0  0.99720  0.54570  0.74539  1.0000
  O   O84       1.0  0.25280  0.70430  0.74539  1.0000
  O   O85       1.0  0.25280  0.04570  0.00461  1.0000
  O   O86       1.0  0.99720  0.20430  0.00461  1.0000
  O   O87       1.0  0.99720  0.04570  0.24539  1.0000
  O   O88       1.0  0.25280  0.20430  0.24539  1.0000
  O   O89       1.0  0.75280  0.54570  0.00461  1.0000
  O   O90       1.0  0.49720  0.70430  0.00461  1.0000
  O   O91       1.0  0.49720  0.54570  0.24539  1.0000
  O   O92       1.0  0.75280  0.70430  0.24539  1.0000
  O   O93       1.0  0.75280  0.04570  0.50461  1.0000
  O   O94       1.0  0.49720  0.20430  0.50461  1.0000
  O   O95       1.0  0.49720  0.04570  0.74539  1.0000
  O   O96       1.0  0.75280  0.20430  0.74539  1.0000
  C   C65       1.0  0.72830  0.50040  0.45694  1.0000
  C   C66       1.0  0.02170  0.24960  0.45694  1.0000
  C   C67       1.0  0.02170  0.50040  0.29306  1.0000
  C   C68       1.0  0.72830  0.24960  0.29306  1.0000
  C   C69       1.0  0.72830  0.00040  0.95694  1.0000
  C   C70       1.0  0.02170  0.74960  0.95694  1.0000
  C   C71       1.0  0.02170  0.00040  0.79306  1.0000
  C   C72       1.0  0.72830  0.74960  0.79306  1.0000
  C   C73       1.0  0.22830  0.50040  0.95694  1.0000
  C   C74       1.0  0.52170  0.24960  0.95694  1.0000
  C   C75       1.0  0.52170  0.50040  0.79306  1.0000
  C   C76       1.0  0.22830  0.24960  0.79306  1.0000
  C   C77       1.0  0.22830  0.00040  0.45694  1.0000
  C   C78       1.0  0.52170  0.74960  0.45694  1.0000
  C   C79       1.0  0.52170  0.00040  0.29306  1.0000
  C   C80       1.0  0.22830  0.74960  0.29306  1.0000
  C   C81       1.0  0.27170  0.49960  0.54306  1.0000
  C   C82       1.0  0.97830  0.75040  0.54306  1.0000
  C   C83       1.0  0.97830  0.49960  0.70694  1.0000
  C   C84       1.0  0.27170  0.75040  0.70694  1.0000
  C   C85       1.0  0.27170  0.99960  0.04306  1.0000
  C   C86       1.0  0.97830  0.25040  0.04306  1.0000
  C   C87       1.0  0.97830  0.99960  0.20694  1.0000
  C   C88       1.0  0.27170  0.25040  0.20694  1.0000
  C   C89       1.0  0.77170  0.49960  0.04306  1.0000
  C   C90       1.0  0.47830  0.75040  0.04306  1.0000
  C   C91       1.0  0.47830  0.49960  0.20694  1.0000
  C   C92       1.0  0.77170  0.75040  0.20694  1.0000
  C   C93       1.0  0.77170  0.99960  0.54306  1.0000
  C   C94       1.0  0.47830  0.25040  0.54306  1.0000
  C   C95       1.0  0.47830  0.99960  0.70694  1.0000
  C   C96       1.0  0.77170  0.25040  0.70694  1.0000
  O   O97       1.0  0.57570  0.58900  0.29254  1.0000
  O   O98       1.0  0.17430  0.16100  0.29254  1.0000
  O   O99       1.0  0.17430  0.58900  0.45746  1.0000
  O   O100      1.0  0.57570  0.16100  0.45746  1.0000
  O   O101      1.0  0.57570  0.08900  0.79254  1.0000
  O   O102      1.0  0.17430  0.66100  0.79254  1.0000
  O   O103      1.0  0.17430  0.08900  0.95746  1.0000
  O   O104      1.0  0.57570  0.66100  0.95746  1.0000
  O   O105      1.0  0.07570  0.58900  0.79254  1.0000
  O   O106      1.0  0.67430  0.16100  0.79254  1.0000
  O   O107      1.0  0.67430  0.58900  0.95746  1.0000
  O   O108      1.0  0.07570  0.16100  0.95746  1.0000
  O   O109      1.0  0.07570  0.08900  0.29254  1.0000
  O   O110      1.0  0.67430  0.66100  0.29254  1.0000
  O   O111      1.0  0.67430  0.08900  0.45746  1.0000
  O   O112      1.0  0.07570  0.66100  0.45746  1.0000
  O   O113      1.0  0.42430  0.41100  0.70746  1.0000
  O   O114      1.0  0.82570  0.83900  0.70746  1.0000
  O   O115      1.0  0.82570  0.41100  0.54254  1.0000
  O   O116      1.0  0.42430  0.83900  0.54254  1.0000
  O   O117      1.0  0.42430  0.91100  0.20746  1.0000
  O   O118      1.0  0.82570  0.33900  0.20746  1.0000
  O   O119      1.0  0.82570  0.91100  0.04254  1.0000
  O   O120      1.0  0.42430  0.33900  0.04254  1.0000
  O   O121      1.0  0.92430  0.41100  0.20746  1.0000
  O   O122      1.0  0.32570  0.83900  0.20746  1.0000
  O   O123      1.0  0.32570  0.41100  0.04254  1.0000
  O   O124      1.0  0.92430  0.83900  0.04254  1.0000
  O   O125      1.0  0.92430  0.91100  0.70746  1.0000
  O   O126      1.0  0.32570  0.33900  0.70746  1.0000
  O   O127      1.0  0.32570  0.91100  0.54254  1.0000
  O   O128      1.0  0.92430  0.33900  0.54254  1.0000
  C   C97       1.0  0.57830  0.57250  0.45055  1.0000
  C   C98       1.0  0.17170  0.17750  0.45055  1.0000
  C   C99       1.0  0.17170  0.57250  0.29945  1.0000
  C   C100      1.0  0.57830  0.17750  0.29945  1.0000
  C   C101      1.0  0.57830  0.07250  0.95055  1.0000
  C   C102      1.0  0.17170  0.67750  0.95055  1.0000
  C   C103      1.0  0.17170  0.07250  0.79945  1.0000
  C   C104      1.0  0.57830  0.67750  0.79945  1.0000
  C   C105      1.0  0.07830  0.57250  0.95055  1.0000
  C   C106      1.0  0.67170  0.17750  0.95055  1.0000
  C   C107      1.0  0.67170  0.57250  0.79945  1.0000
  C   C108      1.0  0.07830  0.17750  0.79945  1.0000
  C   C109      1.0  0.07830  0.07250  0.45055  1.0000
  C   C110      1.0  0.67170  0.67750  0.45055  1.0000
  C   C111      1.0  0.67170  0.07250  0.29945  1.0000
  C   C112      1.0  0.07830  0.67750  0.29945  1.0000
  C   C113      1.0  0.42170  0.42750  0.54945  1.0000
  C   C114      1.0  0.82830  0.82250  0.54945  1.0000
  C   C115      1.0  0.82830  0.42750  0.70055  1.0000
  C   C116      1.0  0.42170  0.82250  0.70055  1.0000
  C   C117      1.0  0.42170  0.92750  0.04945  1.0000
  C   C118      1.0  0.82830  0.32250  0.04945  1.0000
  C   C119      1.0  0.82830  0.92750  0.20055  1.0000
  C   C120      1.0  0.42170  0.32250  0.20055  1.0000
  C   C121      1.0  0.92170  0.42750  0.04945  1.0000
  C   C122      1.0  0.32830  0.82250  0.04945  1.0000
  C   C123      1.0  0.32830  0.42750  0.20055  1.0000
  C   C124      1.0  0.92170  0.82250  0.20055  1.0000
  C   C125      1.0  0.92170  0.92750  0.54945  1.0000
  C   C126      1.0  0.32830  0.32250  0.54945  1.0000
  C   C127      1.0  0.32830  0.92750  0.70055  1.0000
  C   C128      1.0  0.92170  0.32250  0.70055  1.0000
  H   H33       1.0  0.49410  0.59230  0.45560  1.0000
  H   H34       1.0  0.25590  0.15770  0.45560  1.0000
  H   H35       1.0  0.25590  0.59230  0.29440  1.0000
  H   H36       1.0  0.49410  0.15770  0.29440  1.0000
  H   H37       1.0  0.49410  0.09230  0.95560  1.0000
  H   H38       1.0  0.25590  0.65770  0.95560  1.0000
  H   H39       1.0  0.25590  0.09230  0.79440  1.0000
  H   H40       1.0  0.49410  0.65770  0.79440  1.0000
  H   H41       1.0  0.99410  0.59230  0.95560  1.0000
  H   H42       1.0  0.75590  0.15770  0.95560  1.0000
  H   H43       1.0  0.75590  0.59230  0.79440  1.0000
  H   H44       1.0  0.99410  0.15770  0.79440  1.0000
  H   H45       1.0  0.99410  0.09230  0.45560  1.0000
  H   H46       1.0  0.75590  0.65770  0.45560  1.0000
  H   H47       1.0  0.75590  0.09230  0.29440  1.0000
  H   H48       1.0  0.99410  0.65770  0.29440  1.0000
  H   H49       1.0  0.50590  0.40770  0.54440  1.0000
  H   H50       1.0  0.74410  0.84230  0.54440  1.0000
  H   H51       1.0  0.74410  0.40770  0.70560  1.0000
  H   H52       1.0  0.50590  0.84230  0.70560  1.0000
  H   H53       1.0  0.50590  0.90770  0.04440  1.0000
  H   H54       1.0  0.74410  0.34230  0.04440  1.0000
  H   H55       1.0  0.74410  0.90770  0.20560  1.0000
  H   H56       1.0  0.50590  0.34230  0.20560  1.0000
  H   H57       1.0  0.00590  0.40770  0.04440  1.0000
  H   H58       1.0  0.24410  0.84230  0.04440  1.0000
  H   H59       1.0  0.24410  0.40770  0.20560  1.0000
  H   H60       1.0  0.00590  0.84230  0.20560  1.0000
  H   H61       1.0  0.00590  0.90770  0.54440  1.0000
  H   H62       1.0  0.24410  0.34230  0.54440  1.0000
  H   H63       1.0  0.24410  0.90770  0.70560  1.0000
  H   H64       1.0  0.00590  0.34230  0.70560  1.0000
  C   C129      1.0  0.77480  0.55110  0.41974  1.0000
  C   C130      1.0  0.97520  0.19890  0.41974  1.0000
  C   C131      1.0  0.97520  0.55110  0.33026  1.0000
  C   C132      1.0  0.77480  0.19890  0.33026  1.0000
  C   C133      1.0  0.77480  0.05110  0.91974  1.0000
  C   C134      1.0  0.97520  0.69890  0.91974  1.0000
  C   C135      1.0  0.97520  0.05110  0.83026  1.0000
  C   C136      1.0  0.77480  0.69890  0.83026  1.0000
  C   C137      1.0  0.27480  0.55110  0.91974  1.0000
  C   C138      1.0  0.47520  0.19890  0.91974  1.0000
  C   C139      1.0  0.47520  0.55110  0.83026  1.0000
  C   C140      1.0  0.27480  0.19890  0.83026  1.0000
  C   C141      1.0  0.27480  0.05110  0.41974  1.0000
  C   C142      1.0  0.47520  0.69890  0.41974  1.0000
  C   C143      1.0  0.47520  0.05110  0.33026  1.0000
  C   C144      1.0  0.27480  0.69890  0.33026  1.0000
  C   C145      1.0  0.22520  0.44890  0.58026  1.0000
  C   C146      1.0  0.02480  0.80110  0.58026  1.0000
  C   C147      1.0  0.02480  0.44890  0.66974  1.0000
  C   C148      1.0  0.22520  0.80110  0.66974  1.0000
  C   C149      1.0  0.22520  0.94890  0.08026  1.0000
  C   C150      1.0  0.02480  0.30110  0.08026  1.0000
  C   C151      1.0  0.02480  0.94890  0.16974  1.0000
  C   C152      1.0  0.22520  0.30110  0.16974  1.0000
  C   C153      1.0  0.72520  0.44890  0.08026  1.0000
  C   C154      1.0  0.52480  0.80110  0.08026  1.0000
  C   C155      1.0  0.52480  0.44890  0.16974  1.0000
  C   C156      1.0  0.72520  0.80110  0.16974  1.0000
  C   C157      1.0  0.72520  0.94890  0.58026  1.0000
  C   C158      1.0  0.52480  0.30110  0.58026  1.0000
  C   C159      1.0  0.52480  0.94890  0.66974  1.0000
  C   C160      1.0  0.72520  0.30110  0.66974  1.0000
  H   H65       1.0  0.82900  0.55750  0.40430  1.0000
  H   H66       1.0  0.92100  0.19250  0.40430  1.0000
  H   H67       1.0  0.92100  0.55750  0.34570  1.0000
  H   H68       1.0  0.82900  0.19250  0.34570  1.0000
  H   H69       1.0  0.82900  0.05750  0.90430  1.0000
  H   H70       1.0  0.92100  0.69250  0.90430  1.0000
  H   H71       1.0  0.92100  0.05750  0.84570  1.0000
  H   H72       1.0  0.82900  0.69250  0.84570  1.0000
  H   H73       1.0  0.32900  0.55750  0.90430  1.0000
  H   H74       1.0  0.42100  0.19250  0.90430  1.0000
  H   H75       1.0  0.42100  0.55750  0.84570  1.0000
  H   H76       1.0  0.32900  0.19250  0.84570  1.0000
  H   H77       1.0  0.32900  0.05750  0.40430  1.0000
  H   H78       1.0  0.42100  0.69250  0.40430  1.0000
  H   H79       1.0  0.42100  0.05750  0.34570  1.0000
  H   H80       1.0  0.32900  0.69250  0.34570  1.0000
  H   H81       1.0  0.17100  0.44250  0.59570  1.0000
  H   H82       1.0  0.07900  0.80750  0.59570  1.0000
  H   H83       1.0  0.07900  0.44250  0.65430  1.0000
  H   H84       1.0  0.17100  0.80750  0.65430  1.0000
  H   H85       1.0  0.17100  0.94250  0.09570  1.0000
  H   H86       1.0  0.07900  0.30750  0.09570  1.0000
  H   H87       1.0  0.07900  0.94250  0.15430  1.0000
  H   H88       1.0  0.17100  0.30750  0.15430  1.0000
  H   H89       1.0  0.67100  0.44250  0.09570  1.0000
  H   H90       1.0  0.57900  0.80750  0.09570  1.0000
  H   H91       1.0  0.57900  0.44250  0.15430  1.0000
  H   H92       1.0  0.67100  0.80750  0.15430  1.0000
  H   H93       1.0  0.67100  0.94250  0.59570  1.0000
  H   H94       1.0  0.57900  0.30750  0.59570  1.0000
  H   H95       1.0  0.57900  0.94250  0.65430  1.0000
  H   H96       1.0  0.67100  0.30750  0.65430  1.0000
  C   C161      1.0  0.66110  0.58260  0.42892  1.0000
  C   C162      1.0  0.08890  0.16740  0.42892  1.0000
  C   C163      1.0  0.08890  0.58260  0.32108  1.0000
  C   C164      1.0  0.66110  0.16740  0.32108  1.0000
  C   C165      1.0  0.66110  0.08260  0.92892  1.0000
  C   C166      1.0  0.08890  0.66740  0.92892  1.0000
  C   C167      1.0  0.08890  0.08260  0.82108  1.0000
  C   C168      1.0  0.66110  0.66740  0.82108  1.0000
  C   C169      1.0  0.16110  0.58260  0.92892  1.0000
  C   C170      1.0  0.58890  0.16740  0.92892  1.0000
  C   C171      1.0  0.58890  0.58260  0.82108  1.0000
  C   C172      1.0  0.16110  0.16740  0.82108  1.0000
  C   C173      1.0  0.16110  0.08260  0.42892  1.0000
  C   C174      1.0  0.58890  0.66740  0.42892  1.0000
  C   C175      1.0  0.58890  0.08260  0.32108  1.0000
  C   C176      1.0  0.16110  0.66740  0.32108  1.0000
  C   C177      1.0  0.33890  0.41740  0.57108  1.0000
  C   C178      1.0  0.91110  0.83260  0.57108  1.0000
  C   C179      1.0  0.91110  0.41740  0.67892  1.0000
  C   C180      1.0  0.33890  0.83260  0.67892  1.0000
  C   C181      1.0  0.33890  0.91740  0.07108  1.0000
  C   C182      1.0  0.91110  0.33260  0.07108  1.0000
  C   C183      1.0  0.91110  0.91740  0.17892  1.0000
  C   C184      1.0  0.33890  0.33260  0.17892  1.0000
  C   C185      1.0  0.83890  0.41740  0.07108  1.0000
  C   C186      1.0  0.41110  0.83260  0.07108  1.0000
  C   C187      1.0  0.41110  0.41740  0.17892  1.0000
  C   C188      1.0  0.83890  0.83260  0.17892  1.0000
  C   C189      1.0  0.83890  0.91740  0.57108  1.0000
  C   C190      1.0  0.41110  0.33260  0.57108  1.0000
  C   C191      1.0  0.41110  0.91740  0.67892  1.0000
  C   C192      1.0  0.83890  0.33260  0.67892  1.0000
  C   C193      1.0  0.80840  0.50970  0.43355  1.0000
  C   C194      1.0  0.94160  0.24030  0.43355  1.0000
  C   C195      1.0  0.94160  0.50970  0.31645  1.0000
  C   C196      1.0  0.80840  0.24030  0.31645  1.0000
  C   C197      1.0  0.80840  0.00970  0.93355  1.0000
  C   C198      1.0  0.94160  0.74030  0.93355  1.0000
  C   C199      1.0  0.94160  0.00970  0.81645  1.0000
  C   C200      1.0  0.80840  0.74030  0.81645  1.0000
  C   C201      1.0  0.30840  0.50970  0.93355  1.0000
  C   C202      1.0  0.44160  0.24030  0.93355  1.0000
  C   C203      1.0  0.44160  0.50970  0.81645  1.0000
  C   C204      1.0  0.30840  0.24030  0.81645  1.0000
  C   C205      1.0  0.30840  0.00970  0.43355  1.0000
  C   C206      1.0  0.44160  0.74030  0.43355  1.0000
  C   C207      1.0  0.44160  0.00970  0.31645  1.0000
  C   C208      1.0  0.30840  0.74030  0.31645  1.0000
  C   C209      1.0  0.19160  0.49030  0.56645  1.0000
  C   C210      1.0  0.05840  0.75970  0.56645  1.0000
  C   C211      1.0  0.05840  0.49030  0.68355  1.0000
  C   C212      1.0  0.19160  0.75970  0.68355  1.0000
  C   C213      1.0  0.19160  0.99030  0.06645  1.0000
  C   C214      1.0  0.05840  0.25970  0.06645  1.0000
  C   C215      1.0  0.05840  0.99030  0.18355  1.0000
  C   C216      1.0  0.19160  0.25970  0.18355  1.0000
  C   C217      1.0  0.69160  0.49030  0.06645  1.0000
  C   C218      1.0  0.55840  0.75970  0.06645  1.0000
  C   C219      1.0  0.55840  0.49030  0.18355  1.0000
  C   C220      1.0  0.69160  0.75970  0.18355  1.0000
  C   C221      1.0  0.69160  0.99030  0.56645  1.0000
  C   C222      1.0  0.55840  0.25970  0.56645  1.0000
  C   C223      1.0  0.55840  0.99030  0.68355  1.0000
  C   C224      1.0  0.69160  0.25970  0.68355  1.0000
  H   H97       1.0  0.88410  0.48810  0.42730  1.0000
  H   H98       1.0  0.86590  0.26190  0.42730  1.0000
  H   H99       1.0  0.86590  0.48810  0.32270  1.0000
  H   H100      1.0  0.88410  0.26190  0.32270  1.0000
  H   H101      1.0  0.88410  0.98810  0.92730  1.0000
  H   H102      1.0  0.86590  0.76190  0.92730  1.0000
  H   H103      1.0  0.86590  0.98810  0.82270  1.0000
  H   H104      1.0  0.88410  0.76190  0.82270  1.0000
  H   H105      1.0  0.38410  0.48810  0.92730  1.0000
  H   H106      1.0  0.36590  0.26190  0.92730  1.0000
  H   H107      1.0  0.36590  0.48810  0.82270  1.0000
  H   H108      1.0  0.38410  0.26190  0.82270  1.0000
  H   H109      1.0  0.38410  0.98810  0.42730  1.0000
  H   H110      1.0  0.36590  0.76190  0.42730  1.0000
  H   H111      1.0  0.36590  0.98810  0.32270  1.0000
  H   H112      1.0  0.38410  0.76190  0.32270  1.0000
  H   H113      1.0  0.11590  0.51190  0.57270  1.0000
  H   H114      1.0  0.13410  0.73810  0.57270  1.0000
  H   H115      1.0  0.13410  0.51190  0.67730  1.0000
  H   H116      1.0  0.11590  0.73810  0.67730  1.0000
  H   H117      1.0  0.11590  0.01190  0.07270  1.0000
  H   H118      1.0  0.13410  0.23810  0.07270  1.0000
  H   H119      1.0  0.13410  0.01190  0.17730  1.0000
  H   H120      1.0  0.11590  0.23810  0.17730  1.0000
  H   H121      1.0  0.61590  0.51190  0.07270  1.0000
  H   H122      1.0  0.63410  0.73810  0.07270  1.0000
  H   H123      1.0  0.63410  0.51190  0.17730  1.0000
  H   H124      1.0  0.61590  0.73810  0.17730  1.0000
  H   H125      1.0  0.61590  0.01190  0.57270  1.0000
  H   H126      1.0  0.63410  0.23810  0.57270  1.0000
  H   H127      1.0  0.63410  0.01190  0.67730  1.0000
  H   H128      1.0  0.61590  0.23810  0.67730  1.0000
  C   C225      1.0  0.57340  0.58500  0.37409  1.0000
  C   C226      1.0  0.17660  0.16500  0.37409  1.0000
  C   C227      1.0  0.17660  0.58500  0.37591  1.0000
  C   C228      1.0  0.57340  0.16500  0.37591  1.0000
  C   C229      1.0  0.57340  0.08500  0.87409  1.0000
  C   C230      1.0  0.17660  0.66500  0.87409  1.0000
  C   C231      1.0  0.17660  0.08500  0.87591  1.0000
  C   C232      1.0  0.57340  0.66500  0.87591  1.0000
  C   C233      1.0  0.07340  0.58500  0.87409  1.0000
  C   C234      1.0  0.67660  0.16500  0.87409  1.0000
  C   C235      1.0  0.67660  0.58500  0.87591  1.0000
  C   C236      1.0  0.07340  0.16500  0.87591  1.0000
  C   C237      1.0  0.07340  0.08500  0.37409  1.0000
  C   C238      1.0  0.67660  0.66500  0.37409  1.0000
  C   C239      1.0  0.67660  0.08500  0.37591  1.0000
  C   C240      1.0  0.07340  0.66500  0.37591  1.0000
  C   C241      1.0  0.42660  0.41500  0.62591  1.0000
  C   C242      1.0  0.82340  0.83500  0.62591  1.0000
  C   C243      1.0  0.82340  0.41500  0.62409  1.0000
  C   C244      1.0  0.42660  0.83500  0.62409  1.0000
  C   C245      1.0  0.42660  0.91500  0.12591  1.0000
  C   C246      1.0  0.82340  0.33500  0.12591  1.0000
  C   C247      1.0  0.82340  0.91500  0.12409  1.0000
  C   C248      1.0  0.42660  0.33500  0.12409  1.0000
  C   C249      1.0  0.92660  0.41500  0.12591  1.0000
  C   C250      1.0  0.32340  0.83500  0.12591  1.0000
  C   C251      1.0  0.32340  0.41500  0.12409  1.0000
  C   C252      1.0  0.92660  0.83500  0.12409  1.0000
  C   C253      1.0  0.92660  0.91500  0.62591  1.0000
  C   C254      1.0  0.32340  0.33500  0.62591  1.0000
  C   C255      1.0  0.32340  0.91500  0.62409  1.0000
  C   C256      1.0  0.92660  0.33500  0.62409  1.0000
  H   H129      1.0  0.54120  0.55790  0.38320  1.0000
  H   H130      1.0  0.20880  0.19210  0.38320  1.0000
  H   H131      1.0  0.20880  0.55790  0.36680  1.0000
  H   H132      1.0  0.54120  0.19210  0.36680  1.0000
  H   H133      1.0  0.54120  0.05790  0.88320  1.0000
  H   H134      1.0  0.20880  0.69210  0.88320  1.0000
  H   H135      1.0  0.20880  0.05790  0.86680  1.0000
  H   H136      1.0  0.54120  0.69210  0.86680  1.0000
  H   H137      1.0  0.04120  0.55790  0.88320  1.0000
  H   H138      1.0  0.70880  0.19210  0.88320  1.0000
  H   H139      1.0  0.70880  0.55790  0.86680  1.0000
  H   H140      1.0  0.04120  0.19210  0.86680  1.0000
  H   H141      1.0  0.04120  0.05790  0.38320  1.0000
  H   H142      1.0  0.70880  0.69210  0.38320  1.0000
  H   H143      1.0  0.70880  0.05790  0.36680  1.0000
  H   H144      1.0  0.04120  0.69210  0.36680  1.0000
  H   H145      1.0  0.45880  0.44210  0.61680  1.0000
  H   H146      1.0  0.79120  0.80790  0.61680  1.0000
  H   H147      1.0  0.79120  0.44210  0.63320  1.0000
  H   H148      1.0  0.45880  0.80790  0.63320  1.0000
  H   H149      1.0  0.45880  0.94210  0.11680  1.0000
  H   H150      1.0  0.79120  0.30790  0.11680  1.0000
  H   H151      1.0  0.79120  0.94210  0.13320  1.0000
  H   H152      1.0  0.45880  0.30790  0.13320  1.0000
  H   H153      1.0  0.95880  0.44210  0.11680  1.0000
  H   H154      1.0  0.29120  0.80790  0.11680  1.0000
  H   H155      1.0  0.29120  0.44210  0.13320  1.0000
  H   H156      1.0  0.95880  0.80790  0.13320  1.0000
  H   H157      1.0  0.95880  0.94210  0.61680  1.0000
  H   H158      1.0  0.29120  0.30790  0.61680  1.0000
  H   H159      1.0  0.29120  0.94210  0.63320  1.0000
  H   H160      1.0  0.95880  0.30790  0.63320  1.0000
  C   C257      1.0  0.62500  0.62500  0.38720  1.0000
  C   C258      1.0  0.12500  0.12500  0.38720  1.0000
  C   C259      1.0  0.12500  0.62500  0.36280  1.0000
  C   C260      1.0  0.62500  0.12500  0.36280  1.0000
  C   C261      1.0  0.62500  0.12500  0.88720  1.0000
  C   C262      1.0  0.12500  0.62500  0.88720  1.0000
  C   C263      1.0  0.12500  0.12500  0.86280  1.0000
  C   C264      1.0  0.62500  0.62500  0.86280  1.0000
  C   C265      1.0  0.37500  0.37500  0.61280  1.0000
  C   C266      1.0  0.87500  0.87500  0.61280  1.0000
  C   C267      1.0  0.87500  0.37500  0.63720  1.0000
  C   C268      1.0  0.37500  0.87500  0.63720  1.0000
  C   C269      1.0  0.37500  0.87500  0.11280  1.0000
  C   C270      1.0  0.87500  0.37500  0.11280  1.0000
  C   C271      1.0  0.87500  0.87500  0.13720  1.0000
  C   C272      1.0  0.37500  0.37500  0.13720  1.0000
  C   C273      1.0  0.57010  0.58550  0.34704  1.0000
  C   C274      1.0  0.17990  0.16450  0.34704  1.0000
  C   C275      1.0  0.17990  0.58550  0.40296  1.0000
  C   C276      1.0  0.57010  0.16450  0.40296  1.0000
  C   C277      1.0  0.57010  0.08550  0.84704  1.0000
  C   C278      1.0  0.17990  0.66450  0.84704  1.0000
  C   C279      1.0  0.17990  0.08550  0.90296  1.0000
  C   C280      1.0  0.57010  0.66450  0.90296  1.0000
  C   C281      1.0  0.07010  0.58550  0.84704  1.0000
  C   C282      1.0  0.67990  0.16450  0.84704  1.0000
  C   C283      1.0  0.67990  0.58550  0.90296  1.0000
  C   C284      1.0  0.07010  0.16450  0.90296  1.0000
  C   C285      1.0  0.07010  0.08550  0.34704  1.0000
  C   C286      1.0  0.67990  0.66450  0.34704  1.0000
  C   C287      1.0  0.67990  0.08550  0.40296  1.0000
  C   C288      1.0  0.07010  0.66450  0.40296  1.0000
  C   C289      1.0  0.42990  0.41450  0.65296  1.0000
  C   C290      1.0  0.82010  0.83550  0.65296  1.0000
  C   C291      1.0  0.82010  0.41450  0.59704  1.0000
  C   C292      1.0  0.42990  0.83550  0.59704  1.0000
  C   C293      1.0  0.42990  0.91450  0.15296  1.0000
  C   C294      1.0  0.82010  0.33550  0.15296  1.0000
  C   C295      1.0  0.82010  0.91450  0.09704  1.0000
  C   C296      1.0  0.42990  0.33550  0.09704  1.0000
  C   C297      1.0  0.92990  0.41450  0.15296  1.0000
  C   C298      1.0  0.32010  0.83550  0.15296  1.0000
  C   C299      1.0  0.32010  0.41450  0.09704  1.0000
  C   C300      1.0  0.92990  0.83550  0.09704  1.0000
  C   C301      1.0  0.92990  0.91450  0.65296  1.0000
  C   C302      1.0  0.32010  0.33550  0.65296  1.0000
  C   C303      1.0  0.32010  0.91450  0.59704  1.0000
  C   C304      1.0  0.92990  0.33550  0.59704  1.0000
  H   H161      1.0  0.53070  0.55920  0.33800  1.0000
  H   H162      1.0  0.21930  0.19080  0.33800  1.0000
  H   H163      1.0  0.21930  0.55920  0.41200  1.0000
  H   H164      1.0  0.53070  0.19080  0.41200  1.0000
  H   H165      1.0  0.53070  0.05920  0.83800  1.0000
  H   H166      1.0  0.21930  0.69080  0.83800  1.0000
  H   H167      1.0  0.21930  0.05920  0.91200  1.0000
  H   H168      1.0  0.53070  0.69080  0.91200  1.0000
  H   H169      1.0  0.03070  0.55920  0.83800  1.0000
  H   H170      1.0  0.71930  0.19080  0.83800  1.0000
  H   H171      1.0  0.71930  0.55920  0.91200  1.0000
  H   H172      1.0  0.03070  0.19080  0.91200  1.0000
  H   H173      1.0  0.03070  0.05920  0.33800  1.0000
  H   H174      1.0  0.71930  0.69080  0.33800  1.0000
  H   H175      1.0  0.71930  0.05920  0.41200  1.0000
  H   H176      1.0  0.03070  0.69080  0.41200  1.0000
  H   H177      1.0  0.46930  0.44080  0.66200  1.0000
  H   H178      1.0  0.78070  0.80920  0.66200  1.0000
  H   H179      1.0  0.78070  0.44080  0.58800  1.0000
  H   H180      1.0  0.46930  0.80920  0.58800  1.0000
  H   H181      1.0  0.46930  0.94080  0.16200  1.0000
  H   H182      1.0  0.78070  0.30920  0.16200  1.0000
  H   H183      1.0  0.78070  0.94080  0.08800  1.0000
  H   H184      1.0  0.46930  0.30920  0.08800  1.0000
  H   H185      1.0  0.96930  0.44080  0.16200  1.0000
  H   H186      1.0  0.28070  0.80920  0.16200  1.0000
  H   H187      1.0  0.28070  0.44080  0.08800  1.0000
  H   H188      1.0  0.96930  0.80920  0.08800  1.0000
  H   H189      1.0  0.96930  0.94080  0.66200  1.0000
  H   H190      1.0  0.28070  0.30920  0.66200  1.0000
  H   H191      1.0  0.28070  0.94080  0.58800  1.0000
  H   H192      1.0  0.96930  0.30920  0.58800  1.0000
  C   C305      1.0  0.62500  0.62500  0.33360  1.0000
  C   C306      1.0  0.12500  0.12500  0.33360  1.0000
  C   C307      1.0  0.12500  0.62500  0.41640  1.0000
  C   C308      1.0  0.62500  0.12500  0.41640  1.0000
  C   C309      1.0  0.62500  0.12500  0.83360  1.0000
  C   C310      1.0  0.12500  0.62500  0.83360  1.0000
  C   C311      1.0  0.12500  0.12500  0.91640  1.0000
  C   C312      1.0  0.62500  0.62500  0.91640  1.0000
  C   C313      1.0  0.37500  0.37500  0.66640  1.0000
  C   C314      1.0  0.87500  0.87500  0.66640  1.0000
  C   C315      1.0  0.87500  0.37500  0.58360  1.0000
  C   C316      1.0  0.37500  0.87500  0.58360  1.0000
  C   C317      1.0  0.37500  0.87500  0.16640  1.0000
  C   C318      1.0  0.87500  0.37500  0.16640  1.0000
  C   C319      1.0  0.87500  0.87500  0.08360  1.0000
  C   C320      1.0  0.37500  0.37500  0.08360  1.0000
  C   C321      1.0  0.62500  0.62500  0.30470  1.0000
  C   C322      1.0  0.12500  0.12500  0.30470  1.0000
  C   C323      1.0  0.12500  0.62500  0.44530  1.0000
  C   C324      1.0  0.62500  0.12500  0.44530  1.0000
  C   C325      1.0  0.62500  0.12500  0.80470  1.0000
  C   C326      1.0  0.12500  0.62500  0.80470  1.0000
  C   C327      1.0  0.12500  0.12500  0.94530  1.0000
  C   C328      1.0  0.62500  0.62500  0.94530  1.0000
  C   C329      1.0  0.37500  0.37500  0.69530  1.0000
  C   C330      1.0  0.87500  0.87500  0.69530  1.0000
  C   C331      1.0  0.87500  0.37500  0.55470  1.0000
  C   C332      1.0  0.37500  0.87500  0.55470  1.0000
  C   C333      1.0  0.37500  0.87500  0.19530  1.0000
  C   C334      1.0  0.87500  0.37500  0.19530  1.0000
  C   C335      1.0  0.87500  0.87500  0.05470  1.0000
  C   C336      1.0  0.37500  0.37500  0.05470  1.0000
