data_image0
_chemical_formula_structural       Na4O2H4O2H4O2H4N32C8H2C2H2C4H2C2H2
_chemical_formula_sum              "Na4 O6 H20 N32 C16"
_cell_length_a       8.6541
_cell_length_b       9.0381
_cell_length_c       13.1014
_cell_angle_alpha    106.697
_cell_angle_beta     91.854
_cell_angle_gamma    90.352

_space_group_name_H-M_alt    "P 1"
_space_group_IT_number       1

loop_
  _space_group_symop_operation_xyz
  'x, y, z'

loop_
  _atom_site_type_symbol
  _atom_site_label
  _atom_site_symmetry_multiplicity
  _atom_site_fract_x
  _atom_site_fract_y
  _atom_site_fract_z
  _atom_site_occupancy
  Na  Na1       1.0  0.46599  0.47169  0.68755  1.0000
  Na  Na2       1.0  0.53401  0.52831  0.31245  1.0000
  Na  Na3       1.0  0.77968  0.50700  0.50979  1.0000
  Na  Na4       1.0  0.22032  0.49300  0.49021  1.0000
  O   O1        1.0  0.74847  0.48937  0.68625  1.0000
  O   O2        1.0  0.25153  0.51063  0.31375  1.0000
  H   H1        1.0  0.80300  0.56000  0.73350  1.0000
  H   H2        1.0  0.19700  0.44000  0.26650  1.0000
  H   H3        1.0  0.80000  0.41200  0.68440  1.0000
  H   H4        1.0  0.20000  0.58800  0.31560  1.0000
  O   O3        1.0  0.81902  0.51392  0.32815  1.0000
  O   O4        1.0  0.18098  0.48608  0.67185  1.0000
  H   H5        1.0  0.86000  0.43400  0.29400  1.0000
  H   H6        1.0  0.14000  0.56600  0.70600  1.0000
  H   H7        1.0  0.87700  0.58600  0.31640  1.0000
  H   H8        1.0  0.12300  0.41400  0.68360  1.0000
  O   O5        1.0  0.47368  0.24687  0.74100  1.0000
  O   O6        1.0  0.52632  0.75313  0.25900  1.0000
  H   H9        1.0  0.50000  0.16200  0.70590  1.0000
  H   H10       1.0  0.50000  0.83800  0.29410  1.0000
  H   H11       1.0  0.50200  0.25300  0.80550  1.0000
  H   H12       1.0  0.49800  0.74700  0.19450  1.0000
  N   N1        1.0  0.06574  0.33653  0.12771  1.0000
  N   N2        1.0  0.93426  0.66347  0.87229  1.0000
  N   N3        1.0  0.44529  0.74098  0.04375  1.0000
  N   N4        1.0  0.55471  0.25902  0.95625  1.0000
  N   N5        1.0  0.96573  0.21726  0.09253  1.0000
  N   N6        1.0  0.03427  0.78274  0.90747  1.0000
  N   N7        1.0  0.04862  0.26661  0.95067  1.0000
  N   N8        1.0  0.95138  0.73339  0.04933  1.0000
  N   N9        1.0  0.54522  0.82777  0.00839  1.0000
  N   N10       1.0  0.45478  0.17223  0.99161  1.0000
  N   N11       1.0  0.55714  0.69782  0.50798  1.0000
  N   N12       1.0  0.44286  0.30218  0.49202  1.0000
  N   N13       1.0  0.55085  0.77635  0.90420  1.0000
  N   N14       1.0  0.44915  0.22365  0.09580  1.0000
  N   N15       1.0  0.45819  0.68423  0.58278  1.0000
  N   N16       1.0  0.54181  0.31577  0.41722  1.0000
  N   N17       1.0  0.45477  0.65378  0.86750  1.0000
  N   N18       1.0  0.54523  0.34622  0.13250  1.0000
  N   N19       1.0  0.03828  0.14474  0.34095  1.0000
  N   N20       1.0  0.96172  0.85526  0.65905  1.0000
  N   N21       1.0  0.92602  0.26605  0.48650  1.0000
  N   N22       1.0  0.07398  0.73395  0.51350  1.0000
  N   N23       1.0  0.94437  0.04064  0.36431  1.0000
  N   N24       1.0  0.05563  0.95936  0.63569  1.0000
  N   N25       1.0  0.95562  0.17616  0.98783  1.0000
  N   N26       1.0  0.04438  0.82384  0.01217  1.0000
  N   N27       1.0  0.02842  0.27878  0.41374  1.0000
  N   N28       1.0  0.97158  0.72122  0.58626  1.0000
  N   N29       1.0  0.54468  0.92186  0.63306  1.0000
  N   N30       1.0  0.45532  0.07814  0.36694  1.0000
  N   N31       1.0  0.45165  0.81788  0.65688  1.0000
  N   N32       1.0  0.54835  0.18212  0.34312  1.0000
  C   C1        1.0  0.39150  0.63426  0.95499  1.0000
  C   C2        1.0  0.60850  0.36574  0.04501  1.0000
  C   C3        1.0  0.11474  0.36505  0.03893  1.0000
  C   C4        1.0  0.88526  0.63495  0.96107  1.0000
  C   C5        1.0  0.60758  0.84501  0.54106  1.0000
  C   C6        1.0  0.39242  0.15499  0.45894  1.0000
  C   C7        1.0  0.22457  0.48757  0.04004  1.0000
  C   C8        1.0  0.77543  0.51243  0.95996  1.0000
  H   H13       1.0  0.25550  0.55120  0.10940  1.0000
  H   H14       1.0  0.74450  0.44880  0.89060  1.0000
  C   C9        1.0  0.28156  0.51157  0.95268  1.0000
  C   C10       1.0  0.71844  0.48843  0.04732  1.0000
  H   H15       1.0  0.24930  0.45060  0.88360  1.0000
  H   H16       1.0  0.75070  0.54940  0.11640  1.0000
  C   C11       1.0  0.87724  0.11885  0.45422  1.0000
  C   C12       1.0  0.12276  0.88115  0.54578  1.0000
  C   C13       1.0  0.76664  0.05535  0.51243  1.0000
  C   C14       1.0  0.23336  0.94465  0.48757  1.0000
  H   H17       1.0  0.73000  0.12350  0.57510  1.0000
  H   H18       1.0  0.27000  0.87650  0.42490  1.0000
  C   C15       1.0  0.71713  0.90897  0.48237  1.0000
  C   C16       1.0  0.28287  0.09103  0.51763  1.0000
  H   H19       1.0  0.75180  0.84000  0.42110  1.0000
  H   H20       1.0  0.24820  0.16000  0.57890  1.0000
