data_image0
_chemical_formula_structural       Lu6O36C18O18C18Lu3C54Br18C18Br18C18Br36C18O18
_chemical_formula_sum              "Lu9 O72 C144 Br72"
_cell_length_a       17.773
_cell_length_b       17.773
_cell_length_c       22.8081
_cell_angle_alpha    90
_cell_angle_beta     90
_cell_angle_gamma    120

_space_group_name_H-M_alt    "P 1"
_space_group_IT_number       1

loop_
  _space_group_symop_operation_xyz
  'x, y, z'

loop_
  _atom_site_type_symbol
  _atom_site_label
  _atom_site_symmetry_multiplicity
  _atom_site_fract_x
  _atom_site_fract_y
  _atom_site_fract_z
  _atom_site_occupancy
  Lu  Lu1       1.0  0.66670  0.33330  0.03535  1.0000
  Lu  Lu2       1.0  0.33337  0.66663  0.36868  1.0000
  Lu  Lu3       1.0  0.00003  0.99997  0.70202  1.0000
  Lu  Lu4       1.0  0.33330  0.66670  0.96465  1.0000
  Lu  Lu5       1.0  0.66663  0.33337  0.63132  1.0000
  Lu  Lu6       1.0  0.99997  0.00003  0.29798  1.0000
  O   O1        1.0  0.56780  0.22110  0.98302  1.0000
  O   O2        1.0  0.77890  0.34670  0.98302  1.0000
  O   O3        1.0  0.65330  0.43220  0.98302  1.0000
  O   O4        1.0  0.23447  0.55443  0.31635  1.0000
  O   O5        1.0  0.44557  0.68003  0.31635  1.0000
  O   O6        1.0  0.31997  0.76553  0.31635  1.0000
  O   O7        1.0  0.90113  0.88777  0.64969  1.0000
  O   O8        1.0  0.11223  0.01337  0.64969  1.0000
  O   O9        1.0  0.98663  0.09887  0.64969  1.0000
  O   O10       1.0  0.43220  0.77890  0.01698  1.0000
  O   O11       1.0  0.22110  0.65330  0.01698  1.0000
  O   O12       1.0  0.34670  0.56780  0.01698  1.0000
  O   O13       1.0  0.76553  0.44557  0.68365  1.0000
  O   O14       1.0  0.55443  0.31997  0.68365  1.0000
  O   O15       1.0  0.68003  0.23447  0.68365  1.0000
  O   O16       1.0  0.09887  0.11223  0.35031  1.0000
  O   O17       1.0  0.88777  0.98663  0.35031  1.0000
  O   O18       1.0  0.01337  0.90113  0.35031  1.0000
  O   O19       1.0  0.67420  0.23580  0.08612  1.0000
  O   O20       1.0  0.76420  0.43840  0.08612  1.0000
  O   O21       1.0  0.56160  0.32580  0.08612  1.0000
  O   O22       1.0  0.34087  0.56913  0.41945  1.0000
  O   O23       1.0  0.43087  0.77173  0.41945  1.0000
  O   O24       1.0  0.22827  0.65913  0.41945  1.0000
  O   O25       1.0  0.00753  0.90247  0.75279  1.0000
  O   O26       1.0  0.09753  0.10507  0.75279  1.0000
  O   O27       1.0  0.89493  0.99247  0.75279  1.0000
  O   O28       1.0  0.32580  0.76420  0.91388  1.0000
  O   O29       1.0  0.23580  0.56160  0.91388  1.0000
  O   O30       1.0  0.43840  0.67420  0.91388  1.0000
  O   O31       1.0  0.65913  0.43087  0.58055  1.0000
  O   O32       1.0  0.56913  0.22827  0.58055  1.0000
  O   O33       1.0  0.77173  0.34087  0.58055  1.0000
  O   O34       1.0  0.99247  0.09753  0.24721  1.0000
  O   O35       1.0  0.90247  0.89493  0.24721  1.0000
  O   O36       1.0  0.10507  0.00753  0.24721  1.0000
  C   C1        1.0  0.54530  0.19100  0.93280  1.0000
  C   C2        1.0  0.80900  0.35430  0.93280  1.0000
  C   C3        1.0  0.64570  0.45470  0.93280  1.0000
  C   C4        1.0  0.21197  0.52433  0.26613  1.0000
  C   C5        1.0  0.47567  0.68763  0.26613  1.0000
  C   C6        1.0  0.31237  0.78803  0.26613  1.0000
  C   C7        1.0  0.87863  0.85767  0.59947  1.0000
  C   C8        1.0  0.14233  0.02097  0.59947  1.0000
  C   C9        1.0  0.97903  0.12137  0.59947  1.0000
  C   C10       1.0  0.45470  0.80900  0.06720  1.0000
  C   C11       1.0  0.19100  0.64570  0.06720  1.0000
  C   C12       1.0  0.35430  0.54530  0.06720  1.0000
  C   C13       1.0  0.78803  0.47567  0.73387  1.0000
  C   C14       1.0  0.52433  0.31237  0.73387  1.0000
  C   C15       1.0  0.68763  0.21197  0.73387  1.0000
  C   C16       1.0  0.12137  0.14233  0.40053  1.0000
  C   C17       1.0  0.85767  0.97903  0.40053  1.0000
  C   C18       1.0  0.02097  0.87863  0.40053  1.0000
  O   O37       1.0  0.56320  0.23380  0.88645  1.0000
  O   O38       1.0  0.76620  0.32940  0.88645  1.0000
  O   O39       1.0  0.67060  0.43680  0.88645  1.0000
  O   O40       1.0  0.22987  0.56713  0.21978  1.0000
  O   O41       1.0  0.43287  0.66273  0.21978  1.0000
  O   O42       1.0  0.33727  0.77013  0.21978  1.0000
  O   O43       1.0  0.89653  0.90047  0.55312  1.0000
  O   O44       1.0  0.09953  0.99607  0.55312  1.0000
  O   O45       1.0  0.00393  0.10347  0.55312  1.0000
  O   O46       1.0  0.43680  0.76620  0.11355  1.0000
  O   O47       1.0  0.23380  0.67060  0.11355  1.0000
  O   O48       1.0  0.32940  0.56320  0.11355  1.0000
  O   O49       1.0  0.77013  0.43287  0.78022  1.0000
  O   O50       1.0  0.56713  0.33727  0.78022  1.0000
  O   O51       1.0  0.66273  0.22987  0.78022  1.0000
  O   O52       1.0  0.10347  0.09953  0.44688  1.0000
  O   O53       1.0  0.90047  0.00393  0.44688  1.0000
  O   O54       1.0  0.99607  0.89653  0.44688  1.0000
  C   C19       1.0  0.49150  0.09330  0.92549  1.0000
  C   C20       1.0  0.90670  0.39820  0.92549  1.0000
  C   C21       1.0  0.60180  0.50850  0.92549  1.0000
  C   C22       1.0  0.15817  0.42663  0.25882  1.0000
  C   C23       1.0  0.57337  0.73153  0.25882  1.0000
  C   C24       1.0  0.26847  0.84183  0.25882  1.0000
  C   C25       1.0  0.82483  0.75997  0.59216  1.0000
  C   C26       1.0  0.24003  0.06487  0.59216  1.0000
  C   C27       1.0  0.93513  0.17517  0.59216  1.0000
  C   C28       1.0  0.50850  0.90670  0.07451  1.0000
  C   C29       1.0  0.09330  0.60180  0.07451  1.0000
  C   C30       1.0  0.39820  0.49150  0.07451  1.0000
  C   C31       1.0  0.84183  0.57337  0.74118  1.0000
  C   C32       1.0  0.42663  0.26847  0.74118  1.0000
  C   C33       1.0  0.73153  0.15817  0.74118  1.0000
  C   C34       1.0  0.17517  0.24003  0.40784  1.0000
  C   C35       1.0  0.75997  0.93513  0.40784  1.0000
  C   C36       1.0  0.06487  0.82483  0.40784  1.0000
  Lu  Lu7       1.0  0.66670  0.33330  0.83330  1.0000
  Lu  Lu8       1.0  0.33337  0.66663  0.16663  1.0000
  Lu  Lu9       1.0  0.00003  0.99997  0.49997  1.0000
  C   C37       1.0  0.40060  0.04990  0.92364  1.0000
  C   C38       1.0  0.95010  0.35070  0.92364  1.0000
  C   C39       1.0  0.64930  0.59940  0.92364  1.0000
  C   C40       1.0  0.06727  0.38323  0.25697  1.0000
  C   C41       1.0  0.61677  0.68403  0.25697  1.0000
  C   C42       1.0  0.31597  0.93273  0.25697  1.0000
  C   C43       1.0  0.73393  0.71657  0.59031  1.0000
  C   C44       1.0  0.28343  0.01737  0.59031  1.0000
  C   C45       1.0  0.98263  0.26607  0.59031  1.0000
  C   C46       1.0  0.59940  0.95010  0.07636  1.0000
  C   C47       1.0  0.04990  0.64930  0.07636  1.0000
  C   C48       1.0  0.35070  0.40060  0.07636  1.0000
  C   C49       1.0  0.93273  0.61677  0.74303  1.0000
  C   C50       1.0  0.38323  0.31597  0.74303  1.0000
  C   C51       1.0  0.68403  0.06727  0.74303  1.0000
  C   C52       1.0  0.26607  0.28343  0.40969  1.0000
  C   C53       1.0  0.71657  0.98263  0.40969  1.0000
  C   C54       1.0  0.01737  0.73393  0.40969  1.0000
  C   C55       1.0  0.53310  0.04570  0.91600  1.0000
  C   C56       1.0  0.95430  0.48740  0.91600  1.0000
  C   C57       1.0  0.51260  0.46690  0.91600  1.0000
  C   C58       1.0  0.19977  0.37903  0.24933  1.0000
  C   C59       1.0  0.62097  0.82073  0.24933  1.0000
  C   C60       1.0  0.17927  0.80023  0.24933  1.0000
  C   C61       1.0  0.86643  0.71237  0.58267  1.0000
  C   C62       1.0  0.28763  0.15407  0.58267  1.0000
  C   C63       1.0  0.84593  0.13357  0.58267  1.0000
  C   C64       1.0  0.46690  0.95430  0.08400  1.0000
  C   C65       1.0  0.04570  0.51260  0.08400  1.0000
  C   C66       1.0  0.48740  0.53310  0.08400  1.0000
  C   C67       1.0  0.80023  0.62097  0.75067  1.0000
  C   C68       1.0  0.37903  0.17927  0.75067  1.0000
  C   C69       1.0  0.82073  0.19977  0.75067  1.0000
  C   C70       1.0  0.13357  0.28763  0.41733  1.0000
  C   C71       1.0  0.71237  0.84593  0.41733  1.0000
  C   C72       1.0  0.15407  0.86643  0.41733  1.0000
  C   C73       1.0  0.35410  0.96130  0.91070  1.0000
  C   C74       1.0  0.03870  0.39280  0.91070  1.0000
  C   C75       1.0  0.60720  0.64590  0.91070  1.0000
  C   C76       1.0  0.02077  0.29463  0.24403  1.0000
  C   C77       1.0  0.70537  0.72613  0.24403  1.0000
  C   C78       1.0  0.27387  0.97923  0.24403  1.0000
  C   C79       1.0  0.68743  0.62797  0.57737  1.0000
  C   C80       1.0  0.37203  0.05947  0.57737  1.0000
  C   C81       1.0  0.94053  0.31257  0.57737  1.0000
  C   C82       1.0  0.64590  0.03870  0.08930  1.0000
  C   C83       1.0  0.96130  0.60720  0.08930  1.0000
  C   C84       1.0  0.39280  0.35410  0.08930  1.0000
  C   C85       1.0  0.97923  0.70537  0.75597  1.0000
  C   C86       1.0  0.29463  0.27387  0.75597  1.0000
  C   C87       1.0  0.72613  0.02077  0.75597  1.0000
  C   C88       1.0  0.31257  0.37203  0.42263  1.0000
  C   C89       1.0  0.62797  0.94053  0.42263  1.0000
  C   C90       1.0  0.05947  0.68743  0.42263  1.0000
  Br  Br1       1.0  0.34429  0.11413  0.93686  1.0000
  Br  Br2       1.0  0.88587  0.23016  0.93686  1.0000
  Br  Br3       1.0  0.76984  0.65571  0.93686  1.0000
  Br  Br4       1.0  0.01096  0.44746  0.27019  1.0000
  Br  Br5       1.0  0.55254  0.56349  0.27019  1.0000
  Br  Br6       1.0  0.43651  0.98904  0.27019  1.0000
  Br  Br7       1.0  0.67762  0.78080  0.60353  1.0000
  Br  Br8       1.0  0.21920  0.89683  0.60353  1.0000
  Br  Br9       1.0  0.10317  0.32238  0.60353  1.0000
  Br  Br10      1.0  0.65571  0.88587  0.06314  1.0000
  Br  Br11      1.0  0.11413  0.76984  0.06314  1.0000
  Br  Br12      1.0  0.23016  0.34429  0.06314  1.0000
  Br  Br13      1.0  0.98904  0.55254  0.72981  1.0000
  Br  Br14      1.0  0.44746  0.43651  0.72981  1.0000
  Br  Br15      1.0  0.56349  0.01096  0.72981  1.0000
  Br  Br16      1.0  0.32238  0.21920  0.39647  1.0000
  Br  Br17      1.0  0.78080  0.10317  0.39647  1.0000
  Br  Br18      1.0  0.89683  0.67762  0.39647  1.0000
  C   C91       1.0  0.48720  0.95890  0.90210  1.0000
  C   C92       1.0  0.04110  0.52830  0.90210  1.0000
  C   C93       1.0  0.47170  0.51280  0.90210  1.0000
  C   C94       1.0  0.15387  0.29223  0.23543  1.0000
  C   C95       1.0  0.70777  0.86163  0.23543  1.0000
  C   C96       1.0  0.13837  0.84613  0.23543  1.0000
  C   C97       1.0  0.82053  0.62557  0.56877  1.0000
  C   C98       1.0  0.37443  0.19497  0.56877  1.0000
  C   C99       1.0  0.80503  0.17947  0.56877  1.0000
  C   C100      1.0  0.51280  0.04110  0.09790  1.0000
  C   C101      1.0  0.95890  0.47170  0.09790  1.0000
  C   C102      1.0  0.52830  0.48720  0.09790  1.0000
  C   C103      1.0  0.84613  0.70777  0.76457  1.0000
  C   C104      1.0  0.29223  0.13837  0.76457  1.0000
  C   C105      1.0  0.86163  0.15387  0.76457  1.0000
  C   C106      1.0  0.17947  0.37443  0.43123  1.0000
  C   C107      1.0  0.62557  0.80503  0.43123  1.0000
  C   C108      1.0  0.19497  0.82053  0.43123  1.0000
  Br  Br19      1.0  0.65572  0.10648  0.92071  1.0000
  Br  Br20      1.0  0.89352  0.54924  0.92071  1.0000
  Br  Br21      1.0  0.45076  0.34428  0.92071  1.0000
  Br  Br22      1.0  0.32239  0.43981  0.25404  1.0000
  Br  Br23      1.0  0.56019  0.88257  0.25404  1.0000
  Br  Br24      1.0  0.11743  0.67761  0.25404  1.0000
  Br  Br25      1.0  0.98905  0.77315  0.58738  1.0000
  Br  Br26      1.0  0.22685  0.21591  0.58738  1.0000
  Br  Br27      1.0  0.78409  0.01095  0.58738  1.0000
  Br  Br28      1.0  0.34428  0.89352  0.07929  1.0000
  Br  Br29      1.0  0.10648  0.45076  0.07929  1.0000
  Br  Br30      1.0  0.54924  0.65572  0.07929  1.0000
  Br  Br31      1.0  0.67761  0.56019  0.74596  1.0000
  Br  Br32      1.0  0.43981  0.11743  0.74596  1.0000
  Br  Br33      1.0  0.88257  0.32239  0.74596  1.0000
  Br  Br34      1.0  0.01095  0.22685  0.41262  1.0000
  Br  Br35      1.0  0.77315  0.78409  0.41262  1.0000
  Br  Br36      1.0  0.21591  0.98905  0.41262  1.0000
  C   C109      1.0  0.39660  0.91560  0.89752  1.0000
  C   C110      1.0  0.08440  0.48100  0.89752  1.0000
  C   C111      1.0  0.51900  0.60340  0.89752  1.0000
  C   C112      1.0  0.06327  0.24893  0.23085  1.0000
  C   C113      1.0  0.75107  0.81433  0.23085  1.0000
  C   C114      1.0  0.18567  0.93673  0.23085  1.0000
  C   C115      1.0  0.72993  0.58227  0.56419  1.0000
  C   C116      1.0  0.41773  0.14767  0.56419  1.0000
  C   C117      1.0  0.85233  0.27007  0.56419  1.0000
  C   C118      1.0  0.60340  0.08440  0.10248  1.0000
  C   C119      1.0  0.91560  0.51900  0.10248  1.0000
  C   C120      1.0  0.48100  0.39660  0.10248  1.0000
  C   C121      1.0  0.93673  0.75107  0.76915  1.0000
  C   C122      1.0  0.24893  0.18567  0.76915  1.0000
  C   C123      1.0  0.81433  0.06327  0.76915  1.0000
  C   C124      1.0  0.27007  0.41773  0.43581  1.0000
  C   C125      1.0  0.58227  0.85233  0.43581  1.0000
  C   C126      1.0  0.14767  0.72993  0.43581  1.0000
  Br  Br37      1.0  0.23111  0.89866  0.91151  1.0000
  Br  Br38      1.0  0.10134  0.33245  0.91151  1.0000
  Br  Br39      1.0  0.66755  0.76889  0.91151  1.0000
  Br  Br40      1.0  0.89778  0.23199  0.24484  1.0000
  Br  Br41      1.0  0.76801  0.66578  0.24484  1.0000
  Br  Br42      1.0  0.33422  0.10222  0.24484  1.0000
  Br  Br43      1.0  0.56444  0.56533  0.57818  1.0000
  Br  Br44      1.0  0.43467  0.99912  0.57818  1.0000
  Br  Br45      1.0  0.00088  0.43556  0.57818  1.0000
  Br  Br46      1.0  0.76889  0.10134  0.08849  1.0000
  Br  Br47      1.0  0.89866  0.66755  0.08849  1.0000
  Br  Br48      1.0  0.33245  0.23111  0.08849  1.0000
  Br  Br49      1.0  0.10222  0.76801  0.75516  1.0000
  Br  Br50      1.0  0.23199  0.33422  0.75516  1.0000
  Br  Br51      1.0  0.66578  0.89778  0.75516  1.0000
  Br  Br52      1.0  0.43556  0.43467  0.42182  1.0000
  Br  Br53      1.0  0.56533  0.00088  0.42182  1.0000
  Br  Br54      1.0  0.99912  0.56444  0.42182  1.0000
  Br  Br55      1.0  0.54350  0.89505  0.88722  1.0000
  Br  Br56      1.0  0.10495  0.64845  0.88722  1.0000
  Br  Br57      1.0  0.35155  0.45650  0.88722  1.0000
  Br  Br58      1.0  0.21017  0.22838  0.22055  1.0000
  Br  Br59      1.0  0.77162  0.98178  0.22055  1.0000
  Br  Br60      1.0  0.01822  0.78983  0.22055  1.0000
  Br  Br61      1.0  0.87683  0.56172  0.55389  1.0000
  Br  Br62      1.0  0.43828  0.31512  0.55389  1.0000
  Br  Br63      1.0  0.68488  0.12317  0.55389  1.0000
  Br  Br64      1.0  0.45650  0.10495  0.11278  1.0000
  Br  Br65      1.0  0.89505  0.35155  0.11278  1.0000
  Br  Br66      1.0  0.64845  0.54350  0.11278  1.0000
  Br  Br67      1.0  0.78983  0.77162  0.77945  1.0000
  Br  Br68      1.0  0.22838  0.01822  0.77945  1.0000
  Br  Br69      1.0  0.98178  0.21017  0.77945  1.0000
  Br  Br70      1.0  0.12317  0.43828  0.44611  1.0000
  Br  Br71      1.0  0.56172  0.68488  0.44611  1.0000
  Br  Br72      1.0  0.31512  0.87683  0.44611  1.0000
  C   C127      1.0  0.34660  0.82310  0.87600  1.0000
  C   C128      1.0  0.17690  0.52350  0.87600  1.0000
  C   C129      1.0  0.47650  0.65340  0.87600  1.0000
  C   C130      1.0  0.01327  0.15643  0.20933  1.0000
  C   C131      1.0  0.84357  0.85683  0.20933  1.0000
  C   C132      1.0  0.14317  0.98673  0.20933  1.0000
  C   C133      1.0  0.67993  0.48977  0.54267  1.0000
  C   C134      1.0  0.51023  0.19017  0.54267  1.0000
  C   C135      1.0  0.80983  0.32007  0.54267  1.0000
  C   C136      1.0  0.65340  0.17690  0.12400  1.0000
  C   C137      1.0  0.82310  0.47650  0.12400  1.0000
  C   C138      1.0  0.52350  0.34660  0.12400  1.0000
  C   C139      1.0  0.98673  0.84357  0.79067  1.0000
  C   C140      1.0  0.15643  0.14317  0.79067  1.0000
  C   C141      1.0  0.85683  0.01327  0.79067  1.0000
  C   C142      1.0  0.32007  0.51023  0.45733  1.0000
  C   C143      1.0  0.48977  0.80983  0.45733  1.0000
  C   C144      1.0  0.19017  0.67993  0.45733  1.0000
  O   O55       1.0  0.32910  0.81110  0.82322  1.0000
  O   O56       1.0  0.18890  0.51800  0.82322  1.0000
  O   O57       1.0  0.48200  0.67090  0.82322  1.0000
  O   O58       1.0  0.99577  0.14443  0.15655  1.0000
  O   O59       1.0  0.85557  0.85133  0.15655  1.0000
  O   O60       1.0  0.14867  0.00423  0.15655  1.0000
  O   O61       1.0  0.66243  0.47777  0.48989  1.0000
  O   O62       1.0  0.52223  0.18467  0.48989  1.0000
  O   O63       1.0  0.81533  0.33757  0.48989  1.0000
  O   O64       1.0  0.67090  0.18890  0.17678  1.0000
  O   O65       1.0  0.81110  0.48200  0.17678  1.0000
  O   O66       1.0  0.51800  0.32910  0.17678  1.0000
  O   O67       1.0  0.00423  0.85557  0.84345  1.0000
  O   O68       1.0  0.14443  0.14867  0.84345  1.0000
  O   O69       1.0  0.85133  0.99577  0.84345  1.0000
  O   O70       1.0  0.33757  0.52223  0.51011  1.0000
  O   O71       1.0  0.47777  0.81533  0.51011  1.0000
  O   O72       1.0  0.18467  0.66243  0.51011  1.0000
