data_image0
_chemical_formula_structural       C8Ga8H16O60H4O4P16H4
_chemical_formula_sum              "C8 Ga8 H24 O64 P16"
_cell_length_a       10.183
_cell_length_b       12.525
_cell_length_c       16.295
_cell_angle_alpha    90
_cell_angle_beta     98.218
_cell_angle_gamma    90

_space_group_name_H-M_alt    "P 1"
_space_group_IT_number       1

loop_
  _space_group_symop_operation_xyz
  'x, y, z'

loop_
  _atom_site_type_symbol
  _atom_site_label
  _atom_site_symmetry_multiplicity
  _atom_site_fract_x
  _atom_site_fract_y
  _atom_site_fract_z
  _atom_site_occupancy
  C   C1        1.0  0.99270  0.48860  0.95330  1.0000
  C   C2        1.0  0.00730  0.98860  0.54670  1.0000
  C   C3        1.0  0.00730  0.51140  0.04670  1.0000
  C   C4        1.0  0.99270  0.01140  0.45330  1.0000
  C   C5        1.0  0.01590  0.99830  0.04773  1.0000
  C   C6        1.0  0.98410  0.49830  0.45227  1.0000
  C   C7        1.0  0.98410  0.00170  0.95227  1.0000
  C   C8        1.0  0.01590  0.50170  0.54773  1.0000
  Ga  Ga1       1.0  0.74034  0.98774  0.00983  1.0000
  Ga  Ga2       1.0  0.25966  0.48774  0.49017  1.0000
  Ga  Ga3       1.0  0.25966  0.01226  0.99017  1.0000
  Ga  Ga4       1.0  0.74034  0.51226  0.50983  1.0000
  Ga  Ga5       1.0  0.73333  0.48948  0.99268  1.0000
  Ga  Ga6       1.0  0.26667  0.98948  0.50732  1.0000
  Ga  Ga7       1.0  0.26667  0.51052  0.00732  1.0000
  Ga  Ga8       1.0  0.73333  0.01052  0.49268  1.0000
  H   H1        1.0  0.69900  0.78000  0.86700  1.0000
  H   H2        1.0  0.30100  0.28000  0.63300  1.0000
  H   H3        1.0  0.30100  0.22000  0.13300  1.0000
  H   H4        1.0  0.69900  0.72000  0.36700  1.0000
  H   H5        1.0  0.56800  0.66600  0.10300  1.0000
  H   H6        1.0  0.43200  0.16600  0.39700  1.0000
  H   H7        1.0  0.43200  0.33400  0.89700  1.0000
  H   H8        1.0  0.56800  0.83400  0.60300  1.0000
  H   H9        1.0  0.70200  0.24700  0.90600  1.0000
  H   H10       1.0  0.29800  0.74700  0.59400  1.0000
  H   H11       1.0  0.29800  0.75300  0.09400  1.0000
  H   H12       1.0  0.70200  0.25300  0.40600  1.0000
  H   H13       1.0  0.50400  0.84100  0.07800  1.0000
  H   H14       1.0  0.49600  0.34100  0.42200  1.0000
  H   H15       1.0  0.49600  0.15900  0.92200  1.0000
  H   H16       1.0  0.50400  0.65900  0.57800  1.0000
  O   O1        1.0  0.13550  0.00661  0.07801  1.0000
  O   O2        1.0  0.86450  0.50661  0.42199  1.0000
  O   O3        1.0  0.86450  0.99339  0.92199  1.0000
  O   O4        1.0  0.13550  0.49339  0.57801  1.0000
  O   O5        1.0  0.87710  0.48049  0.91593  1.0000
  O   O6        1.0  0.12290  0.98049  0.58407  1.0000
  O   O7        1.0  0.12290  0.51951  0.08407  1.0000
  O   O8        1.0  0.87710  0.01951  0.41593  1.0000
  O   O9        1.0  0.62310  0.49305  0.07749  1.0000
  O   O10       1.0  0.37690  0.99305  0.42251  1.0000
  O   O11       1.0  0.37690  0.50695  0.92251  1.0000
  O   O12       1.0  0.62310  0.00695  0.57749  1.0000
  O   O13       1.0  0.65500  0.98233  0.10623  1.0000
  O   O14       1.0  0.34500  0.48233  0.39377  1.0000
  O   O15       1.0  0.34500  0.01767  0.89377  1.0000
  O   O16       1.0  0.65500  0.51767  0.60623  1.0000
  O   O17       1.0  0.91900  0.98697  0.08681  1.0000
  O   O18       1.0  0.08100  0.48697  0.41319  1.0000
  O   O19       1.0  0.08100  0.01303  0.91319  1.0000
  O   O20       1.0  0.91900  0.51303  0.58681  1.0000
  O   O21       1.0  0.09830  0.47924  0.92261  1.0000
  O   O22       1.0  0.90170  0.97924  0.57739  1.0000
  O   O23       1.0  0.90170  0.52076  0.07739  1.0000
  O   O24       1.0  0.09830  0.02076  0.42261  1.0000
  O   O25       1.0  0.92000  0.23286  0.94182  1.0000
  O   O26       1.0  0.08000  0.73286  0.55818  1.0000
  O   O27       1.0  0.08000  0.76714  0.05818  1.0000
  O   O28       1.0  0.92000  0.26714  0.44182  1.0000
  O   O29       1.0  0.75090  0.14374  0.02032  1.0000
  O   O30       1.0  0.24910  0.64374  0.47968  1.0000
  O   O31       1.0  0.24910  0.85626  0.97968  1.0000
  O   O32       1.0  0.75090  0.35626  0.52032  1.0000
  O   O33       1.0  0.41090  0.01487  0.07197  1.0000
  O   O34       1.0  0.58910  0.51487  0.42803  1.0000
  O   O35       1.0  0.58910  0.98513  0.92803  1.0000
  O   O36       1.0  0.41090  0.48513  0.57197  1.0000
  O   O37       1.0  0.74710  0.83113  0.00789  1.0000
  O   O38       1.0  0.25290  0.33113  0.49211  1.0000
  O   O39       1.0  0.25290  0.16887  0.99211  1.0000
  O   O40       1.0  0.74710  0.66887  0.50789  1.0000
  O   O41       1.0  0.76830  0.33812  0.02223  1.0000
  O   O42       1.0  0.23170  0.83812  0.47777  1.0000
  O   O43       1.0  0.23170  0.66188  0.97777  1.0000
  O   O44       1.0  0.76830  0.16188  0.52223  1.0000
  O   O45       1.0  0.39250  0.54837  0.09990  1.0000
  O   O46       1.0  0.60750  0.04837  0.40010  1.0000
  O   O47       1.0  0.60750  0.45163  0.90010  1.0000
  O   O48       1.0  0.39250  0.95163  0.59990  1.0000
  O   O49       1.0  0.90920  0.73380  0.93116  1.0000
  O   O50       1.0  0.09080  0.23380  0.56884  1.0000
  O   O51       1.0  0.09080  0.26620  0.06884  1.0000
  O   O52       1.0  0.90920  0.76620  0.43116  1.0000
  O   O53       1.0  0.70800  0.64035  0.97196  1.0000
  O   O54       1.0  0.29200  0.14035  0.52804  1.0000
  O   O55       1.0  0.29200  0.35965  0.02804  1.0000
  O   O56       1.0  0.70800  0.85965  0.47196  1.0000
  O   O57       1.0  0.58170  0.56700  0.21404  1.0000
  O   O58       1.0  0.41830  0.06700  0.28596  1.0000
  O   O59       1.0  0.41830  0.43300  0.78596  1.0000
  O   O60       1.0  0.58170  0.93300  0.71404  1.0000
  H   H17       1.0  0.51690  0.55530  0.23730  1.0000
  H   H18       1.0  0.48310  0.05530  0.26270  1.0000
  H   H19       1.0  0.48310  0.44470  0.76270  1.0000
  H   H20       1.0  0.51690  0.94470  0.73730  1.0000
  O   O61       1.0  0.50180  0.92390  0.20452  1.0000
  O   O62       1.0  0.49820  0.42390  0.29548  1.0000
  O   O63       1.0  0.49820  0.07610  0.79548  1.0000
  O   O64       1.0  0.50180  0.57610  0.70452  1.0000
  P   P1        1.0  0.78390  0.23974  0.96974  1.0000
  P   P2        1.0  0.21610  0.73974  0.53026  1.0000
  P   P3        1.0  0.21610  0.76026  0.03026  1.0000
  P   P4        1.0  0.78390  0.26026  0.46974  1.0000
  P   P5        1.0  0.76216  0.74426  0.94673  1.0000
  P   P6        1.0  0.23784  0.24426  0.55327  1.0000
  P   P7        1.0  0.23784  0.25574  0.05327  1.0000
  P   P8        1.0  0.76216  0.75574  0.44673  1.0000
  P   P9        1.0  0.51746  0.94118  0.11472  1.0000
  P   P10       1.0  0.48254  0.44118  0.38528  1.0000
  P   P11       1.0  0.48254  0.05882  0.88528  1.0000
  P   P12       1.0  0.51746  0.55882  0.61472  1.0000
  P   P13       1.0  0.53923  0.56872  0.12043  1.0000
  P   P14       1.0  0.46077  0.06872  0.37957  1.0000
  P   P15       1.0  0.46077  0.43128  0.87957  1.0000
  P   P16       1.0  0.53923  0.93128  0.62043  1.0000
  H   H21       1.0  0.98500  0.75000  0.98900  1.0000
  H   H22       1.0  0.01500  0.25000  0.51100  1.0000
  H   H23       1.0  0.01500  0.25000  0.01100  1.0000
  H   H24       1.0  0.98500  0.75000  0.48900  1.0000
