data_image0
_chemical_formula_structural       C16Ga16H32O104P24
_chemical_formula_sum              "C16 Ga16 H32 O104 P24"
_cell_length_a       23.4617
_cell_length_b       8.117
_cell_length_c       16.8976
_cell_angle_alpha    90
_cell_angle_beta     112.873
_cell_angle_gamma    90

_space_group_name_H-M_alt    "P 1"
_space_group_IT_number       1

loop_
  _space_group_symop_operation_xyz
  'x, y, z'

loop_
  _atom_site_type_symbol
  _atom_site_label
  _atom_site_symmetry_multiplicity
  _atom_site_fract_x
  _atom_site_fract_y
  _atom_site_fract_z
  _atom_site_occupancy
  C   C1        1.0  0.15688  0.41460  0.59499  1.0000
  C   C2        1.0  0.84312  0.41460  0.90501  1.0000
  C   C3        1.0  0.65688  0.91460  0.59499  1.0000
  C   C4        1.0  0.34312  0.91460  0.90501  1.0000
  C   C5        1.0  0.84312  0.58540  0.40501  1.0000
  C   C6        1.0  0.15688  0.58540  0.09499  1.0000
  C   C7        1.0  0.34312  0.08540  0.40501  1.0000
  C   C8        1.0  0.65688  0.08540  0.09499  1.0000
  C   C9        1.0  0.12966  0.33380  0.65494  1.0000
  C   C10       1.0  0.87034  0.33380  0.84506  1.0000
  C   C11       1.0  0.62966  0.83380  0.65494  1.0000
  C   C12       1.0  0.37034  0.83380  0.84506  1.0000
  C   C13       1.0  0.87034  0.66620  0.34506  1.0000
  C   C14       1.0  0.12966  0.66620  0.15494  1.0000
  C   C15       1.0  0.37034  0.16620  0.34506  1.0000
  C   C16       1.0  0.62966  0.16620  0.15494  1.0000
  Ga  Ga1       1.0  0.16119  0.65777  0.71148  1.0000
  Ga  Ga2       1.0  0.83881  0.65777  0.78852  1.0000
  Ga  Ga3       1.0  0.66119  0.15777  0.71148  1.0000
  Ga  Ga4       1.0  0.33881  0.15777  0.78852  1.0000
  Ga  Ga5       1.0  0.83881  0.34223  0.28852  1.0000
  Ga  Ga6       1.0  0.16119  0.34223  0.21148  1.0000
  Ga  Ga7       1.0  0.33881  0.84223  0.28852  1.0000
  Ga  Ga8       1.0  0.66119  0.84223  0.21148  1.0000
  Ga  Ga9       1.0  0.10343  0.11589  0.51524  1.0000
  Ga  Ga10      1.0  0.89657  0.11589  0.98476  1.0000
  Ga  Ga11      1.0  0.60343  0.61589  0.51524  1.0000
  Ga  Ga12      1.0  0.39657  0.61589  0.98476  1.0000
  Ga  Ga13      1.0  0.89657  0.88411  0.48476  1.0000
  Ga  Ga14      1.0  0.10343  0.88411  0.01524  1.0000
  Ga  Ga15      1.0  0.39657  0.38411  0.48476  1.0000
  Ga  Ga16      1.0  0.60343  0.38411  0.01524  1.0000
  H   H1        1.0  0.03620  0.94300  0.63800  1.0000
  H   H2        1.0  0.96380  0.94300  0.86200  1.0000
  H   H3        1.0  0.53620  0.44300  0.63800  1.0000
  H   H4        1.0  0.46380  0.44300  0.86200  1.0000
  H   H5        1.0  0.96380  0.05700  0.36200  1.0000
  H   H6        1.0  0.03620  0.05700  0.13800  1.0000
  H   H7        1.0  0.46380  0.55700  0.36200  1.0000
  H   H8        1.0  0.53620  0.55700  0.13800  1.0000
  H   H9        1.0  0.26400  0.85200  0.64600  1.0000
  H   H10       1.0  0.73600  0.85200  0.85400  1.0000
  H   H11       1.0  0.76400  0.35200  0.64600  1.0000
  H   H12       1.0  0.23600  0.35200  0.85400  1.0000
  H   H13       1.0  0.73600  0.14800  0.35400  1.0000
  H   H14       1.0  0.26400  0.14800  0.14600  1.0000
  H   H15       1.0  0.23600  0.64800  0.35400  1.0000
  H   H16       1.0  0.76400  0.64800  0.14600  1.0000
  H   H17       1.0  0.20700  0.16000  0.42900  1.0000
  H   H18       1.0  0.79300  0.16000  0.07100  1.0000
  H   H19       1.0  0.70700  0.66000  0.42900  1.0000
  H   H20       1.0  0.29300  0.66000  0.07100  1.0000
  H   H21       1.0  0.79300  0.84000  0.57100  1.0000
  H   H22       1.0  0.20700  0.84000  0.92900  1.0000
  H   H23       1.0  0.29300  0.34000  0.57100  1.0000
  H   H24       1.0  0.70700  0.34000  0.92900  1.0000
  H   H25       1.0  0.16530  0.99300  0.28900  1.0000
  H   H26       1.0  0.83470  0.99300  0.21100  1.0000
  H   H27       1.0  0.66530  0.49300  0.28900  1.0000
  H   H28       1.0  0.33470  0.49300  0.21100  1.0000
  H   H29       1.0  0.83470  0.00700  0.71100  1.0000
  H   H30       1.0  0.16530  0.00700  0.78900  1.0000
  H   H31       1.0  0.33470  0.50700  0.71100  1.0000
  H   H32       1.0  0.66530  0.50700  0.78900  1.0000
  O   O1        1.0  0.13498  0.27570  0.30273  1.0000
  O   O2        1.0  0.86502  0.27570  0.19727  1.0000
  O   O3        1.0  0.63498  0.77570  0.30273  1.0000
  O   O4        1.0  0.36502  0.77570  0.19727  1.0000
  O   O5        1.0  0.86502  0.72430  0.69727  1.0000
  O   O6        1.0  0.13498  0.72430  0.80273  1.0000
  O   O7        1.0  0.36502  0.22430  0.69727  1.0000
  O   O8        1.0  0.63498  0.22430  0.80273  1.0000
  O   O9        1.0  0.10490  0.09770  0.40196  1.0000
  O   O10       1.0  0.89510  0.09770  0.09804  1.0000
  O   O11       1.0  0.60490  0.59770  0.40196  1.0000
  O   O12       1.0  0.39510  0.59770  0.09804  1.0000
  O   O13       1.0  0.89510  0.90230  0.59804  1.0000
  O   O14       1.0  0.10490  0.90230  0.90196  1.0000
  O   O15       1.0  0.39510  0.40230  0.59804  1.0000
  O   O16       1.0  0.60490  0.40230  0.90196  1.0000
  O   O17       1.0  0.25834  0.10530  0.70480  1.0000
  O   O18       1.0  0.74166  0.10530  0.79520  1.0000
  O   O19       1.0  0.75834  0.60530  0.70480  1.0000
  O   O20       1.0  0.24166  0.60530  0.79520  1.0000
  O   O21       1.0  0.74166  0.89470  0.29520  1.0000
  O   O22       1.0  0.25834  0.89470  0.20480  1.0000
  O   O23       1.0  0.24166  0.39470  0.29520  1.0000
  O   O24       1.0  0.75834  0.39470  0.20480  1.0000
  O   O25       1.0  0.18264  0.00900  0.56160  1.0000
  O   O26       1.0  0.81736  0.00900  0.93840  1.0000
  O   O27       1.0  0.68264  0.50900  0.56160  1.0000
  O   O28       1.0  0.31736  0.50900  0.93840  1.0000
  O   O29       1.0  0.81736  0.99100  0.43840  1.0000
  O   O30       1.0  0.18264  0.99100  0.06160  1.0000
  O   O31       1.0  0.31736  0.49100  0.43840  1.0000
  O   O32       1.0  0.68264  0.49100  0.06160  1.0000
  O   O33       1.0  0.97251  0.76160  0.53099  1.0000
  O   O34       1.0  0.02749  0.76160  0.96901  1.0000
  O   O35       1.0  0.47251  0.26160  0.53099  1.0000
  O   O36       1.0  0.52749  0.26160  0.96901  1.0000
  O   O37       1.0  0.02749  0.23840  0.46901  1.0000
  O   O38       1.0  0.97251  0.23840  0.03099  1.0000
  O   O39       1.0  0.52749  0.73840  0.46901  1.0000
  O   O40       1.0  0.47251  0.73840  0.03099  1.0000
  O   O41       1.0  0.07846  0.68540  0.62644  1.0000
  O   O42       1.0  0.92154  0.68540  0.87356  1.0000
  O   O43       1.0  0.57846  0.18540  0.62644  1.0000
  O   O44       1.0  0.42154  0.18540  0.87356  1.0000
  O   O45       1.0  0.92154  0.31460  0.37356  1.0000
  O   O46       1.0  0.07846  0.31460  0.12644  1.0000
  O   O47       1.0  0.42154  0.81460  0.37356  1.0000
  O   O48       1.0  0.57846  0.81460  0.12644  1.0000
  O   O49       1.0  0.10801  0.19280  0.63627  1.0000
  O   O50       1.0  0.89199  0.19280  0.86373  1.0000
  O   O51       1.0  0.60801  0.69280  0.63627  1.0000
  O   O52       1.0  0.39199  0.69280  0.86373  1.0000
  O   O53       1.0  0.89199  0.80720  0.36373  1.0000
  O   O54       1.0  0.10801  0.80720  0.13627  1.0000
  O   O55       1.0  0.39199  0.30720  0.36373  1.0000
  O   O56       1.0  0.60801  0.30720  0.13627  1.0000
  O   O57       1.0  0.18869  0.87350  0.69915  1.0000
  O   O58       1.0  0.81131  0.87350  0.80085  1.0000
  O   O59       1.0  0.68869  0.37350  0.69915  1.0000
  O   O60       1.0  0.31131  0.37350  0.80085  1.0000
  O   O61       1.0  0.81131  0.12650  0.30085  1.0000
  O   O62       1.0  0.18869  0.12650  0.19915  1.0000
  O   O63       1.0  0.31131  0.62650  0.30085  1.0000
  O   O64       1.0  0.68869  0.62650  0.19915  1.0000
  O   O65       1.0  0.06183  0.91470  0.51774  1.0000
  O   O66       1.0  0.93817  0.91470  0.98226  1.0000
  O   O67       1.0  0.56183  0.41470  0.51774  1.0000
  O   O68       1.0  0.43817  0.41470  0.98226  1.0000
  O   O69       1.0  0.93817  0.08530  0.48226  1.0000
  O   O70       1.0  0.06183  0.08530  0.01774  1.0000
  O   O71       1.0  0.43817  0.58530  0.48226  1.0000
  O   O72       1.0  0.56183  0.58530  0.01774  1.0000
  O   O73       1.0  0.15153  0.33400  0.52977  1.0000
  O   O74       1.0  0.84847  0.33400  0.97023  1.0000
  O   O75       1.0  0.65153  0.83400  0.52977  1.0000
  O   O76       1.0  0.34847  0.83400  0.97023  1.0000
  O   O77       1.0  0.84847  0.66600  0.47023  1.0000
  O   O78       1.0  0.15153  0.66600  0.02977  1.0000
  O   O79       1.0  0.34847  0.16600  0.47023  1.0000
  O   O80       1.0  0.65153  0.16600  0.02977  1.0000
  O   O81       1.0  0.18142  0.55270  0.61679  1.0000
  O   O82       1.0  0.81858  0.55270  0.88321  1.0000
  O   O83       1.0  0.68142  0.05270  0.61679  1.0000
  O   O84       1.0  0.31858  0.05270  0.88321  1.0000
  O   O85       1.0  0.81858  0.44730  0.38321  1.0000
  O   O86       1.0  0.18142  0.44730  0.11679  1.0000
  O   O87       1.0  0.31858  0.94730  0.38321  1.0000
  O   O88       1.0  0.68142  0.94730  0.11679  1.0000
  O   O89       1.0  0.13175  0.41830  0.71860  1.0000
  O   O90       1.0  0.86825  0.41830  0.78140  1.0000
  O   O91       1.0  0.63175  0.91830  0.71860  1.0000
  O   O92       1.0  0.36825  0.91830  0.78140  1.0000
  O   O93       1.0  0.86825  0.58170  0.28140  1.0000
  O   O94       1.0  0.13175  0.58170  0.21860  1.0000
  O   O95       1.0  0.36825  0.08170  0.28140  1.0000
  O   O96       1.0  0.63175  0.08170  0.21860  1.0000
  O   O97       1.0  0.16113  0.97270  0.32202  1.0000
  O   O98       1.0  0.83887  0.97270  0.17798  1.0000
  O   O99       1.0  0.66113  0.47270  0.32202  1.0000
  O   O100      1.0  0.33887  0.47270  0.17798  1.0000
  O   O101      1.0  0.83887  0.02730  0.67798  1.0000
  O   O102      1.0  0.16113  0.02730  0.82202  1.0000
  O   O103      1.0  0.33887  0.52730  0.67798  1.0000
  O   O104      1.0  0.66113  0.52730  0.82202  1.0000
  P   P1        1.0  0.03783  0.82632  0.57785  1.0000
  P   P2        1.0  0.96217  0.82632  0.92215  1.0000
  P   P3        1.0  0.53783  0.32632  0.57785  1.0000
  P   P4        1.0  0.46217  0.32632  0.92215  1.0000
  P   P5        1.0  0.96217  0.17368  0.42215  1.0000
  P   P6        1.0  0.03783  0.17368  0.07785  1.0000
  P   P7        1.0  0.46217  0.67368  0.42215  1.0000
  P   P8        1.0  0.53783  0.67368  0.07785  1.0000
  P   P9        1.0  0.22415  0.95907  0.65173  1.0000
  P   P10       1.0  0.77585  0.95907  0.84827  1.0000
  P   P11       1.0  0.72415  0.45907  0.65173  1.0000
  P   P12       1.0  0.27585  0.45907  0.84827  1.0000
  P   P13       1.0  0.77585  0.04093  0.34827  1.0000
  P   P14       1.0  0.22415  0.04093  0.15173  1.0000
  P   P15       1.0  0.27585  0.54093  0.34827  1.0000
  P   P16       1.0  0.72415  0.54093  0.15173  1.0000
  P   P17       1.0  0.15274  0.13455  0.36571  1.0000
  P   P18       1.0  0.84726  0.13455  0.13429  1.0000
  P   P19       1.0  0.65274  0.63455  0.36571  1.0000
  P   P20       1.0  0.34726  0.63455  0.13429  1.0000
  P   P21       1.0  0.84726  0.86545  0.63429  1.0000
  P   P22       1.0  0.15274  0.86545  0.86571  1.0000
  P   P23       1.0  0.34726  0.36545  0.63429  1.0000
  P   P24       1.0  0.65274  0.36545  0.86571  1.0000
