data_image0
_chemical_formula_structural       F12N16C24Li2
_chemical_formula_sum              "F12 N16 C24 Li2"
_cell_length_a       8.28368
_cell_length_b       11.4584
_cell_length_c       12.5792
_cell_angle_alpha    74.9663
_cell_angle_beta     77.5238
_cell_angle_gamma    78.6965

_space_group_name_H-M_alt    "P 1"
_space_group_IT_number       1

loop_
  _space_group_symop_operation_xyz
  'x, y, z'

loop_
  _atom_site_type_symbol
  _atom_site_label
  _atom_site_symmetry_multiplicity
  _atom_site_fract_x
  _atom_site_fract_y
  _atom_site_fract_z
  _atom_site_occupancy
  F   F1        1.0  0.40736  0.89843  0.18475  1.0000
  F   F2        1.0  0.59264  0.10157  0.81525  1.0000
  F   F3        1.0  0.66713  0.89327  0.10942  1.0000
  F   F4        1.0  0.33287  0.10673  0.89058  1.0000
  F   F5        1.0  0.48989  0.87050  0.01697  1.0000
  F   F6        1.0  0.51011  0.12950  0.98303  1.0000
  F   F7        1.0  0.65509  0.93768  0.63472  1.0000
  F   F8        1.0  0.34491  0.06232  0.36528  1.0000
  F   F9        1.0  0.48903  0.80807  0.65276  1.0000
  F   F10       1.0  0.51097  0.19193  0.34724  1.0000
  F   F11       1.0  0.49314  0.88319  0.79112  1.0000
  F   F12       1.0  0.50686  0.11681  0.20888  1.0000
  N   N1        1.0  0.52839  0.65946  0.27473  1.0000
  N   N2        1.0  0.47161  0.34054  0.72527  1.0000
  N   N3        1.0  0.62374  0.63134  0.09668  1.0000
  N   N4        1.0  0.37626  0.36866  0.90332  1.0000
  N   N5        1.0  0.75780  0.32354  0.10121  1.0000
  N   N6        1.0  0.24220  0.67646  0.89879  1.0000
  N   N7        1.0  0.58242  0.36817  0.45872  1.0000
  N   N8        1.0  0.41758  0.63183  0.54128  1.0000
  N   N9        1.0  0.39573  0.13081  0.61261  1.0000
  N   N10       1.0  0.60427  0.86919  0.38739  1.0000
  N   N11       1.0  0.21646  0.99241  0.64164  1.0000
  N   N12       1.0  0.78354  0.00759  0.35836  1.0000
  N   N13       1.0  0.82389  0.16254  0.59196  1.0000
  N   N14       1.0  0.17611  0.83746  0.40804  1.0000
  N   N15       1.0  0.17522  0.42562  0.52498  1.0000
  N   N16       1.0  0.82478  0.57438  0.47502  1.0000
  C   C1        1.0  0.55822  0.70795  0.16430  1.0000
  C   C2        1.0  0.44178  0.29205  0.83570  1.0000
  C   C3        1.0  0.63774  0.52122  0.17043  1.0000
  C   C4        1.0  0.36226  0.47878  0.82957  1.0000
  C   C5        1.0  0.58038  0.53773  0.27888  1.0000
  C   C6        1.0  0.41962  0.46227  0.72112  1.0000
  C   C7        1.0  0.70365  0.41064  0.13326  1.0000
  C   C8        1.0  0.29635  0.58936  0.86674  1.0000
  C   C9        1.0  0.57879  0.44547  0.37993  1.0000
  C   C10       1.0  0.42121  0.55453  0.62007  1.0000
  C   C11       1.0  0.52988  0.84265  0.11841  1.0000
  C   C12       1.0  0.47012  0.15735  0.88159  1.0000
  C   C13       1.0  0.36886  0.01358  0.64221  1.0000
  C   C14       1.0  0.63114  0.98642  0.35779  1.0000
  C   C15       1.0  0.13564  0.10741  0.60774  1.0000
  C   C16       1.0  0.86436  0.89259  0.39226  1.0000
  C   C17       1.0  0.24409  0.19159  0.58999  1.0000
  C   C18       1.0  0.75591  0.80841  0.41001  1.0000
  C   C19       1.0  0.96309  0.13471  0.59769  1.0000
  C   C20       1.0  0.03691  0.86529  0.40231  1.0000
  C   C21       1.0  0.20836  0.32135  0.55378  1.0000
  C   C22       1.0  0.79164  0.67865  0.44622  1.0000
  C   C23       1.0  0.50124  0.91064  0.68008  1.0000
  C   C24       1.0  0.49876  0.08936  0.31992  1.0000
  Li  Li1       1.0  0.57660  0.23544  0.60327  1.0000
  Li  Li2       1.0  0.42340  0.76456  0.39673  1.0000
