data_image0
_chemical_formula_structural       F12N16C24Li2
_chemical_formula_sum              "F12 N16 C24 Li2"
_cell_length_a       8.4241
_cell_length_b       11.6682
_cell_length_c       12.8543
_cell_angle_alpha    73.0547
_cell_angle_beta     74.4505
_cell_angle_gamma    76.756

_space_group_name_H-M_alt    "P 1"
_space_group_IT_number       1

loop_
  _space_group_symop_operation_xyz
  'x, y, z'

loop_
  _atom_site_type_symbol
  _atom_site_label
  _atom_site_symmetry_multiplicity
  _atom_site_fract_x
  _atom_site_fract_y
  _atom_site_fract_z
  _atom_site_occupancy
  F   F1        1.0  0.42315  0.89973  0.18574  1.0000
  F   F2        1.0  0.57685  0.10027  0.81426  1.0000
  F   F3        1.0  0.68087  0.90079  0.10196  1.0000
  F   F4        1.0  0.31913  0.09921  0.89804  1.0000
  F   F5        1.0  0.50854  0.87223  0.01907  1.0000
  F   F6        1.0  0.49146  0.12777  0.98093  1.0000
  F   F7        1.0  0.64896  0.94164  0.63479  1.0000
  F   F8        1.0  0.35104  0.05836  0.36521  1.0000
  F   F9        1.0  0.48819  0.81531  0.65073  1.0000
  F   F10       1.0  0.51181  0.18469  0.34927  1.0000
  F   F11       1.0  0.47905  0.88400  0.78996  1.0000
  F   F12       1.0  0.52095  0.11600  0.21004  1.0000
  N   N1        1.0  0.54819  0.66286  0.27512  1.0000
  N   N2        1.0  0.45181  0.33714  0.72488  1.0000
  N   N3        1.0  0.65447  0.63753  0.09800  1.0000
  N   N4        1.0  0.34553  0.36247  0.90200  1.0000
  N   N5        1.0  0.77871  0.32851  0.10742  1.0000
  N   N6        1.0  0.22129  0.67149  0.89258  1.0000
  N   N7        1.0  0.58428  0.36848  0.45798  1.0000
  N   N8        1.0  0.41572  0.63152  0.54202  1.0000
  N   N9        1.0  0.38941  0.13512  0.61377  1.0000
  N   N10       1.0  0.61059  0.86488  0.38623  1.0000
  N   N11       1.0  0.21376  0.00016  0.64178  1.0000
  N   N12       1.0  0.78624  0.99984  0.35822  1.0000
  N   N13       1.0  0.82317  0.16840  0.59712  1.0000
  N   N14       1.0  0.17683  0.83160  0.40288  1.0000
  N   N15       1.0  0.17258  0.43108  0.52894  1.0000
  N   N16       1.0  0.82742  0.56892  0.47106  1.0000
  C   C1        1.0  0.58467  0.71241  0.16497  1.0000
  C   C2        1.0  0.41533  0.28759  0.83503  1.0000
  C   C3        1.0  0.66474  0.52710  0.17197  1.0000
  C   C4        1.0  0.33526  0.47290  0.82803  1.0000
  C   C5        1.0  0.60076  0.54198  0.27969  1.0000
  C   C6        1.0  0.39924  0.45802  0.72031  1.0000
  C   C7        1.0  0.72888  0.41650  0.13656  1.0000
  C   C8        1.0  0.27112  0.58350  0.86344  1.0000
  C   C9        1.0  0.58937  0.44784  0.38034  1.0000
  C   C10       1.0  0.41063  0.55216  0.61966  1.0000
  C   C11       1.0  0.54936  0.84641  0.11784  1.0000
  C   C12       1.0  0.45064  0.15359  0.88216  1.0000
  C   C13       1.0  0.36394  0.01919  0.64220  1.0000
  C   C14       1.0  0.63606  0.98081  0.35780  1.0000
  C   C15       1.0  0.13306  0.11551  0.60927  1.0000
  C   C16       1.0  0.86694  0.88449  0.39073  1.0000
  C   C17       1.0  0.23926  0.19774  0.59203  1.0000
  C   C18       1.0  0.76074  0.80226  0.40797  1.0000
  C   C19       1.0  0.96167  0.14283  0.60126  1.0000
  C   C20       1.0  0.03833  0.85717  0.39874  1.0000
  C   C21       1.0  0.20441  0.32717  0.55685  1.0000
  C   C22       1.0  0.79559  0.67283  0.44315  1.0000
  C   C23       1.0  0.49497  0.91500  0.67916  1.0000
  C   C24       1.0  0.50503  0.08500  0.32084  1.0000
  Li  Li1       1.0  0.57020  0.23517  0.60449  1.0000
  Li  Li2       1.0  0.42980  0.76483  0.39551  1.0000
