data_image0
_chemical_formula_structural       C96O192Fe16Ni8
_chemical_formula_sum              "C96 O192 Fe16 Ni8"
_cell_length_a       39.306
_cell_length_b       48.696
_cell_length_c       9.505
_cell_angle_alpha    90
_cell_angle_beta     90
_cell_angle_gamma    90

_space_group_name_H-M_alt    "P 1"
_space_group_IT_number       1

loop_
  _space_group_symop_operation_xyz
  'x, y, z'

loop_
  _atom_site_type_symbol
  _atom_site_label
  _atom_site_symmetry_multiplicity
  _atom_site_fract_x
  _atom_site_fract_y
  _atom_site_fract_z
  _atom_site_occupancy
  C   C1        1.0  0.99830  0.12430  0.35450  1.0000
  C   C2        1.0  0.00170  0.87570  0.35450  1.0000
  C   C3        1.0  0.25170  0.37430  0.60450  1.0000
  C   C4        1.0  0.24830  0.12570  0.60450  1.0000
  C   C5        1.0  0.99830  0.62430  0.85450  1.0000
  C   C6        1.0  0.00170  0.37570  0.85450  1.0000
  C   C7        1.0  0.25170  0.87430  0.10450  1.0000
  C   C8        1.0  0.24830  0.62570  0.10450  1.0000
  C   C9        1.0  0.49830  0.12430  0.85450  1.0000
  C   C10       1.0  0.50170  0.87570  0.85450  1.0000
  C   C11       1.0  0.75170  0.37430  0.10450  1.0000
  C   C12       1.0  0.74830  0.12570  0.10450  1.0000
  C   C13       1.0  0.49830  0.62430  0.35450  1.0000
  C   C14       1.0  0.50170  0.37570  0.35450  1.0000
  C   C15       1.0  0.75170  0.87430  0.60450  1.0000
  C   C16       1.0  0.74830  0.62570  0.60450  1.0000
  C   C17       1.0  0.96420  0.12050  0.42490  1.0000
  C   C18       1.0  0.03580  0.87950  0.42490  1.0000
  C   C19       1.0  0.28580  0.37050  0.67490  1.0000
  C   C20       1.0  0.21420  0.12950  0.67490  1.0000
  C   C21       1.0  0.96420  0.62050  0.92490  1.0000
  C   C22       1.0  0.03580  0.37950  0.92490  1.0000
  C   C23       1.0  0.28580  0.87050  0.17490  1.0000
  C   C24       1.0  0.21420  0.62950  0.17490  1.0000
  C   C25       1.0  0.46420  0.12050  0.92490  1.0000
  C   C26       1.0  0.53580  0.87950  0.92490  1.0000
  C   C27       1.0  0.78580  0.37050  0.17490  1.0000
  C   C28       1.0  0.71420  0.12950  0.17490  1.0000
  C   C29       1.0  0.46420  0.62050  0.42490  1.0000
  C   C30       1.0  0.53580  0.37950  0.42490  1.0000
  C   C31       1.0  0.78580  0.87050  0.67490  1.0000
  C   C32       1.0  0.71420  0.62950  0.67490  1.0000
  C   C33       1.0  0.00660  0.04820  0.63100  1.0000
  C   C34       1.0  0.99340  0.95180  0.63100  1.0000
  C   C35       1.0  0.24340  0.29820  0.88100  1.0000
  C   C36       1.0  0.25660  0.20180  0.88100  1.0000
  C   C37       1.0  0.00660  0.54820  0.13100  1.0000
  C   C38       1.0  0.99340  0.45180  0.13100  1.0000
  C   C39       1.0  0.24340  0.79820  0.38100  1.0000
  C   C40       1.0  0.25660  0.70180  0.38100  1.0000
  C   C41       1.0  0.50660  0.04820  0.13100  1.0000
  C   C42       1.0  0.49340  0.95180  0.13100  1.0000
  C   C43       1.0  0.74340  0.29820  0.38100  1.0000
  C   C44       1.0  0.75660  0.20180  0.38100  1.0000
  C   C45       1.0  0.50660  0.54820  0.63100  1.0000
  C   C46       1.0  0.49340  0.45180  0.63100  1.0000
  C   C47       1.0  0.74340  0.79820  0.88100  1.0000
  C   C48       1.0  0.75660  0.70180  0.88100  1.0000
  C   C49       1.0  0.97540  0.03103  0.58440  1.0000
  C   C50       1.0  0.02460  0.96897  0.58440  1.0000
  C   C51       1.0  0.27460  0.28103  0.83440  1.0000
  C   C52       1.0  0.22540  0.21897  0.83440  1.0000
  C   C53       1.0  0.97540  0.53103  0.08440  1.0000
  C   C54       1.0  0.02460  0.46897  0.08440  1.0000
  C   C55       1.0  0.27460  0.78103  0.33440  1.0000
  C   C56       1.0  0.22540  0.71897  0.33440  1.0000
  C   C57       1.0  0.47540  0.03103  0.08440  1.0000
  C   C58       1.0  0.52460  0.96897  0.08440  1.0000
  C   C59       1.0  0.77460  0.28103  0.33440  1.0000
  C   C60       1.0  0.72540  0.21897  0.33440  1.0000
  C   C61       1.0  0.47540  0.53103  0.58440  1.0000
  C   C62       1.0  0.52460  0.46897  0.58440  1.0000
  C   C63       1.0  0.77460  0.78103  0.83440  1.0000
  C   C64       1.0  0.72540  0.71897  0.83440  1.0000
  C   C65       1.0  0.01160  0.03638  0.13930  1.0000
  C   C66       1.0  0.98840  0.96362  0.13930  1.0000
  C   C67       1.0  0.23840  0.28638  0.38930  1.0000
  C   C68       1.0  0.26160  0.21362  0.38930  1.0000
  C   C69       1.0  0.01160  0.53638  0.63930  1.0000
  C   C70       1.0  0.98840  0.46362  0.63930  1.0000
  C   C71       1.0  0.23840  0.78638  0.88930  1.0000
  C   C72       1.0  0.26160  0.71362  0.88930  1.0000
  C   C73       1.0  0.51160  0.03638  0.63930  1.0000
  C   C74       1.0  0.48840  0.96362  0.63930  1.0000
  C   C75       1.0  0.73840  0.28638  0.88930  1.0000
  C   C76       1.0  0.76160  0.21362  0.88930  1.0000
  C   C77       1.0  0.51160  0.53638  0.13930  1.0000
  C   C78       1.0  0.48840  0.46362  0.13930  1.0000
  C   C79       1.0  0.73840  0.78638  0.38930  1.0000
  C   C80       1.0  0.76160  0.71362  0.38930  1.0000
  C   C81       1.0  0.97490  0.04495  0.09550  1.0000
  C   C82       1.0  0.02510  0.95505  0.09550  1.0000
  C   C83       1.0  0.27510  0.29495  0.34550  1.0000
  C   C84       1.0  0.22490  0.20505  0.34550  1.0000
  C   C85       1.0  0.97490  0.54495  0.59550  1.0000
  C   C86       1.0  0.02510  0.45505  0.59550  1.0000
  C   C87       1.0  0.27510  0.79495  0.84550  1.0000
  C   C88       1.0  0.22490  0.70505  0.84550  1.0000
  C   C89       1.0  0.47490  0.04495  0.59550  1.0000
  C   C90       1.0  0.52510  0.95505  0.59550  1.0000
  C   C91       1.0  0.77510  0.29495  0.84550  1.0000
  C   C92       1.0  0.72490  0.20505  0.84550  1.0000
  C   C93       1.0  0.47490  0.54495  0.09550  1.0000
  C   C94       1.0  0.52510  0.45505  0.09550  1.0000
  C   C95       1.0  0.77510  0.79495  0.34550  1.0000
  C   C96       1.0  0.72490  0.70505  0.34550  1.0000
  O   O1        1.0  0.94751  0.14072  0.46700  1.0000
  O   O2        1.0  0.05249  0.85928  0.46700  1.0000
  O   O3        1.0  0.30249  0.39072  0.71700  1.0000
  O   O4        1.0  0.19751  0.10928  0.71700  1.0000
  O   O5        1.0  0.94751  0.64072  0.96700  1.0000
  O   O6        1.0  0.05249  0.35928  0.96700  1.0000
  O   O7        1.0  0.30249  0.89072  0.21700  1.0000
  O   O8        1.0  0.19751  0.60928  0.21700  1.0000
  O   O9        1.0  0.44751  0.14072  0.96700  1.0000
  O   O10       1.0  0.55249  0.85928  0.96700  1.0000
  O   O11       1.0  0.80249  0.39072  0.21700  1.0000
  O   O12       1.0  0.69751  0.10928  0.21700  1.0000
  O   O13       1.0  0.44751  0.64072  0.46700  1.0000
  O   O14       1.0  0.55249  0.35928  0.46700  1.0000
  O   O15       1.0  0.80249  0.89072  0.71700  1.0000
  O   O16       1.0  0.69751  0.60928  0.71700  1.0000
  O   O17       1.0  0.01178  0.14744  0.34540  1.0000
  O   O18       1.0  0.98822  0.85256  0.34540  1.0000
  O   O19       1.0  0.23822  0.39744  0.59540  1.0000
  O   O20       1.0  0.26178  0.10256  0.59540  1.0000
  O   O21       1.0  0.01178  0.64744  0.84540  1.0000
  O   O22       1.0  0.98822  0.35256  0.84540  1.0000
  O   O23       1.0  0.23822  0.89744  0.09540  1.0000
  O   O24       1.0  0.26178  0.60256  0.09540  1.0000
  O   O25       1.0  0.51178  0.14744  0.84540  1.0000
  O   O26       1.0  0.48822  0.85256  0.84540  1.0000
  O   O27       1.0  0.73822  0.39744  0.09540  1.0000
  O   O28       1.0  0.76178  0.10256  0.09540  1.0000
  O   O29       1.0  0.51178  0.64744  0.34540  1.0000
  O   O30       1.0  0.48822  0.35256  0.34540  1.0000
  O   O31       1.0  0.73822  0.89744  0.59540  1.0000
  O   O32       1.0  0.76178  0.60256  0.59540  1.0000
  O   O33       1.0  0.01221  0.10200  0.31110  1.0000
  O   O34       1.0  0.98779  0.89800  0.31110  1.0000
  O   O35       1.0  0.23779  0.35200  0.56110  1.0000
  O   O36       1.0  0.26221  0.14800  0.56110  1.0000
  O   O37       1.0  0.01221  0.60200  0.81110  1.0000
  O   O38       1.0  0.98779  0.39800  0.81110  1.0000
  O   O39       1.0  0.23779  0.85200  0.06110  1.0000
  O   O40       1.0  0.26221  0.64800  0.06110  1.0000
  O   O41       1.0  0.51221  0.10200  0.81110  1.0000
  O   O42       1.0  0.48779  0.89800  0.81110  1.0000
  O   O43       1.0  0.73779  0.35200  0.06110  1.0000
  O   O44       1.0  0.76221  0.14800  0.06110  1.0000
  O   O45       1.0  0.51221  0.60200  0.31110  1.0000
  O   O46       1.0  0.48779  0.39800  0.31110  1.0000
  O   O47       1.0  0.73779  0.85200  0.56110  1.0000
  O   O48       1.0  0.76221  0.64800  0.56110  1.0000
  O   O49       1.0  0.95430  0.09584  0.43590  1.0000
  O   O50       1.0  0.04570  0.90416  0.43590  1.0000
  O   O51       1.0  0.29570  0.34584  0.68590  1.0000
  O   O52       1.0  0.20430  0.15416  0.68590  1.0000
  O   O53       1.0  0.95430  0.59584  0.93590  1.0000
  O   O54       1.0  0.04570  0.40416  0.93590  1.0000
  O   O55       1.0  0.29570  0.84584  0.18590  1.0000
  O   O56       1.0  0.20430  0.65416  0.18590  1.0000
  O   O57       1.0  0.45430  0.09584  0.93590  1.0000
  O   O58       1.0  0.54570  0.90416  0.93590  1.0000
  O   O59       1.0  0.79570  0.34584  0.18590  1.0000
  O   O60       1.0  0.70430  0.15416  0.18590  1.0000
  O   O61       1.0  0.45430  0.59584  0.43590  1.0000
  O   O62       1.0  0.54570  0.40416  0.43590  1.0000
  O   O63       1.0  0.79570  0.84584  0.68590  1.0000
  O   O64       1.0  0.70430  0.65416  0.68590  1.0000
  O   O65       1.0  0.96412  0.03714  0.46340  1.0000
  O   O66       1.0  0.03588  0.96286  0.46340  1.0000
  O   O67       1.0  0.28588  0.28714  0.71340  1.0000
  O   O68       1.0  0.21412  0.21286  0.71340  1.0000
  O   O69       1.0  0.96412  0.53714  0.96340  1.0000
  O   O70       1.0  0.03588  0.46286  0.96340  1.0000
  O   O71       1.0  0.28588  0.78714  0.21340  1.0000
  O   O72       1.0  0.21412  0.71286  0.21340  1.0000
  O   O73       1.0  0.46412  0.03714  0.96340  1.0000
  O   O74       1.0  0.53588  0.96286  0.96340  1.0000
  O   O75       1.0  0.78588  0.28714  0.21340  1.0000
  O   O76       1.0  0.71412  0.21286  0.21340  1.0000
  O   O77       1.0  0.46412  0.53714  0.46340  1.0000
  O   O78       1.0  0.53588  0.46286  0.46340  1.0000
  O   O79       1.0  0.78588  0.78714  0.71340  1.0000
  O   O80       1.0  0.71412  0.71286  0.71340  1.0000
  O   O81       1.0  0.01615  0.06584  0.54070  1.0000
  O   O82       1.0  0.98385  0.93416  0.54070  1.0000
  O   O83       1.0  0.23385  0.31584  0.79070  1.0000
  O   O84       1.0  0.26615  0.18416  0.79070  1.0000
  O   O85       1.0  0.01615  0.56584  0.04070  1.0000
  O   O86       1.0  0.98385  0.43416  0.04070  1.0000
  O   O87       1.0  0.23385  0.81584  0.29070  1.0000
  O   O88       1.0  0.26615  0.68416  0.29070  1.0000
  O   O89       1.0  0.51615  0.06584  0.04070  1.0000
  O   O90       1.0  0.48385  0.93416  0.04070  1.0000
  O   O91       1.0  0.73385  0.31584  0.29070  1.0000
  O   O92       1.0  0.76615  0.18416  0.29070  1.0000
  O   O93       1.0  0.51615  0.56584  0.54070  1.0000
  O   O94       1.0  0.48385  0.43416  0.54070  1.0000
  O   O95       1.0  0.73385  0.81584  0.79070  1.0000
  O   O96       1.0  0.76615  0.68416  0.79070  1.0000
  O   O97       1.0  0.02017  0.04339  0.74230  1.0000
  O   O98       1.0  0.97983  0.95661  0.74230  1.0000
  O   O99       1.0  0.22983  0.29339  0.99230  1.0000
  O   O100      1.0  0.27017  0.20661  0.99230  1.0000
  O   O101      1.0  0.02017  0.54339  0.24230  1.0000
  O   O102      1.0  0.97983  0.45661  0.24230  1.0000
  O   O103      1.0  0.22983  0.79339  0.49230  1.0000
  O   O104      1.0  0.27017  0.70661  0.49230  1.0000
  O   O105      1.0  0.52017  0.04339  0.24230  1.0000
  O   O106      1.0  0.47983  0.95661  0.24230  1.0000
  O   O107      1.0  0.72983  0.29339  0.49230  1.0000
  O   O108      1.0  0.77017  0.20661  0.49230  1.0000
  O   O109      1.0  0.52017  0.54339  0.74230  1.0000
  O   O110      1.0  0.47983  0.45661  0.74230  1.0000
  O   O111      1.0  0.72983  0.79339  0.99230  1.0000
  O   O112      1.0  0.77017  0.70661  0.99230  1.0000
  O   O113      1.0  0.96451  0.01344  0.66220  1.0000
  O   O114      1.0  0.03549  0.98656  0.66220  1.0000
  O   O115      1.0  0.28549  0.26344  0.91220  1.0000
  O   O116      1.0  0.21451  0.23656  0.91220  1.0000
  O   O117      1.0  0.96451  0.51344  0.16220  1.0000
  O   O118      1.0  0.03549  0.48656  0.16220  1.0000
  O   O119      1.0  0.28549  0.76344  0.41220  1.0000
  O   O120      1.0  0.21451  0.73656  0.41220  1.0000
  O   O121      1.0  0.46451  0.01344  0.16220  1.0000
  O   O122      1.0  0.53549  0.98656  0.16220  1.0000
  O   O123      1.0  0.78549  0.26344  0.41220  1.0000
  O   O124      1.0  0.71451  0.23656  0.41220  1.0000
  O   O125      1.0  0.46451  0.51344  0.66220  1.0000
  O   O126      1.0  0.53549  0.48656  0.66220  1.0000
  O   O127      1.0  0.78549  0.76344  0.91220  1.0000
  O   O128      1.0  0.71451  0.73656  0.91220  1.0000
  O   O129      1.0  0.96093  0.06088  0.18500  1.0000
  O   O130      1.0  0.03907  0.93912  0.18500  1.0000
  O   O131      1.0  0.28907  0.31088  0.43500  1.0000
  O   O132      1.0  0.21093  0.18912  0.43500  1.0000
  O   O133      1.0  0.96093  0.56088  0.68500  1.0000
  O   O134      1.0  0.03907  0.43912  0.68500  1.0000
  O   O135      1.0  0.28907  0.81088  0.93500  1.0000
  O   O136      1.0  0.21093  0.68912  0.93500  1.0000
  O   O137      1.0  0.46093  0.06088  0.68500  1.0000
  O   O138      1.0  0.53907  0.93912  0.68500  1.0000
  O   O139      1.0  0.78907  0.31088  0.93500  1.0000
  O   O140      1.0  0.71093  0.18912  0.93500  1.0000
  O   O141      1.0  0.46093  0.56088  0.18500  1.0000
  O   O142      1.0  0.53907  0.43912  0.18500  1.0000
  O   O143      1.0  0.78907  0.81088  0.43500  1.0000
  O   O144      1.0  0.71093  0.68912  0.43500  1.0000
  O   O145      1.0  0.02126  0.04485  0.25950  1.0000
  O   O146      1.0  0.97874  0.95515  0.25950  1.0000
  O   O147      1.0  0.22874  0.29485  0.50950  1.0000
  O   O148      1.0  0.27126  0.20515  0.50950  1.0000
  O   O149      1.0  0.02126  0.54485  0.75950  1.0000
  O   O150      1.0  0.97874  0.45515  0.75950  1.0000
  O   O151      1.0  0.22874  0.79485  0.00950  1.0000
  O   O152      1.0  0.27126  0.70515  0.00950  1.0000
  O   O153      1.0  0.52126  0.04485  0.75950  1.0000
  O   O154      1.0  0.47874  0.95515  0.75950  1.0000
  O   O155      1.0  0.72874  0.29485  0.00950  1.0000
  O   O156      1.0  0.77126  0.20515  0.00950  1.0000
  O   O157      1.0  0.52126  0.54485  0.25950  1.0000
  O   O158      1.0  0.47874  0.45515  0.25950  1.0000
  O   O159      1.0  0.72874  0.79485  0.50950  1.0000
  O   O160      1.0  0.77126  0.70515  0.50950  1.0000
  O   O161      1.0  0.96337  0.03732  0.98400  1.0000
  O   O162      1.0  0.03663  0.96268  0.98400  1.0000
  O   O163      1.0  0.28663  0.28732  0.23400  1.0000
  O   O164      1.0  0.21337  0.21268  0.23400  1.0000
  O   O165      1.0  0.96337  0.53732  0.48400  1.0000
  O   O166      1.0  0.03663  0.46268  0.48400  1.0000
  O   O167      1.0  0.28663  0.78732  0.73400  1.0000
  O   O168      1.0  0.21337  0.71268  0.73400  1.0000
  O   O169      1.0  0.46337  0.03732  0.48400  1.0000
  O   O170      1.0  0.53663  0.96268  0.48400  1.0000
  O   O171      1.0  0.78663  0.28732  0.73400  1.0000
  O   O172      1.0  0.71337  0.21268  0.73400  1.0000
  O   O173      1.0  0.46337  0.53732  0.98400  1.0000
  O   O174      1.0  0.53663  0.46268  0.98400  1.0000
  O   O175      1.0  0.78663  0.78732  0.23400  1.0000
  O   O176      1.0  0.71337  0.71268  0.23400  1.0000
  O   O177      1.0  0.02829  0.02172  0.05900  1.0000
  O   O178      1.0  0.97171  0.97828  0.05900  1.0000
  O   O179      1.0  0.22171  0.27172  0.30900  1.0000
  O   O180      1.0  0.27829  0.22828  0.30900  1.0000
  O   O181      1.0  0.02829  0.52172  0.55900  1.0000
  O   O182      1.0  0.97171  0.47828  0.55900  1.0000
  O   O183      1.0  0.22171  0.77172  0.80900  1.0000
  O   O184      1.0  0.27829  0.72828  0.80900  1.0000
  O   O185      1.0  0.52829  0.02172  0.55900  1.0000
  O   O186      1.0  0.47171  0.97828  0.55900  1.0000
  O   O187      1.0  0.72171  0.27172  0.80900  1.0000
  O   O188      1.0  0.77829  0.22828  0.80900  1.0000
  O   O189      1.0  0.52829  0.52172  0.05900  1.0000
  O   O190      1.0  0.47171  0.47828  0.05900  1.0000
  O   O191      1.0  0.72171  0.77172  0.30900  1.0000
  O   O192      1.0  0.77829  0.72828  0.30900  1.0000
  Fe  Fe1       1.0  0.98746  0.06819  0.36388  1.0000
  Fe  Fe2       1.0  0.01254  0.93181  0.36388  1.0000
  Fe  Fe3       1.0  0.26254  0.31819  0.61388  1.0000
  Fe  Fe4       1.0  0.23746  0.18181  0.61388  1.0000
  Fe  Fe5       1.0  0.98746  0.56819  0.86388  1.0000
  Fe  Fe6       1.0  0.01254  0.43181  0.86388  1.0000
  Fe  Fe7       1.0  0.26254  0.81819  0.11388  1.0000
  Fe  Fe8       1.0  0.23746  0.68181  0.11388  1.0000
  Fe  Fe9       1.0  0.48746  0.06819  0.86388  1.0000
  Fe  Fe10      1.0  0.51254  0.93181  0.86388  1.0000
  Fe  Fe11      1.0  0.76254  0.31819  0.11388  1.0000
  Fe  Fe12      1.0  0.73746  0.18181  0.11388  1.0000
  Fe  Fe13      1.0  0.48746  0.56819  0.36388  1.0000
  Fe  Fe14      1.0  0.51254  0.43181  0.36388  1.0000
  Fe  Fe15      1.0  0.76254  0.81819  0.61388  1.0000
  Fe  Fe16      1.0  0.73746  0.68181  0.61388  1.0000
  Ni  Ni1       1.0  0.00000  0.00000  0.86270  1.0000
  Ni  Ni2       1.0  0.25000  0.25000  0.11270  1.0000
  Ni  Ni3       1.0  0.00000  0.50000  0.36270  1.0000
  Ni  Ni4       1.0  0.25000  0.75000  0.61270  1.0000
  Ni  Ni5       1.0  0.50000  0.00000  0.36270  1.0000
  Ni  Ni6       1.0  0.75000  0.25000  0.61270  1.0000
  Ni  Ni7       1.0  0.50000  0.50000  0.86270  1.0000
  Ni  Ni8       1.0  0.75000  0.75000  0.11270  1.0000
