data_image0
_chemical_formula_structural       In3O24C12
_chemical_formula_sum              "In3 O24 C12"
_cell_length_a       9.025
_cell_length_b       9.025
_cell_length_c       11.343
_cell_angle_alpha    90
_cell_angle_beta     90
_cell_angle_gamma    120

_space_group_name_H-M_alt    "P 1"
_space_group_IT_number       1

loop_
  _space_group_symop_operation_xyz
  'x, y, z'

loop_
  _atom_site_type_symbol
  _atom_site_label
  _atom_site_symmetry_multiplicity
  _atom_site_fract_x
  _atom_site_fract_y
  _atom_site_fract_z
  _atom_site_occupancy
  In  In1       1.0  0.50000  0.50000  0.33330  1.0000
  In  In2       1.0  0.50000  0.00000  0.99997  1.0000
  In  In3       1.0  0.00000  0.50000  0.66663  1.0000
  O   O1        1.0  0.26810  0.34680  0.43860  1.0000
  O   O2        1.0  0.65320  0.92130  0.10527  1.0000
  O   O3        1.0  0.07870  0.73190  0.77193  1.0000
  O   O4        1.0  0.34680  0.26810  0.22807  1.0000
  O   O5        1.0  0.92130  0.65320  0.56140  1.0000
  O   O6        1.0  0.73190  0.07870  0.89473  1.0000
  O   O7        1.0  0.73190  0.65320  0.43860  1.0000
  O   O8        1.0  0.34680  0.07870  0.10527  1.0000
  O   O9        1.0  0.92130  0.26810  0.77193  1.0000
  O   O10       1.0  0.65320  0.73190  0.22807  1.0000
  O   O11       1.0  0.07870  0.34680  0.56140  1.0000
  O   O12       1.0  0.26810  0.92130  0.89473  1.0000
  O   O13       1.0  0.44690  0.68830  0.44460  1.0000
  O   O14       1.0  0.31170  0.75860  0.11127  1.0000
  O   O15       1.0  0.24140  0.55310  0.77793  1.0000
  O   O16       1.0  0.68830  0.44690  0.22207  1.0000
  O   O17       1.0  0.75860  0.31170  0.55540  1.0000
  O   O18       1.0  0.55310  0.24140  0.88873  1.0000
  O   O19       1.0  0.55310  0.31170  0.44460  1.0000
  O   O20       1.0  0.68830  0.24140  0.11127  1.0000
  O   O21       1.0  0.75860  0.44690  0.77793  1.0000
  O   O22       1.0  0.31170  0.55310  0.22207  1.0000
  O   O23       1.0  0.24140  0.68830  0.55540  1.0000
  O   O24       1.0  0.44690  0.75860  0.88873  1.0000
  C   C1        1.0  0.21090  0.42190  0.50000  1.0000
  C   C2        1.0  0.57810  0.78900  0.16667  1.0000
  C   C3        1.0  0.21100  0.78910  0.83333  1.0000
  C   C4        1.0  0.42190  0.21090  0.16667  1.0000
  C   C5        1.0  0.78900  0.57810  0.50000  1.0000
  C   C6        1.0  0.78910  0.21100  0.83333  1.0000
  C   C7        1.0  0.30980  0.61950  0.50000  1.0000
  C   C8        1.0  0.38050  0.69030  0.16667  1.0000
  C   C9        1.0  0.30970  0.69020  0.83333  1.0000
  C   C10       1.0  0.61950  0.30980  0.16667  1.0000
  C   C11       1.0  0.69030  0.38050  0.50000  1.0000
  C   C12       1.0  0.69020  0.30970  0.83333  1.0000
