data_image0
_chemical_formula_structural       C8CdO10H4
_chemical_formula_sum              "C8 Cd1 O10 H4"
_cell_length_a       8.0087
_cell_length_b       8.1857
_cell_length_c       8.3767
_cell_angle_alpha    85.3
_cell_angle_beta     71.493
_cell_angle_gamma    83.153

_space_group_name_H-M_alt    "P 1"
_space_group_IT_number       1

loop_
  _space_group_symop_operation_xyz
  'x, y, z'

loop_
  _atom_site_type_symbol
  _atom_site_label
  _atom_site_symmetry_multiplicity
  _atom_site_fract_x
  _atom_site_fract_y
  _atom_site_fract_z
  _atom_site_occupancy
  C   C1        1.0  0.54290  0.10650  0.52390  1.0000
  C   C2        1.0  0.45710  0.89350  0.47610  1.0000
  C   C3        1.0  0.62590  0.93990  0.48170  1.0000
  C   C4        1.0  0.37410  0.06010  0.51830  1.0000
  C   C5        1.0  0.44760  0.52430  0.90240  1.0000
  C   C6        1.0  0.55240  0.47570  0.09760  1.0000
  C   C7        1.0  0.62720  0.48120  0.91340  1.0000
  C   C8        1.0  0.37280  0.51880  0.08660  1.0000
  Cd  Cd1       1.0  0.50000  0.50000  0.50000  1.0000
  O   O1        1.0  0.59690  0.23510  0.55380  1.0000
  O   O2        1.0  0.40310  0.76490  0.44620  1.0000
  O   O3        1.0  0.77850  0.86880  0.45770  1.0000
  O   O4        1.0  0.22150  0.13120  0.54230  1.0000
  O   O5        1.0  0.38000  0.55450  0.78450  1.0000
  O   O6        1.0  0.62000  0.44550  0.21550  1.0000
  O   O7        1.0  0.77770  0.45950  0.81190  1.0000
  O   O8        1.0  0.22230  0.54050  0.18810  1.0000
  O   O9        1.0  0.77780  0.54090  0.48810  1.0000
  O   O10       1.0  0.22220  0.45910  0.51190  1.0000
  H   H1        1.0  0.77900  0.63870  0.51440  1.0000
  H   H2        1.0  0.22100  0.36130  0.48560  1.0000
  H   H3        1.0  0.81140  0.47310  0.55690  1.0000
  H   H4        1.0  0.18860  0.52690  0.44310  1.0000
