data_image0
_chemical_formula_structural       DyO6C2N2C4H2C2H2C2H2C2
_chemical_formula_sum              "Dy1 O6 C12 N2 H6"
_cell_length_a       4.8645
_cell_length_b       7.817
_cell_length_c       8.8516
_cell_angle_alpha    99.767
_cell_angle_beta     95.304
_cell_angle_gamma    95.424

_space_group_name_H-M_alt    "P 1"
_space_group_IT_number       1

loop_
  _space_group_symop_operation_xyz
  'x, y, z'

loop_
  _atom_site_type_symbol
  _atom_site_label
  _atom_site_symmetry_multiplicity
  _atom_site_fract_x
  _atom_site_fract_y
  _atom_site_fract_z
  _atom_site_occupancy
  Dy  Dy1       1.0  0.50000  0.50000  0.00000  1.0000
  O   O1        1.0  0.18150  0.39090  0.14130  1.0000
  O   O2        1.0  0.81850  0.60910  0.85870  1.0000
  O   O3        1.0  0.71150  0.67850  0.20770  1.0000
  O   O4        1.0  0.28850  0.32150  0.79230  1.0000
  O   O5        1.0  0.74390  0.27780  0.06090  1.0000
  O   O6        1.0  0.25610  0.72220  0.93910  1.0000
  C   C1        1.0  0.88070  0.82550  0.24180  1.0000
  C   C2        1.0  0.11930  0.17450  0.75820  1.0000
  N   N1        1.0  0.29250  0.98990  0.38550  1.0000
  N   N2        1.0  0.70750  0.01010  0.61450  1.0000
  C   C3        1.0  0.97940  0.27350  0.13160  1.0000
  C   C4        1.0  0.02060  0.72650  0.86840  1.0000
  C   C5        1.0  0.25340  0.12540  0.31510  1.0000
  C   C6        1.0  0.74660  0.87460  0.68490  1.0000
  H   H1        1.0  0.38240  0.22440  0.33750  1.0000
  H   H2        1.0  0.61760  0.77560  0.66250  1.0000
  C   C7        1.0  0.11470  0.84260  0.35040  1.0000
  C   C8        1.0  0.88530  0.15740  0.64960  1.0000
  H   H3        1.0  0.14810  0.74940  0.39970  1.0000
  H   H4        1.0  0.85190  0.25060  0.60030  1.0000
  C   C9        1.0  0.83330  0.97140  0.17460  1.0000
  C   C10       1.0  0.16670  0.02860  0.82540  1.0000
  H   H5        1.0  0.67420  0.96820  0.10680  1.0000
  H   H6        1.0  0.32580  0.03180  0.89320  1.0000
  C   C11       1.0  0.02180  0.12030  0.20840  1.0000
  C   C12       1.0  0.97820  0.87970  0.79160  1.0000
