data_image0
_chemical_formula_structural       HoO6C2N2C4H2C2H2C2H2C2
_chemical_formula_sum              "Ho1 O6 C12 N2 H6"
_cell_length_a       4.8826
_cell_length_b       7.8048
_cell_length_c       8.9466
_cell_angle_alpha    99.131
_cell_angle_beta     96.03
_cell_angle_gamma    95.519

_space_group_name_H-M_alt    "P 1"
_space_group_IT_number       1

loop_
  _space_group_symop_operation_xyz
  'x, y, z'

loop_
  _atom_site_type_symbol
  _atom_site_label
  _atom_site_symmetry_multiplicity
  _atom_site_fract_x
  _atom_site_fract_y
  _atom_site_fract_z
  _atom_site_occupancy
  Ho  Ho1       1.0  0.50000  0.50000  0.00000  1.0000
  O   O1        1.0  0.18570  0.39000  0.13700  1.0000
  O   O2        1.0  0.81430  0.61000  0.86300  1.0000
  O   O3        1.0  0.71110  0.67910  0.20420  1.0000
  O   O4        1.0  0.28890  0.32090  0.79580  1.0000
  O   O5        1.0  0.74670  0.28130  0.06100  1.0000
  O   O6        1.0  0.25330  0.71870  0.93900  1.0000
  C   C1        1.0  0.87840  0.82560  0.23950  1.0000
  C   C2        1.0  0.12160  0.17440  0.76050  1.0000
  N   N1        1.0  0.29230  0.98900  0.38370  1.0000
  N   N2        1.0  0.70770  0.01100  0.61630  1.0000
  C   C3        1.0  0.98340  0.27580  0.12920  1.0000
  C   C4        1.0  0.01660  0.72420  0.87080  1.0000
  C   C5        1.0  0.25550  0.12530  0.31420  1.0000
  C   C6        1.0  0.74450  0.87470  0.68580  1.0000
  H   H1        1.0  0.38450  0.22430  0.33720  1.0000
  H   H2        1.0  0.61550  0.77570  0.66280  1.0000
  C   C7        1.0  0.11350  0.84340  0.34850  1.0000
  C   C8        1.0  0.88650  0.15660  0.65150  1.0000
  H   H3        1.0  0.14600  0.75000  0.39820  1.0000
  H   H4        1.0  0.85400  0.25000  0.60180  1.0000
  C   C9        1.0  0.83500  0.97100  0.17280  1.0000
  C   C10       1.0  0.16500  0.02900  0.82720  1.0000
  H   H5        1.0  0.67710  0.96850  0.10430  1.0000
  H   H6        1.0  0.32290  0.03150  0.89570  1.0000
  C   C11       1.0  0.02420  0.12030  0.20720  1.0000
  C   C12       1.0  0.97580  0.87970  0.79280  1.0000
