data_image0
_chemical_formula_structural       Mn16P8O16H4O16H4O64C32
_chemical_formula_sum              "Mn16 P8 O96 H8 C32"
_cell_length_a       15.8041
_cell_length_b       16.2451
_cell_length_c       11.5352
_cell_angle_alpha    90
_cell_angle_beta     93.837
_cell_angle_gamma    90

_space_group_name_H-M_alt    "P 1"
_space_group_IT_number       1

loop_
  _space_group_symop_operation_xyz
  'x, y, z'

loop_
  _atom_site_type_symbol
  _atom_site_label
  _atom_site_symmetry_multiplicity
  _atom_site_fract_x
  _atom_site_fract_y
  _atom_site_fract_z
  _atom_site_occupancy
  Mn  Mn1       1.0  0.80625  0.41538  0.21749  1.0000
  Mn  Mn2       1.0  0.19375  0.91538  0.28251  1.0000
  Mn  Mn3       1.0  0.19375  0.58462  0.78251  1.0000
  Mn  Mn4       1.0  0.80625  0.08462  0.71749  1.0000
  Mn  Mn5       1.0  0.64177  0.53986  0.30518  1.0000
  Mn  Mn6       1.0  0.35823  0.03986  0.19482  1.0000
  Mn  Mn7       1.0  0.35823  0.46014  0.69482  1.0000
  Mn  Mn8       1.0  0.64177  0.96014  0.80518  1.0000
  Mn  Mn9       1.0  0.30920  0.41403  0.19972  1.0000
  Mn  Mn10      1.0  0.69080  0.91403  0.30028  1.0000
  Mn  Mn11      1.0  0.69080  0.58597  0.80028  1.0000
  Mn  Mn12      1.0  0.30920  0.08597  0.69972  1.0000
  Mn  Mn13      1.0  0.14426  0.54177  0.28377  1.0000
  Mn  Mn14      1.0  0.85574  0.04177  0.21623  1.0000
  Mn  Mn15      1.0  0.85574  0.45823  0.71623  1.0000
  Mn  Mn16      1.0  0.14426  0.95823  0.78377  1.0000
  P   P1        1.0  0.24987  0.21556  0.17048  1.0000
  P   P2        1.0  0.75013  0.71556  0.32952  1.0000
  P   P3        1.0  0.75013  0.78444  0.82952  1.0000
  P   P4        1.0  0.24987  0.28444  0.67048  1.0000
  P   P5        1.0  0.24551  0.72191  0.23775  1.0000
  P   P6        1.0  0.75449  0.22191  0.26225  1.0000
  P   P7        1.0  0.75449  0.27809  0.76225  1.0000
  P   P8        1.0  0.24551  0.77809  0.73775  1.0000
  O   O1        1.0  0.26251  0.29994  0.22350  1.0000
  O   O2        1.0  0.73749  0.79994  0.27650  1.0000
  O   O3        1.0  0.73749  0.70006  0.77650  1.0000
  O   O4        1.0  0.26251  0.20006  0.72350  1.0000
  O   O5        1.0  0.31451  0.15535  0.22270  1.0000
  O   O6        1.0  0.68549  0.65535  0.27730  1.0000
  O   O7        1.0  0.68549  0.84465  0.77730  1.0000
  O   O8        1.0  0.31451  0.34465  0.72270  1.0000
  O   O9        1.0  0.24398  0.21493  0.03980  1.0000
  O   O10       1.0  0.75602  0.71493  0.46020  1.0000
  O   O11       1.0  0.75602  0.78507  0.96020  1.0000
  O   O12       1.0  0.24398  0.28507  0.53980  1.0000
  O   O13       1.0  0.15841  0.18866  0.20960  1.0000
  O   O14       1.0  0.84159  0.68866  0.29040  1.0000
  O   O15       1.0  0.84159  0.81134  0.79040  1.0000
  O   O16       1.0  0.15841  0.31134  0.70960  1.0000
  H   H1        1.0  0.15720  0.13860  0.21810  1.0000
  H   H2        1.0  0.84280  0.63860  0.28190  1.0000
  H   H3        1.0  0.84280  0.86140  0.78190  1.0000
  H   H4        1.0  0.15720  0.36140  0.71810  1.0000
  O   O17       1.0  0.17731  0.66323  0.27280  1.0000
  O   O18       1.0  0.82269  0.16323  0.22720  1.0000
  O   O19       1.0  0.82269  0.33677  0.72720  1.0000
  O   O20       1.0  0.17731  0.83677  0.77280  1.0000
  O   O21       1.0  0.24206  0.80061  0.30620  1.0000
  O   O22       1.0  0.75794  0.30061  0.19380  1.0000
  O   O23       1.0  0.75794  0.19939  0.69380  1.0000
  O   O24       1.0  0.24206  0.69939  0.80620  1.0000
  O   O25       1.0  0.24373  0.73353  0.10830  1.0000
  O   O26       1.0  0.75627  0.23353  0.39170  1.0000
  O   O27       1.0  0.75627  0.26647  0.89170  1.0000
  O   O28       1.0  0.24373  0.76647  0.60830  1.0000
  O   O29       1.0  0.33633  0.68390  0.28040  1.0000
  O   O30       1.0  0.66367  0.18390  0.21960  1.0000
  O   O31       1.0  0.66367  0.31610  0.71960  1.0000
  O   O32       1.0  0.33633  0.81610  0.78040  1.0000
  H   H5        1.0  0.33920  0.63610  0.25800  1.0000
  H   H6        1.0  0.66080  0.13610  0.24200  1.0000
  H   H7        1.0  0.66080  0.36390  0.74200  1.0000
  H   H8        1.0  0.33920  0.86390  0.75800  1.0000
  O   O33       1.0  0.74834  0.45888  0.36940  1.0000
  O   O34       1.0  0.25166  0.95888  0.13060  1.0000
  O   O35       1.0  0.25166  0.54112  0.63060  1.0000
  O   O36       1.0  0.74834  0.04112  0.86940  1.0000
  O   O37       1.0  0.84333  0.44284  0.51970  1.0000
  O   O38       1.0  0.15667  0.94284  0.98030  1.0000
  O   O39       1.0  0.15667  0.55716  0.48030  1.0000
  O   O40       1.0  0.84333  0.05716  0.01970  1.0000
  O   O41       1.0  0.65097  0.54878  0.49990  1.0000
  O   O42       1.0  0.34903  0.04878  0.00010  1.0000
  O   O43       1.0  0.34903  0.45122  0.50010  1.0000
  O   O44       1.0  0.65097  0.95122  0.99990  1.0000
  O   O45       1.0  0.74640  0.53316  0.65020  1.0000
  O   O46       1.0  0.25360  0.03316  0.84980  1.0000
  O   O47       1.0  0.25360  0.46684  0.34980  1.0000
  O   O48       1.0  0.74640  0.96684  0.15020  1.0000
  O   O49       1.0  0.56566  0.42592  0.31290  1.0000
  O   O50       1.0  0.43434  0.92592  0.18710  1.0000
  O   O51       1.0  0.43434  0.57408  0.68710  1.0000
  O   O52       1.0  0.56566  0.07408  0.81290  1.0000
  O   O53       1.0  0.43754  0.37705  0.25690  1.0000
  O   O54       1.0  0.56246  0.87705  0.24310  1.0000
  O   O55       1.0  0.56246  0.62295  0.74310  1.0000
  O   O56       1.0  0.43754  0.12295  0.75690  1.0000
  O   O57       1.0  0.51487  0.57802  0.25550  1.0000
  O   O58       1.0  0.48513  0.07802  0.24450  1.0000
  O   O59       1.0  0.48513  0.42198  0.74450  1.0000
  O   O60       1.0  0.51487  0.92198  0.75550  1.0000
  O   O61       1.0  0.38401  0.53219  0.21450  1.0000
  O   O62       1.0  0.61599  0.03219  0.28550  1.0000
  O   O63       1.0  0.61599  0.46781  0.78550  1.0000
  O   O64       1.0  0.38401  0.96781  0.71450  1.0000
  O   O65       1.0  0.32866  0.42335  0.01170  1.0000
  O   O66       1.0  0.67134  0.92335  0.48830  1.0000
  O   O67       1.0  0.67134  0.57665  0.98830  1.0000
  O   O68       1.0  0.32866  0.07665  0.51170  1.0000
  O   O69       1.0  0.29633  0.50360  0.85754  1.0000
  O   O70       1.0  0.70367  0.00360  0.64246  1.0000
  O   O71       1.0  0.70367  0.49640  0.14246  1.0000
  O   O72       1.0  0.29633  0.99640  0.35754  1.0000
  O   O73       1.0  0.20540  0.49599  0.12584  1.0000
  O   O74       1.0  0.79460  0.99599  0.37416  1.0000
  O   O75       1.0  0.79460  0.50401  0.87416  1.0000
  O   O76       1.0  0.20540  0.00401  0.62584  1.0000
  O   O77       1.0  0.16457  0.56611  0.96560  1.0000
  O   O78       1.0  0.83543  0.06611  0.53440  1.0000
  O   O79       1.0  0.83543  0.43389  0.03440  1.0000
  O   O80       1.0  0.16457  0.93389  0.46560  1.0000
  O   O81       1.0  0.06995  0.42700  0.28460  1.0000
  O   O82       1.0  0.93005  0.92700  0.21540  1.0000
  O   O83       1.0  0.93005  0.57300  0.71540  1.0000
  O   O84       1.0  0.06995  0.07300  0.78460  1.0000
  O   O85       1.0  0.93909  0.37838  0.24990  1.0000
  O   O86       1.0  0.06091  0.87838  0.25010  1.0000
  O   O87       1.0  0.06091  0.62162  0.75010  1.0000
  O   O88       1.0  0.93909  0.12162  0.74990  1.0000
  O   O89       1.0  0.01244  0.58032  0.26590  1.0000
  O   O90       1.0  0.98756  0.08032  0.23410  1.0000
  O   O91       1.0  0.98756  0.41968  0.73410  1.0000
  O   O92       1.0  0.01244  0.91968  0.76590  1.0000
  O   O93       1.0  0.87977  0.53364  0.24880  1.0000
  O   O94       1.0  0.12023  0.03364  0.25120  1.0000
  O   O95       1.0  0.12023  0.46636  0.75120  1.0000
  O   O96       1.0  0.87977  0.96636  0.74880  1.0000
  C   C1        1.0  0.77660  0.46960  0.47250  1.0000
  C   C2        1.0  0.22340  0.96960  0.02750  1.0000
  C   C3        1.0  0.22340  0.53040  0.52750  1.0000
  C   C4        1.0  0.77660  0.03040  0.97250  1.0000
  C   C5        1.0  0.71810  0.52310  0.54640  1.0000
  C   C6        1.0  0.28190  0.02310  0.95360  1.0000
  C   C7        1.0  0.28190  0.47690  0.45360  1.0000
  C   C8        1.0  0.71810  0.97690  0.04640  1.0000
  C   C9        1.0  0.49050  0.43330  0.27350  1.0000
  C   C10       1.0  0.50950  0.93330  0.22650  1.0000
  C   C11       1.0  0.50950  0.56670  0.72650  1.0000
  C   C12       1.0  0.49050  0.06670  0.77350  1.0000
  C   C13       1.0  0.46070  0.52290  0.24460  1.0000
  C   C14       1.0  0.53930  0.02290  0.25540  1.0000
  C   C15       1.0  0.53930  0.47710  0.75540  1.0000
  C   C16       1.0  0.46070  0.97710  0.74460  1.0000
  C   C17       1.0  0.28620  0.47750  0.95850  1.0000
  C   C18       1.0  0.71380  0.97750  0.54150  1.0000
  C   C19       1.0  0.71380  0.52250  0.04150  1.0000
  C   C20       1.0  0.28620  0.02250  0.45850  1.0000
  C   C21       1.0  0.21145  0.51790  0.02190  1.0000
  C   C22       1.0  0.78855  0.01790  0.47810  1.0000
  C   C23       1.0  0.78855  0.48210  0.97810  1.0000
  C   C24       1.0  0.21145  0.98210  0.52190  1.0000
  C   C25       1.0  0.99150  0.43480  0.26380  1.0000
  C   C26       1.0  0.00850  0.93480  0.23620  1.0000
  C   C27       1.0  0.00850  0.56520  0.73620  1.0000
  C   C28       1.0  0.99150  0.06520  0.76380  1.0000
  C   C29       1.0  0.95870  0.52470  0.25900  1.0000
  C   C30       1.0  0.04130  0.02470  0.24100  1.0000
  C   C31       1.0  0.04130  0.47530  0.74100  1.0000
  C   C32       1.0  0.95870  0.97530  0.75900  1.0000
