data_image0
_chemical_formula_structural       Mn8P4O12H4O4H4O32C16
_chemical_formula_sum              "Mn8 P4 O48 H8 C16"
_cell_length_a       11.6599
_cell_length_b       10.9336
_cell_length_c       11.7669
_cell_angle_alpha    90
_cell_angle_beta     90
_cell_angle_gamma    90

_space_group_name_H-M_alt    "P 1"
_space_group_IT_number       1

loop_
  _space_group_symop_operation_xyz
  'x, y, z'

loop_
  _atom_site_type_symbol
  _atom_site_label
  _atom_site_symmetry_multiplicity
  _atom_site_fract_x
  _atom_site_fract_y
  _atom_site_fract_z
  _atom_site_occupancy
  Mn  Mn1       1.0  0.28234  0.27214  0.31355  1.0000
  Mn  Mn2       1.0  0.71766  0.72786  0.81355  1.0000
  Mn  Mn3       1.0  0.21766  0.77214  0.81355  1.0000
  Mn  Mn4       1.0  0.78234  0.22786  0.31355  1.0000
  Mn  Mn5       1.0  0.31784  0.74035  0.09830  1.0000
  Mn  Mn6       1.0  0.68216  0.25965  0.59830  1.0000
  Mn  Mn7       1.0  0.18216  0.24035  0.59830  1.0000
  Mn  Mn8       1.0  0.81784  0.75965  0.09830  1.0000
  P   P1        1.0  0.21359  0.97898  0.24598  1.0000
  P   P2        1.0  0.78641  0.02102  0.74598  1.0000
  P   P3        1.0  0.28641  0.47898  0.74598  1.0000
  P   P4        1.0  0.71359  0.52102  0.24598  1.0000
  O   O1        1.0  0.22880  0.11320  0.23850  1.0000
  O   O2        1.0  0.77120  0.88680  0.73850  1.0000
  O   O3        1.0  0.27120  0.61320  0.73850  1.0000
  O   O4        1.0  0.72880  0.38680  0.23850  1.0000
  O   O5        1.0  0.28000  0.90680  0.16290  1.0000
  O   O6        1.0  0.72000  0.09320  0.66290  1.0000
  O   O7        1.0  0.22000  0.40680  0.66290  1.0000
  O   O8        1.0  0.78000  0.59320  0.16290  1.0000
  O   O9        1.0  0.24560  0.92950  0.36740  1.0000
  O   O10       1.0  0.75440  0.07050  0.86740  1.0000
  O   O11       1.0  0.25440  0.42950  0.86740  1.0000
  O   O12       1.0  0.74560  0.57050  0.36740  1.0000
  H   H1        1.0  0.22270  0.97760  0.41580  1.0000
  H   H2        1.0  0.77730  0.02240  0.91580  1.0000
  H   H3        1.0  0.27730  0.47760  0.91580  1.0000
  H   H4        1.0  0.72270  0.52240  0.41580  1.0000
  O   O13       1.0  0.08190  0.95500  0.23070  1.0000
  O   O14       1.0  0.91810  0.04500  0.73070  1.0000
  O   O15       1.0  0.41810  0.45500  0.73070  1.0000
  O   O16       1.0  0.58190  0.54500  0.23070  1.0000
  H   H5        1.0  0.07170  0.88410  0.21050  1.0000
  H   H6        1.0  0.92830  0.11590  0.71050  1.0000
  H   H7        1.0  0.42830  0.38410  0.71050  1.0000
  H   H8        1.0  0.57170  0.61590  0.21050  1.0000
  O   O17       1.0  0.28110  0.35950  0.14520  1.0000
  O   O18       1.0  0.71890  0.64050  0.64520  1.0000
  O   O19       1.0  0.21890  0.85950  0.64520  1.0000
  O   O20       1.0  0.78110  0.14050  0.14520  1.0000
  O   O21       1.0  0.31080  0.53980  0.06060  1.0000
  O   O22       1.0  0.68920  0.46020  0.56060  1.0000
  O   O23       1.0  0.18920  0.03980  0.56060  1.0000
  O   O24       1.0  0.81080  0.96020  0.06060  1.0000
  O   O25       1.0  0.30240  0.46920  0.34830  1.0000
  O   O26       1.0  0.69760  0.53080  0.84830  1.0000
  O   O27       1.0  0.19760  0.96920  0.84830  1.0000
  O   O28       1.0  0.80240  0.03080  0.34830  1.0000
  O   O29       1.0  0.31120  0.65050  0.26190  1.0000
  O   O30       1.0  0.68880  0.34950  0.76190  1.0000
  O   O31       1.0  0.18880  0.15050  0.76190  1.0000
  O   O32       1.0  0.81120  0.84950  0.26190  1.0000
  O   O33       1.0  0.37520  0.77480  0.91970  1.0000
  O   O34       1.0  0.62480  0.22520  0.41970  1.0000
  O   O35       1.0  0.12480  0.27480  0.41970  1.0000
  O   O36       1.0  0.87520  0.72520  0.91970  1.0000
  O   O37       1.0  0.53040  0.76430  0.80860  1.0000
  O   O38       1.0  0.46960  0.23570  0.30860  1.0000
  O   O39       1.0  0.96960  0.26430  0.30860  1.0000
  O   O40       1.0  0.03040  0.73570  0.80860  1.0000
  O   O41       1.0  0.50630  0.74180  0.10310  1.0000
  O   O42       1.0  0.49370  0.25820  0.60310  1.0000
  O   O43       1.0  0.99370  0.24180  0.60310  1.0000
  O   O44       1.0  0.00630  0.75820  0.10310  1.0000
  O   O45       1.0  0.66110  0.76010  0.99240  1.0000
  O   O46       1.0  0.33890  0.23990  0.49240  1.0000
  O   O47       1.0  0.83890  0.26010  0.49240  1.0000
  O   O48       1.0  0.16110  0.73990  0.99240  1.0000
  C   C1        1.0  0.29990  0.47280  0.14640  1.0000
  C   C2        1.0  0.70010  0.52720  0.64640  1.0000
  C   C3        1.0  0.20010  0.97280  0.64640  1.0000
  C   C4        1.0  0.79990  0.02720  0.14640  1.0000
  C   C5        1.0  0.30550  0.53660  0.26420  1.0000
  C   C6        1.0  0.69450  0.46340  0.76420  1.0000
  C   C7        1.0  0.19450  0.03660  0.76420  1.0000
  C   C8        1.0  0.80550  0.96340  0.26420  1.0000
  C   C9        1.0  0.48020  0.76480  0.90160  1.0000
  C   C10       1.0  0.51980  0.23520  0.40160  1.0000
  C   C11       1.0  0.01980  0.26480  0.40160  1.0000
  C   C12       1.0  0.98020  0.73520  0.90160  1.0000
  C   C13       1.0  0.55610  0.75460  0.00820  1.0000
  C   C14       1.0  0.44390  0.24540  0.50820  1.0000
  C   C15       1.0  0.94390  0.25460  0.50820  1.0000
  C   C16       1.0  0.05610  0.74540  0.00820  1.0000
