data_image0
_chemical_formula_structural       Mn6P4O6H2O2H2O8H2O24C12
_chemical_formula_sum              "Mn6 P4 O40 H6 C12"
_cell_length_a       8.0352
_cell_length_b       10.1895
_cell_length_c       16.0266
_cell_angle_alpha    93.349
_cell_angle_beta     94.504
_cell_angle_gamma    92.452

_space_group_name_H-M_alt    "P 1"
_space_group_IT_number       1

loop_
  _space_group_symop_operation_xyz
  'x, y, z'

loop_
  _atom_site_type_symbol
  _atom_site_label
  _atom_site_symmetry_multiplicity
  _atom_site_fract_x
  _atom_site_fract_y
  _atom_site_fract_z
  _atom_site_occupancy
  Mn  Mn1       1.0  0.38842  0.55471  0.13608  1.0000
  Mn  Mn2       1.0  0.61158  0.44529  0.86392  1.0000
  Mn  Mn3       1.0  0.25600  0.06321  0.28629  1.0000
  Mn  Mn4       1.0  0.74400  0.93679  0.71371  1.0000
  Mn  Mn5       1.0  0.55567  0.24448  0.42358  1.0000
  Mn  Mn6       1.0  0.44433  0.75552  0.57642  1.0000
  P   P1        1.0  0.74158  0.41041  0.06410  1.0000
  P   P2        1.0  0.25842  0.58959  0.93590  1.0000
  P   P3        1.0  0.86969  0.16069  0.30598  1.0000
  P   P4        1.0  0.13031  0.83931  0.69402  1.0000
  O   O1        1.0  0.60860  0.48770  0.09627  1.0000
  O   O2        1.0  0.39140  0.51230  0.90373  1.0000
  O   O3        1.0  0.73310  0.38060  0.97172  1.0000
  O   O4        1.0  0.26690  0.61940  0.02828  1.0000
  O   O5        1.0  0.90610  0.49370  0.09650  1.0000
  O   O6        1.0  0.09390  0.50630  0.90350  1.0000
  H   H1        1.0  0.98640  0.46110  0.07600  1.0000
  H   H2        1.0  0.01360  0.53890  0.92400  1.0000
  O   O7        1.0  0.75820  0.27670  0.10360  1.0000
  O   O8        1.0  0.24180  0.72330  0.89640  1.0000
  H   H3        1.0  0.81070  0.28770  0.14960  1.0000
  H   H4        1.0  0.18930  0.71230  0.85040  1.0000
  O   O9        1.0  0.76480  0.17110  0.37964  1.0000
  O   O10       1.0  0.23520  0.82890  0.62036  1.0000
  O   O11       1.0  0.04480  0.12910  0.33444  1.0000
  O   O12       1.0  0.95520  0.87090  0.66556  1.0000
  O   O13       1.0  0.86240  0.28120  0.25503  1.0000
  O   O14       1.0  0.13760  0.71880  0.74497  1.0000
  O   O15       1.0  0.79890  0.03900  0.24428  1.0000
  O   O16       1.0  0.20110  0.96100  0.75572  1.0000
  H   H5        1.0  0.69710  0.03140  0.24510  1.0000
  H   H6        1.0  0.30290  0.96860  0.75490  1.0000
  O   O17       1.0  0.51310  0.74870  0.18150  1.0000
  O   O18       1.0  0.48690  0.25130  0.81850  1.0000
  O   O19       1.0  0.45940  0.95130  0.23096  1.0000
  O   O20       1.0  0.54060  0.04870  0.76904  1.0000
  O   O21       1.0  0.20390  0.66430  0.20875  1.0000
  O   O22       1.0  0.79610  0.33570  0.79125  1.0000
  O   O23       1.0  0.15010  0.86600  0.25732  1.0000
  O   O24       1.0  0.84990  0.13400  0.74268  1.0000
  O   O25       1.0  0.23260  0.36660  0.11926  1.0000
  O   O26       1.0  0.76740  0.63340  0.88074  1.0000
  O   O27       1.0  0.21340  0.16720  0.16862  1.0000
  O   O28       1.0  0.78660  0.83280  0.83138  1.0000
  O   O29       1.0  0.42650  0.45260  0.25792  1.0000
  O   O30       1.0  0.57350  0.54740  0.74208  1.0000
  O   O31       1.0  0.40510  0.25200  0.30612  1.0000
  O   O32       1.0  0.59490  0.74800  0.69388  1.0000
  O   O33       1.0  0.36640  0.35960  0.49034  1.0000
  O   O34       1.0  0.63360  0.64040  0.50966  1.0000
  O   O35       1.0  0.32480  0.56120  0.54315  1.0000
  O   O36       1.0  0.67520  0.43880  0.45685  1.0000
  O   O37       1.0  0.60350  0.14540  0.54306  1.0000
  O   O38       1.0  0.39650  0.85460  0.45694  1.0000
  O   O39       1.0  0.59910  0.94350  0.59060  1.0000
  O   O40       1.0  0.40090  0.05650  0.40940  1.0000
  C   C1        1.0  0.42180  0.83160  0.21120  1.0000
  C   C2        1.0  0.57820  0.16840  0.78880  1.0000
  C   C3        1.0  0.24250  0.78290  0.22707  1.0000
  C   C4        1.0  0.75750  0.21710  0.77293  1.0000
  C   C5        1.0  0.26390  0.28570  0.17290  1.0000
  C   C6        1.0  0.73610  0.71430  0.82710  1.0000
  C   C7        1.0  0.37670  0.33630  0.25250  1.0000
  C   C8        1.0  0.62330  0.66370  0.74750  1.0000
  C   C9        1.0  0.41080  0.47710  0.50997  1.0000
  C   C10       1.0  0.58920  0.52290  0.49003  1.0000
  C   C11       1.0  0.55920  0.02750  0.53855  1.0000
  C   C12       1.0  0.44080  0.97250  0.46145  1.0000
