data_image0
_chemical_formula_structural       Al2Na2C4O8C4O8C4O8
_chemical_formula_sum              "Al2 Na2 C12 O24"
_cell_length_a       10.3476
_cell_length_b       14.6224
_cell_length_c       18.1484
_cell_angle_alpha    90
_cell_angle_beta     93.865
_cell_angle_gamma    90

_space_group_name_H-M_alt    "P 1"
_space_group_IT_number       1

loop_
  _space_group_symop_operation_xyz
  'x, y, z'

loop_
  _atom_site_type_symbol
  _atom_site_label
  _atom_site_symmetry_multiplicity
  _atom_site_fract_x
  _atom_site_fract_y
  _atom_site_fract_z
  _atom_site_occupancy
  Al  Al1       1.0  0.20620  0.57740  0.99227  1.0000
  Al  Al2       1.0  0.79380  0.07740  0.00773  1.0000
  Na  Na1       1.0  0.29100  0.20680  0.00940  1.0000
  Na  Na2       1.0  0.70900  0.70680  0.99060  1.0000
  C   C1        1.0  0.29000  0.41110  0.03720  1.0000
  C   C2        1.0  0.71000  0.91110  0.96280  1.0000
  C   C3        1.0  0.19310  0.39600  0.96780  1.0000
  C   C4        1.0  0.80690  0.89600  0.03220  1.0000
  O   O1        1.0  0.29920  0.49380  0.05670  1.0000
  O   O2        1.0  0.70080  0.99380  0.94330  1.0000
  O   O3        1.0  0.14080  0.46980  0.94410  1.0000
  O   O4        1.0  0.85920  0.96980  0.05590  1.0000
  O   O5        1.0  0.17730  0.31890  0.94120  1.0000
  O   O6        1.0  0.82270  0.81890  0.05880  1.0000
  O   O7        1.0  0.34470  0.34430  0.06780  1.0000
  O   O8        1.0  0.65530  0.84430  0.93220  1.0000
  C   C5        1.0  0.44330  0.61640  0.95160  1.0000
  C   C6        1.0  0.55670  0.11640  0.04840  1.0000
  C   C7        1.0  0.42020  0.67650  0.02200  1.0000
  C   C8        1.0  0.57980  0.17650  0.97800  1.0000
  O   O9        1.0  0.34170  0.57800  0.92620  1.0000
  O   O10       1.0  0.65830  0.07800  0.07380  1.0000
  O   O11       1.0  0.30220  0.67340  0.03980  1.0000
  O   O12       1.0  0.69780  0.17340  0.96020  1.0000
  O   O13       1.0  0.50950  0.72000  0.05290  1.0000
  O   O14       1.0  0.49050  0.22000  0.94710  1.0000
  O   O15       1.0  0.55260  0.61350  0.92920  1.0000
  O   O16       1.0  0.44740  0.11350  0.07080  1.0000
  C   C9        1.0  0.96130  0.60820  0.02630  1.0000
  C   C10       1.0  0.03870  0.10820  0.97370  1.0000
  C   C11       1.0  0.97720  0.65430  0.94910  1.0000
  C   C12       1.0  0.02280  0.15430  0.05090  1.0000
  O   O17       1.0  0.06880  0.58190  0.05700  1.0000
  O   O18       1.0  0.93120  0.08190  0.94300  1.0000
  O   O19       1.0  0.09520  0.65100  0.93100  1.0000
  O   O20       1.0  0.90480  0.15100  0.06900  1.0000
  O   O21       1.0  0.88510  0.68930  0.91370  1.0000
  O   O22       1.0  0.11490  0.18930  0.08630  1.0000
  O   O23       1.0  0.85390  0.60330  0.05100  1.0000
  O   O24       1.0  0.14610  0.10330  0.94900  1.0000
