data_image0
_chemical_formula_structural       Cd4O36H8O4H8N8C32
_chemical_formula_sum              "Cd4 O40 H16 N8 C32"
_cell_length_a       16.885
_cell_length_b       9.639
_cell_length_c       14.91
_cell_angle_alpha    90
_cell_angle_beta     113.828
_cell_angle_gamma    90

_space_group_name_H-M_alt    "P 1"
_space_group_IT_number       1

loop_
  _space_group_symop_operation_xyz
  'x, y, z'

loop_
  _atom_site_type_symbol
  _atom_site_label
  _atom_site_symmetry_multiplicity
  _atom_site_fract_x
  _atom_site_fract_y
  _atom_site_fract_z
  _atom_site_occupancy
  Cd  Cd1       1.0  0.40302  0.62506  0.99734  1.0000
  Cd  Cd2       1.0  0.59698  0.12506  0.50266  1.0000
  Cd  Cd3       1.0  0.59698  0.37494  0.00266  1.0000
  Cd  Cd4       1.0  0.40302  0.87494  0.49734  1.0000
  O   O1        1.0  0.48581  0.39659  0.05743  1.0000
  O   O2        1.0  0.51419  0.89659  0.44257  1.0000
  O   O3        1.0  0.51419  0.60341  0.94257  1.0000
  O   O4        1.0  0.48581  0.10341  0.55743  1.0000
  O   O5        1.0  0.54700  0.28612  0.20331  1.0000
  O   O6        1.0  0.45300  0.78612  0.29669  1.0000
  O   O7        1.0  0.45300  0.71388  0.79669  1.0000
  O   O8        1.0  0.54700  0.21388  0.70331  1.0000
  O   O9        1.0  0.51471  0.28766  0.39175  1.0000
  O   O10       1.0  0.48529  0.78766  0.10825  1.0000
  O   O11       1.0  0.48529  0.71234  0.60825  1.0000
  O   O12       1.0  0.51471  0.21234  0.89175  1.0000
  O   O13       1.0  0.43846  0.11621  0.29254  1.0000
  O   O14       1.0  0.56154  0.61621  0.20746  1.0000
  O   O15       1.0  0.56154  0.88379  0.70746  1.0000
  O   O16       1.0  0.43846  0.38379  0.79254  1.0000
  O   O17       1.0  0.19661  0.58242  0.28090  1.0000
  O   O18       1.0  0.80339  0.08242  0.21910  1.0000
  O   O19       1.0  0.80339  0.41758  0.71910  1.0000
  O   O20       1.0  0.19661  0.91758  0.78090  1.0000
  O   O21       1.0  0.12919  0.42545  0.16253  1.0000
  O   O22       1.0  0.87081  0.92545  0.33747  1.0000
  O   O23       1.0  0.87081  0.57455  0.83747  1.0000
  O   O24       1.0  0.12919  0.07455  0.66253  1.0000
  O   O25       1.0  0.18180  0.71287  0.08121  1.0000
  O   O26       1.0  0.81820  0.21287  0.41879  1.0000
  O   O27       1.0  0.81820  0.28713  0.91879  1.0000
  O   O28       1.0  0.18180  0.78713  0.58121  1.0000
  O   O29       1.0  0.26952  0.71151  0.00163  1.0000
  O   O30       1.0  0.73048  0.21151  0.49837  1.0000
  O   O31       1.0  0.73048  0.28849  0.99837  1.0000
  O   O32       1.0  0.26952  0.78849  0.50163  1.0000
  O   O33       1.0  0.32459  0.49110  0.86370  1.0000
  O   O34       1.0  0.67541  0.99110  0.63630  1.0000
  O   O35       1.0  0.67541  0.50890  0.13630  1.0000
  O   O36       1.0  0.32459  0.00890  0.36370  1.0000
  H   H1        1.0  0.27860  0.53300  0.82700  1.0000
  H   H2        1.0  0.72140  0.03300  0.67300  1.0000
  H   H3        1.0  0.72140  0.46700  0.17300  1.0000
  H   H4        1.0  0.27860  0.96700  0.32700  1.0000
  H   H5        1.0  0.35890  0.46700  0.83800  1.0000
  H   H6        1.0  0.64110  0.96700  0.66200  1.0000
  H   H7        1.0  0.64110  0.53300  0.16200  1.0000
  H   H8        1.0  0.35890  0.03300  0.33800  1.0000
  O   O37       1.0  0.36561  0.81950  0.89469  1.0000
  O   O38       1.0  0.63439  0.31950  0.60531  1.0000
  O   O39       1.0  0.63439  0.18050  0.10531  1.0000
  O   O40       1.0  0.36561  0.68050  0.39469  1.0000
  H   H9        1.0  0.38900  0.79500  0.85600  1.0000
  H   H10       1.0  0.61100  0.29500  0.64400  1.0000
  H   H11       1.0  0.61100  0.20500  0.14400  1.0000
  H   H12       1.0  0.38900  0.70500  0.35600  1.0000
  H   H13       1.0  0.31190  0.83700  0.86790  1.0000
  H   H14       1.0  0.68810  0.33700  0.63210  1.0000
  H   H15       1.0  0.68810  0.16300  0.13210  1.0000
  H   H16       1.0  0.31190  0.66300  0.36790  1.0000
  N   N1        1.0  0.36495  0.50790  0.11187  1.0000
  N   N2        1.0  0.63505  0.00790  0.38813  1.0000
  N   N3        1.0  0.63505  0.49210  0.88813  1.0000
  N   N4        1.0  0.36495  0.99210  0.61187  1.0000
  N   N5        1.0  0.32810  0.37940  0.25635  1.0000
  N   N6        1.0  0.67190  0.87940  0.24365  1.0000
  N   N7        1.0  0.67190  0.62060  0.74365  1.0000
  N   N8        1.0  0.32810  0.12060  0.75635  1.0000
  C   C1        1.0  0.49077  0.35940  0.14126  1.0000
  C   C2        1.0  0.50923  0.85940  0.35874  1.0000
  C   C3        1.0  0.50923  0.64060  0.85874  1.0000
  C   C4        1.0  0.49077  0.14060  0.64126  1.0000
  C   C5        1.0  0.41712  0.40700  0.16700  1.0000
  C   C6        1.0  0.58288  0.90700  0.33300  1.0000
  C   C7        1.0  0.58288  0.59300  0.83300  1.0000
  C   C8        1.0  0.41712  0.09300  0.66700  1.0000
  C   C9        1.0  0.39946  0.34770  0.24238  1.0000
  C   C10       1.0  0.60054  0.84770  0.25762  1.0000
  C   C11       1.0  0.60054  0.65230  0.75762  1.0000
  C   C12       1.0  0.39946  0.15230  0.74238  1.0000
  C   C13       1.0  0.27539  0.47710  0.19857  1.0000
  C   C14       1.0  0.72461  0.97710  0.30143  1.0000
  C   C15       1.0  0.72461  0.52290  0.80143  1.0000
  C   C16       1.0  0.27539  0.02290  0.69857  1.0000
  C   C17       1.0  0.29616  0.54790  0.12841  1.0000
  C   C18       1.0  0.70384  0.04790  0.37159  1.0000
  C   C19       1.0  0.70384  0.45210  0.87159  1.0000
  C   C20       1.0  0.29616  0.95210  0.62841  1.0000
  C   C21       1.0  0.24463  0.66780  0.06500  1.0000
  C   C22       1.0  0.75537  0.16780  0.43500  1.0000
  C   C23       1.0  0.75537  0.33220  0.93500  1.0000
  C   C24       1.0  0.24463  0.83220  0.56500  1.0000
  C   C25       1.0  0.45644  0.24040  0.31295  1.0000
  C   C26       1.0  0.54356  0.74040  0.18705  1.0000
  C   C27       1.0  0.54356  0.75960  0.68705  1.0000
  C   C28       1.0  0.45644  0.25960  0.81295  1.0000
  C   C29       1.0  0.19336  0.50010  0.21540  1.0000
  C   C30       1.0  0.80664  0.00010  0.28460  1.0000
  C   C31       1.0  0.80664  0.49990  0.78460  1.0000
  C   C32       1.0  0.19336  0.99990  0.71540  1.0000
