data_image0
_chemical_formula_structural       U6P6O40H2O4C6H4C2H4C2H4C2H4
_chemical_formula_sum              "U6 P6 O44 H18 C12"
_cell_length_a       10.5063
_cell_length_b       10.8858
_cell_length_c       15.6464
_cell_angle_alpha    105.564
_cell_angle_beta     95.246
_cell_angle_gamma    104.024

_space_group_name_H-M_alt    "P 1"
_space_group_IT_number       1

loop_
  _space_group_symop_operation_xyz
  'x, y, z'

loop_
  _atom_site_type_symbol
  _atom_site_label
  _atom_site_symmetry_multiplicity
  _atom_site_fract_x
  _atom_site_fract_y
  _atom_site_fract_z
  _atom_site_occupancy
  U   U1        1.0  0.45838  0.75295  0.02581  1.0000
  U   U2        1.0  0.54162  0.24705  0.97419  1.0000
  U   U3        1.0  0.09950  0.68273  0.65623  1.0000
  U   U4        1.0  0.90050  0.31727  0.34377  1.0000
  U   U5        1.0  0.16952  0.15137  0.69050  1.0000
  U   U6        1.0  0.83048  0.84863  0.30950  1.0000
  P   P1        1.0  0.71609  0.59765  0.08870  1.0000
  P   P2        1.0  0.28391  0.40235  0.91130  1.0000
  P   P3        1.0  0.26015  0.97426  0.83683  1.0000
  P   P4        1.0  0.73985  0.02574  0.16317  1.0000
  P   P5        1.0  0.97820  0.66669  0.43670  1.0000
  P   P6        1.0  0.02180  0.33331  0.56330  1.0000
  O   O1        1.0  0.98000  0.72050  0.72320  1.0000
  O   O2        1.0  0.02000  0.27950  0.27680  1.0000
  O   O3        1.0  0.22180  0.64470  0.59030  1.0000
  O   O4        1.0  0.77820  0.35530  0.40970  1.0000
  O   O5        1.0  0.38130  0.70420  0.11260  1.0000
  O   O6        1.0  0.61870  0.29580  0.88740  1.0000
  O   O7        1.0  0.34350  0.18450  0.68810  1.0000
  O   O8        1.0  0.65650  0.81550  0.31190  1.0000
  O   O9        1.0  0.14870  0.02910  0.52890  1.0000
  O   O10       1.0  0.85130  0.97090  0.47110  1.0000
  O   O11       1.0  0.52940  0.79580  0.93640  1.0000
  O   O12       1.0  0.47060  0.20420  0.06360  1.0000
  O   O13       1.0  0.33050  0.92150  0.04520  1.0000
  O   O14       1.0  0.66950  0.07850  0.95480  1.0000
  O   O15       1.0  0.17880  0.05230  0.80020  1.0000
  O   O16       1.0  0.82120  0.94770  0.19980  1.0000
  O   O17       1.0  0.99550  0.11550  0.69260  1.0000
  O   O18       1.0  0.00450  0.88450  0.30740  1.0000
  O   O19       1.0  0.86550  0.70060  0.38740  1.0000
  O   O20       1.0  0.13450  0.29940  0.61260  1.0000
  O   O21       1.0  0.24160  0.73950  0.93660  1.0000
  O   O22       1.0  0.75840  0.26050  0.06340  1.0000
  O   O23       1.0  0.25880  0.84590  0.76610  1.0000
  O   O24       1.0  0.74120  0.15410  0.23390  1.0000
  O   O25       1.0  0.13830  0.89980  0.61530  1.0000
  O   O26       1.0  0.86170  0.10020  0.38470  1.0000
  O   O27       1.0  0.40280  0.05450  0.87610  1.0000
  O   O28       1.0  0.59720  0.94550  0.12390  1.0000
  O   O29       1.0  0.00690  0.54210  0.37930  1.0000
  O   O30       1.0  0.99310  0.45790  0.62070  1.0000
  O   O31       1.0  0.19140  0.58810  0.76630  1.0000
  O   O32       1.0  0.80860  0.41190  0.23370  1.0000
  O   O33       1.0  0.78850  0.65910  0.18540  1.0000
  O   O34       1.0  0.21150  0.34090  0.81460  1.0000
  O   O35       1.0  0.63720  0.68180  0.05810  1.0000
  O   O36       1.0  0.36280  0.31820  0.94190  1.0000
  O   O37       1.0  0.85420  0.75070  0.94020  1.0000
  O   O38       1.0  0.14580  0.24930  0.05980  1.0000
  O   O39       1.0  0.00810  0.80120  0.05790  1.0000
  O   O40       1.0  0.99190  0.19880  0.94210  1.0000
  H   H1        1.0  0.04150  0.76100  0.08700  1.0000
  H   H2        1.0  0.95850  0.23900  0.91300  1.0000
  O   O41       1.0  0.95130  0.65710  0.52920  1.0000
  O   O42       1.0  0.04870  0.34290  0.47080  1.0000
  O   O43       1.0  0.63100  0.45690  0.07280  1.0000
  O   O44       1.0  0.36900  0.54310  0.92720  1.0000
  C   C1        1.0  0.13910  0.91570  0.53720  1.0000
  C   C2        1.0  0.86090  0.08430  0.46280  1.0000
  C   C3        1.0  0.25000  0.85950  0.97160  1.0000
  C   C4        1.0  0.75000  0.14050  0.02840  1.0000
  C   C5        1.0  0.17750  0.93170  0.92580  1.0000
  C   C6        1.0  0.82250  0.06830  0.07420  1.0000
  H   H3        1.0  0.17250  0.01210  0.96930  1.0000
  H   H4        1.0  0.82750  0.98790  0.03070  1.0000
  H   H5        1.0  0.08740  0.87650  0.90060  1.0000
  H   H6        1.0  0.91260  0.12350  0.09940  1.0000
  C   C7        1.0  0.13270  0.80000  0.45840  1.0000
  C   C8        1.0  0.86730  0.20000  0.54160  1.0000
  H   H7        1.0  0.14050  0.82960  0.40540  1.0000
  H   H8        1.0  0.85950  0.17040  0.59460  1.0000
  H   H9        1.0  0.20750  0.76540  0.46900  1.0000
  H   H10       1.0  0.79250  0.23460  0.53100  1.0000
  C   C9        1.0  0.84410  0.58560  0.01720  1.0000
  C   C10       1.0  0.15590  0.41440  0.98280  1.0000
  H   H11       1.0  0.91440  0.55940  0.04600  1.0000
  H   H12       1.0  0.08560  0.44060  0.95400  1.0000
  H   H13       1.0  0.80540  0.51810  0.96000  1.0000
  H   H14       1.0  0.19460  0.48190  0.04000  1.0000
  C   C11       1.0  0.90220  0.71820  0.00090  1.0000
  C   C12       1.0  0.09780  0.28180  0.99910  1.0000
  H   H15       1.0  0.17600  0.52200  0.76500  1.0000
  H   H16       1.0  0.82400  0.47800  0.23500  1.0000
  H   H17       1.0  0.18600  0.63400  0.82800  1.0000
  H   H18       1.0  0.81400  0.36600  0.17200  1.0000
