data_image0
_chemical_formula_structural       Cd4I12C36O4H8O24
_chemical_formula_sum              "Cd4 I12 C36 O28 H8"
_cell_length_a       9.9134
_cell_length_b       15.6147
_cell_length_c       15.7186
_cell_angle_alpha    90
_cell_angle_beta     104.067
_cell_angle_gamma    90

_space_group_name_H-M_alt    "P 1"
_space_group_IT_number       1

loop_
  _space_group_symop_operation_xyz
  'x, y, z'

loop_
  _atom_site_type_symbol
  _atom_site_label
  _atom_site_symmetry_multiplicity
  _atom_site_fract_x
  _atom_site_fract_y
  _atom_site_fract_z
  _atom_site_occupancy
  Cd  Cd1       1.0  0.21494  0.93339  0.15247  1.0000
  Cd  Cd2       1.0  0.78506  0.43339  0.34753  1.0000
  Cd  Cd3       1.0  0.78506  0.06661  0.84753  1.0000
  Cd  Cd4       1.0  0.21494  0.56661  0.65247  1.0000
  I   I1        1.0  0.69872  0.88940  0.12202  1.0000
  I   I2        1.0  0.30128  0.38940  0.37798  1.0000
  I   I3        1.0  0.30128  0.11060  0.87798  1.0000
  I   I4        1.0  0.69872  0.61060  0.62202  1.0000
  I   I5        1.0  0.07308  0.17707  0.30282  1.0000
  I   I6        1.0  0.92692  0.67707  0.19718  1.0000
  I   I7        1.0  0.92692  0.82293  0.69718  1.0000
  I   I8        1.0  0.07308  0.32293  0.80282  1.0000
  I   I9        1.0  0.48741  0.15128  0.34323  1.0000
  I   I10       1.0  0.51259  0.65128  0.15677  1.0000
  I   I11       1.0  0.51259  0.84872  0.65677  1.0000
  I   I12       1.0  0.48741  0.34872  0.84323  1.0000
  C   C1        1.0  0.98740  0.00060  0.19450  1.0000
  C   C2        1.0  0.01260  0.50060  0.30550  1.0000
  C   C3        1.0  0.01260  0.99940  0.80550  1.0000
  C   C4        1.0  0.98740  0.49940  0.69450  1.0000
  C   C5        1.0  0.86520  0.03670  0.22510  1.0000
  C   C6        1.0  0.13480  0.53670  0.27490  1.0000
  C   C7        1.0  0.13480  0.96330  0.77490  1.0000
  C   C8        1.0  0.86520  0.46330  0.72510  1.0000
  C   C9        1.0  0.73400  0.99740  0.20530  1.0000
  C   C10       1.0  0.26600  0.49740  0.29470  1.0000
  C   C11       1.0  0.26600  0.00260  0.79470  1.0000
  C   C12       1.0  0.73400  0.50260  0.70530  1.0000
  C   C13       1.0  0.62450  0.02950  0.23790  1.0000
  C   C14       1.0  0.37550  0.52950  0.26210  1.0000
  C   C15       1.0  0.37550  0.97050  0.76210  1.0000
  C   C16       1.0  0.62450  0.47050  0.73790  1.0000
  C   C17       1.0  0.64800  0.10260  0.29010  1.0000
  C   C18       1.0  0.35200  0.60260  0.20990  1.0000
  C   C19       1.0  0.35200  0.89740  0.70990  1.0000
  C   C20       1.0  0.64800  0.39740  0.79010  1.0000
  C   C21       1.0  0.77490  0.14520  0.30920  1.0000
  C   C22       1.0  0.22510  0.64520  0.19080  1.0000
  C   C23       1.0  0.22510  0.85480  0.69080  1.0000
  C   C24       1.0  0.77490  0.35480  0.80920  1.0000
  C   C25       1.0  0.88280  0.11070  0.27620  1.0000
  C   C26       1.0  0.11720  0.61070  0.22380  1.0000
  C   C27       1.0  0.11720  0.88930  0.72380  1.0000
  C   C28       1.0  0.88280  0.38930  0.77620  1.0000
  C   C29       1.0  0.79410  0.22970  0.35870  1.0000
  C   C30       1.0  0.20590  0.72970  0.14130  1.0000
  C   C31       1.0  0.20590  0.77030  0.64130  1.0000
  C   C32       1.0  0.79410  0.27030  0.85870  1.0000
  C   C33       1.0  0.48070  0.98870  0.21510  1.0000
  C   C34       1.0  0.51930  0.48870  0.28490  1.0000
  C   C35       1.0  0.51930  0.01130  0.78490  1.0000
  C   C36       1.0  0.48070  0.51130  0.71510  1.0000
  O   O1        1.0  0.16800  0.89370  0.01240  1.0000
  O   O2        1.0  0.83200  0.39370  0.48760  1.0000
  O   O3        1.0  0.83200  0.10630  0.98760  1.0000
  O   O4        1.0  0.16800  0.60630  0.51240  1.0000
  H   H1        1.0  0.11600  0.92100  0.97000  1.0000
  H   H2        1.0  0.88400  0.42100  0.53000  1.0000
  H   H3        1.0  0.88400  0.07900  0.03000  1.0000
  H   H4        1.0  0.11600  0.57900  0.47000  1.0000
  H   H5        1.0  0.16000  0.83940  0.01400  1.0000
  H   H6        1.0  0.84000  0.33940  0.48600  1.0000
  H   H7        1.0  0.84000  0.16060  0.98600  1.0000
  H   H8        1.0  0.16000  0.66060  0.51400  1.0000
  O   O5        1.0  0.06740  0.95100  0.24530  1.0000
  O   O6        1.0  0.93260  0.45100  0.25470  1.0000
  O   O7        1.0  0.93260  0.04900  0.75470  1.0000
  O   O8        1.0  0.06740  0.54900  0.74530  1.0000
  O   O9        1.0  0.00750  0.02260  0.12200  1.0000
  O   O10       1.0  0.99250  0.52260  0.37800  1.0000
  O   O11       1.0  0.99250  0.97740  0.87800  1.0000
  O   O12       1.0  0.00750  0.47740  0.62200  1.0000
  O   O13       1.0  0.45590  0.92980  0.26210  1.0000
  O   O14       1.0  0.54410  0.42980  0.23790  1.0000
  O   O15       1.0  0.54410  0.07020  0.73790  1.0000
  O   O16       1.0  0.45590  0.57020  0.76210  1.0000
  O   O17       1.0  0.39460  0.01880  0.15120  1.0000
  O   O18       1.0  0.60540  0.51880  0.34880  1.0000
  O   O19       1.0  0.60540  0.98120  0.84880  1.0000
  O   O20       1.0  0.39460  0.48120  0.65120  1.0000
  O   O21       1.0  0.75990  0.29434  0.30977  1.0000
  O   O22       1.0  0.24010  0.79434  0.19023  1.0000
  O   O23       1.0  0.24010  0.70566  0.69023  1.0000
  O   O24       1.0  0.75990  0.20566  0.80977  1.0000
  O   O25       1.0  0.83960  0.22850  0.43915  1.0000
  O   O26       1.0  0.16040  0.72850  0.06085  1.0000
  O   O27       1.0  0.16040  0.77150  0.56085  1.0000
  O   O28       1.0  0.83960  0.27150  0.93915  1.0000
