data_image0
_chemical_formula_structural       Co8P8O32H8O24H16C8H8C8
_chemical_formula_sum              "Co8 P8 O56 H32 C16"
_cell_length_a       21.831
_cell_length_b       9.1032
_cell_length_c       11.776
_cell_angle_alpha    90
_cell_angle_beta     120.469
_cell_angle_gamma    90

_space_group_name_H-M_alt    "P 1"
_space_group_IT_number       1

loop_
  _space_group_symop_operation_xyz
  'x, y, z'

loop_
  _atom_site_type_symbol
  _atom_site_label
  _atom_site_symmetry_multiplicity
  _atom_site_fract_x
  _atom_site_fract_y
  _atom_site_fract_z
  _atom_site_occupancy
  Co  Co1       1.0  0.19644  0.95871  0.57518  1.0000
  Co  Co2       1.0  0.80356  0.95871  0.92482  1.0000
  Co  Co3       1.0  0.69644  0.45871  0.57518  1.0000
  Co  Co4       1.0  0.30356  0.45871  0.92482  1.0000
  Co  Co5       1.0  0.80356  0.04129  0.42482  1.0000
  Co  Co6       1.0  0.19644  0.04129  0.07518  1.0000
  Co  Co7       1.0  0.30356  0.54129  0.42482  1.0000
  Co  Co8       1.0  0.69644  0.54129  0.07518  1.0000
  P   P1        1.0  0.33837  0.74346  0.67117  1.0000
  P   P2        1.0  0.66163  0.74346  0.82883  1.0000
  P   P3        1.0  0.83837  0.24346  0.67117  1.0000
  P   P4        1.0  0.16163  0.24346  0.82883  1.0000
  P   P5        1.0  0.66163  0.25654  0.32883  1.0000
  P   P6        1.0  0.33837  0.25654  0.17117  1.0000
  P   P7        1.0  0.16163  0.75654  0.32883  1.0000
  P   P8        1.0  0.83837  0.75654  0.17117  1.0000
  O   O1        1.0  0.30389  0.89210  0.66310  1.0000
  O   O2        1.0  0.69611  0.89210  0.83690  1.0000
  O   O3        1.0  0.80389  0.39210  0.66310  1.0000
  O   O4        1.0  0.19611  0.39210  0.83690  1.0000
  O   O5        1.0  0.69611  0.10790  0.33690  1.0000
  O   O6        1.0  0.30389  0.10790  0.16310  1.0000
  O   O7        1.0  0.19611  0.60790  0.33690  1.0000
  O   O8        1.0  0.80389  0.60790  0.16310  1.0000
  O   O9        1.0  0.34426  0.71060  0.55080  1.0000
  O   O10       1.0  0.65574  0.71060  0.94920  1.0000
  O   O11       1.0  0.84426  0.21060  0.55080  1.0000
  O   O12       1.0  0.15574  0.21060  0.94920  1.0000
  O   O13       1.0  0.65574  0.28940  0.44920  1.0000
  O   O14       1.0  0.34426  0.28940  0.05080  1.0000
  O   O15       1.0  0.15574  0.78940  0.44920  1.0000
  O   O16       1.0  0.84426  0.78940  0.05080  1.0000
  O   O17       1.0  0.40934  0.72530  0.79820  1.0000
  O   O18       1.0  0.59066  0.72530  0.70180  1.0000
  O   O19       1.0  0.90934  0.22530  0.79820  1.0000
  O   O20       1.0  0.09066  0.22530  0.70180  1.0000
  O   O21       1.0  0.59066  0.27470  0.20180  1.0000
  O   O22       1.0  0.40934  0.27470  0.29820  1.0000
  O   O23       1.0  0.09066  0.77470  0.20180  1.0000
  O   O24       1.0  0.90934  0.77470  0.29820  1.0000
  O   O25       1.0  0.27202  0.62840  0.79050  1.0000
  O   O26       1.0  0.72798  0.62840  0.70950  1.0000
  O   O27       1.0  0.77202  0.12840  0.79050  1.0000
  O   O28       1.0  0.22798  0.12840  0.70950  1.0000
  O   O29       1.0  0.72798  0.37160  0.20950  1.0000
  O   O30       1.0  0.27202  0.37160  0.29050  1.0000
  O   O31       1.0  0.22798  0.87160  0.20950  1.0000
  O   O32       1.0  0.77202  0.87160  0.29050  1.0000
  H   H1        1.0  0.24740  0.70070  0.78040  1.0000
  H   H2        1.0  0.75260  0.70070  0.71960  1.0000
  H   H3        1.0  0.74740  0.20070  0.78040  1.0000
  H   H4        1.0  0.25260  0.20070  0.71960  1.0000
  H   H5        1.0  0.75260  0.29930  0.21960  1.0000
  H   H6        1.0  0.24740  0.29930  0.28040  1.0000
  H   H7        1.0  0.25260  0.79930  0.21960  1.0000
  H   H8        1.0  0.74740  0.79930  0.28040  1.0000
  O   O33       1.0  0.30914  0.36450  0.76450  1.0000
  O   O34       1.0  0.69086  0.36450  0.73550  1.0000
  O   O35       1.0  0.80914  0.86450  0.76450  1.0000
  O   O36       1.0  0.19086  0.86450  0.73550  1.0000
  O   O37       1.0  0.69086  0.63550  0.23550  1.0000
  O   O38       1.0  0.30914  0.63550  0.26450  1.0000
  O   O39       1.0  0.19086  0.13550  0.23550  1.0000
  O   O40       1.0  0.80914  0.13550  0.26450  1.0000
  O   O41       1.0  0.30177  0.40860  0.57260  1.0000
  O   O42       1.0  0.69823  0.40860  0.92740  1.0000
  O   O43       1.0  0.80177  0.90860  0.57260  1.0000
  O   O44       1.0  0.19823  0.90860  0.92740  1.0000
  O   O45       1.0  0.69823  0.59140  0.42740  1.0000
  O   O46       1.0  0.30177  0.59140  0.07260  1.0000
  O   O47       1.0  0.19823  0.09140  0.42740  1.0000
  O   O48       1.0  0.80177  0.09140  0.07260  1.0000
  O   O49       1.0  0.09223  0.04030  0.50600  1.0000
  O   O50       1.0  0.90777  0.04030  0.99400  1.0000
  O   O51       1.0  0.59223  0.54030  0.50600  1.0000
  O   O52       1.0  0.40777  0.54030  0.99400  1.0000
  O   O53       1.0  0.90777  0.95970  0.49400  1.0000
  O   O54       1.0  0.09223  0.95970  0.00600  1.0000
  O   O55       1.0  0.40777  0.45970  0.49400  1.0000
  O   O56       1.0  0.59223  0.45970  0.00600  1.0000
  H   H9        1.0  0.06350  0.99850  0.43360  1.0000
  H   H10       1.0  0.93650  0.99850  0.06640  1.0000
  H   H11       1.0  0.56350  0.49850  0.43360  1.0000
  H   H12       1.0  0.43650  0.49850  0.06640  1.0000
  H   H13       1.0  0.93650  0.00150  0.56640  1.0000
  H   H14       1.0  0.06350  0.00150  0.93360  1.0000
  H   H15       1.0  0.43650  0.50150  0.56640  1.0000
  H   H16       1.0  0.56350  0.50150  0.93360  1.0000
  H   H17       1.0  0.09180  0.13240  0.49380  1.0000
  H   H18       1.0  0.90820  0.13240  0.00620  1.0000
  H   H19       1.0  0.59180  0.63240  0.49380  1.0000
  H   H20       1.0  0.40820  0.63240  0.00620  1.0000
  H   H21       1.0  0.90820  0.86760  0.50620  1.0000
  H   H22       1.0  0.09180  0.86760  0.99380  1.0000
  H   H23       1.0  0.40820  0.36760  0.50620  1.0000
  H   H24       1.0  0.59180  0.36760  0.99380  1.0000
  C   C1        1.0  0.27724  0.60680  0.67470  1.0000
  C   C2        1.0  0.72276  0.60680  0.82530  1.0000
  C   C3        1.0  0.77724  0.10680  0.67470  1.0000
  C   C4        1.0  0.22276  0.10680  0.82530  1.0000
  C   C5        1.0  0.72276  0.39320  0.32530  1.0000
  C   C6        1.0  0.27724  0.39320  0.17470  1.0000
  C   C7        1.0  0.22276  0.89320  0.32530  1.0000
  C   C8        1.0  0.77724  0.89320  0.17470  1.0000
  H   H25       1.0  0.23010  0.62300  0.59740  1.0000
  H   H26       1.0  0.76990  0.62300  0.90260  1.0000
  H   H27       1.0  0.73010  0.12300  0.59740  1.0000
  H   H28       1.0  0.26990  0.12300  0.90260  1.0000
  H   H29       1.0  0.76990  0.37700  0.40260  1.0000
  H   H30       1.0  0.23010  0.37700  0.09740  1.0000
  H   H31       1.0  0.26990  0.87700  0.40260  1.0000
  H   H32       1.0  0.73010  0.87700  0.09740  1.0000
  C   C9        1.0  0.29842  0.44960  0.67140  1.0000
  C   C10       1.0  0.70158  0.44960  0.82860  1.0000
  C   C11       1.0  0.79842  0.94960  0.67140  1.0000
  C   C12       1.0  0.20158  0.94960  0.82860  1.0000
  C   C13       1.0  0.70158  0.55040  0.32860  1.0000
  C   C14       1.0  0.29842  0.55040  0.17140  1.0000
  C   C15       1.0  0.20158  0.05040  0.32860  1.0000
  C   C16       1.0  0.79842  0.05040  0.17140  1.0000
