data_image0
_chemical_formula_structural       Zn8P8O32H8O24H16C8H8C8
_chemical_formula_sum              "Zn8 P8 O56 H32 C16"
_cell_length_a       21.942
_cell_length_b       9.112
_cell_length_c       11.714
_cell_angle_alpha    90
_cell_angle_beta     120.039
_cell_angle_gamma    90

_space_group_name_H-M_alt    "P 1"
_space_group_IT_number       1

loop_
  _space_group_symop_operation_xyz
  'x, y, z'

loop_
  _atom_site_type_symbol
  _atom_site_label
  _atom_site_symmetry_multiplicity
  _atom_site_fract_x
  _atom_site_fract_y
  _atom_site_fract_z
  _atom_site_occupancy
  Zn  Zn1       1.0  0.30339  0.04476  0.92633  1.0000
  Zn  Zn2       1.0  0.69661  0.04476  0.57367  1.0000
  Zn  Zn3       1.0  0.80339  0.54476  0.92633  1.0000
  Zn  Zn4       1.0  0.19661  0.54476  0.57367  1.0000
  Zn  Zn5       1.0  0.69661  0.95524  0.07367  1.0000
  Zn  Zn6       1.0  0.30339  0.95524  0.42633  1.0000
  Zn  Zn7       1.0  0.19661  0.45524  0.07367  1.0000
  Zn  Zn8       1.0  0.80339  0.45524  0.42633  1.0000
  P   P1        1.0  0.33846  0.24515  0.17101  1.0000
  P   P2        1.0  0.66154  0.24515  0.32899  1.0000
  P   P3        1.0  0.83846  0.74515  0.17101  1.0000
  P   P4        1.0  0.16154  0.74515  0.32899  1.0000
  P   P5        1.0  0.66154  0.75485  0.82899  1.0000
  P   P6        1.0  0.33846  0.75485  0.67101  1.0000
  P   P7        1.0  0.16154  0.25485  0.82899  1.0000
  P   P8        1.0  0.83846  0.25485  0.67101  1.0000
  O   O1        1.0  0.34353  0.21340  0.04930  1.0000
  O   O2        1.0  0.65647  0.21340  0.45070  1.0000
  O   O3        1.0  0.84353  0.71340  0.04930  1.0000
  O   O4        1.0  0.15647  0.71340  0.45070  1.0000
  O   O5        1.0  0.65647  0.78660  0.95070  1.0000
  O   O6        1.0  0.34353  0.78660  0.54930  1.0000
  O   O7        1.0  0.15647  0.28660  0.95070  1.0000
  O   O8        1.0  0.84353  0.28660  0.54930  1.0000
  O   O9        1.0  0.30386  0.39290  0.16360  1.0000
  O   O10       1.0  0.69614  0.39290  0.33640  1.0000
  O   O11       1.0  0.80386  0.89290  0.16360  1.0000
  O   O12       1.0  0.19614  0.89290  0.33640  1.0000
  O   O13       1.0  0.69614  0.60710  0.83640  1.0000
  O   O14       1.0  0.30386  0.60710  0.66360  1.0000
  O   O15       1.0  0.19614  0.10710  0.83640  1.0000
  O   O16       1.0  0.80386  0.10710  0.66360  1.0000
  O   O17       1.0  0.40900  0.22820  0.29760  1.0000
  O   O18       1.0  0.59100  0.22820  0.20240  1.0000
  O   O19       1.0  0.90900  0.72820  0.29760  1.0000
  O   O20       1.0  0.09100  0.72820  0.20240  1.0000
  O   O21       1.0  0.59100  0.77180  0.70240  1.0000
  O   O22       1.0  0.40900  0.77180  0.79760  1.0000
  O   O23       1.0  0.09100  0.27180  0.70240  1.0000
  O   O24       1.0  0.90900  0.27180  0.79760  1.0000
  O   O25       1.0  0.27440  0.12970  0.29430  1.0000
  O   O26       1.0  0.72560  0.12970  0.20570  1.0000
  O   O27       1.0  0.77440  0.62970  0.29430  1.0000
  O   O28       1.0  0.22560  0.62970  0.20570  1.0000
  O   O29       1.0  0.72560  0.87030  0.70570  1.0000
  O   O30       1.0  0.27440  0.87030  0.79430  1.0000
  O   O31       1.0  0.22560  0.37030  0.70570  1.0000
  O   O32       1.0  0.77440  0.37030  0.79430  1.0000
  H   H1        1.0  0.24940  0.20100  0.28460  1.0000
  H   H2        1.0  0.75060  0.20100  0.21540  1.0000
  H   H3        1.0  0.74940  0.70100  0.28460  1.0000
  H   H4        1.0  0.25060  0.70100  0.21540  1.0000
  H   H5        1.0  0.75060  0.79900  0.71540  1.0000
  H   H6        1.0  0.24940  0.79900  0.78460  1.0000
  H   H7        1.0  0.25060  0.29900  0.71540  1.0000
  H   H8        1.0  0.74940  0.29900  0.78460  1.0000
  O   O33       1.0  0.30881  0.86440  0.26440  1.0000
  O   O34       1.0  0.69119  0.86440  0.23560  1.0000
  O   O35       1.0  0.80881  0.36440  0.26440  1.0000
  O   O36       1.0  0.19119  0.36440  0.23560  1.0000
  O   O37       1.0  0.69119  0.13560  0.73560  1.0000
  O   O38       1.0  0.30881  0.13560  0.76440  1.0000
  O   O39       1.0  0.19119  0.63560  0.73560  1.0000
  O   O40       1.0  0.80881  0.63560  0.76440  1.0000
  O   O41       1.0  0.30187  0.90920  0.07230  1.0000
  O   O42       1.0  0.69813  0.90920  0.42770  1.0000
  O   O43       1.0  0.80187  0.40920  0.07230  1.0000
  O   O44       1.0  0.19813  0.40920  0.42770  1.0000
  O   O45       1.0  0.69813  0.09080  0.92770  1.0000
  O   O46       1.0  0.30187  0.09080  0.57230  1.0000
  O   O47       1.0  0.19813  0.59080  0.92770  1.0000
  O   O48       1.0  0.80187  0.59080  0.57230  1.0000
  O   O49       1.0  0.40830  0.96230  0.99640  1.0000
  O   O50       1.0  0.59170  0.96230  0.50360  1.0000
  O   O51       1.0  0.90830  0.46230  0.99640  1.0000
  O   O52       1.0  0.09170  0.46230  0.50360  1.0000
  O   O53       1.0  0.59170  0.03770  0.00360  1.0000
  O   O54       1.0  0.40830  0.03770  0.49640  1.0000
  O   O55       1.0  0.09170  0.53770  0.00360  1.0000
  O   O56       1.0  0.90830  0.53770  0.49640  1.0000
  H   H9        1.0  0.42500  0.00090  0.95180  1.0000
  H   H10       1.0  0.57500  0.00090  0.54820  1.0000
  H   H11       1.0  0.92500  0.50090  0.95180  1.0000
  H   H12       1.0  0.07500  0.50090  0.54820  1.0000
  H   H13       1.0  0.57500  0.99910  0.04820  1.0000
  H   H14       1.0  0.42500  0.99910  0.45180  1.0000
  H   H15       1.0  0.07500  0.49910  0.04820  1.0000
  H   H16       1.0  0.92500  0.49910  0.45180  1.0000
  H   H17       1.0  0.40690  0.86960  0.98720  1.0000
  H   H18       1.0  0.59310  0.86960  0.51280  1.0000
  H   H19       1.0  0.90690  0.36960  0.98720  1.0000
  H   H20       1.0  0.09310  0.36960  0.51280  1.0000
  H   H21       1.0  0.59310  0.13040  0.01280  1.0000
  H   H22       1.0  0.40690  0.13040  0.48720  1.0000
  H   H23       1.0  0.09310  0.63040  0.01280  1.0000
  H   H24       1.0  0.90690  0.63040  0.48720  1.0000
  C   C1        1.0  0.27860  0.10830  0.17710  1.0000
  C   C2        1.0  0.72140  0.10830  0.32290  1.0000
  C   C3        1.0  0.77860  0.60830  0.17710  1.0000
  C   C4        1.0  0.22140  0.60830  0.32290  1.0000
  C   C5        1.0  0.72140  0.89170  0.82290  1.0000
  C   C6        1.0  0.27860  0.89170  0.67710  1.0000
  C   C7        1.0  0.22140  0.39170  0.82290  1.0000
  C   C8        1.0  0.77860  0.39170  0.67710  1.0000
  H   H25       1.0  0.23160  0.12530  0.10120  1.0000
  H   H26       1.0  0.76840  0.12530  0.39880  1.0000
  H   H27       1.0  0.73160  0.62530  0.10120  1.0000
  H   H28       1.0  0.26840  0.62530  0.39880  1.0000
  H   H29       1.0  0.76840  0.87470  0.89880  1.0000
  H   H30       1.0  0.23160  0.87470  0.60120  1.0000
  H   H31       1.0  0.26840  0.37470  0.89880  1.0000
  H   H32       1.0  0.73160  0.37470  0.60120  1.0000
  C   C9        1.0  0.29850  0.94950  0.17140  1.0000
  C   C10       1.0  0.70150  0.94950  0.32860  1.0000
  C   C11       1.0  0.79850  0.44950  0.17140  1.0000
  C   C12       1.0  0.20150  0.44950  0.32860  1.0000
  C   C13       1.0  0.70150  0.05050  0.82860  1.0000
  C   C14       1.0  0.29850  0.05050  0.67140  1.0000
  C   C15       1.0  0.20150  0.55050  0.82860  1.0000
  C   C16       1.0  0.79850  0.55050  0.67140  1.0000
