data_image0
_chemical_formula_structural       Ni8P8O32H8O24H16C8H8C8
_chemical_formula_sum              "Ni8 P8 O56 H32 C16"
_cell_length_a       21.796
_cell_length_b       9.106
_cell_length_c       11.603
_cell_angle_alpha    90
_cell_angle_beta     119.955
_cell_angle_gamma    90

_space_group_name_H-M_alt    "P 1"
_space_group_IT_number       1

loop_
  _space_group_symop_operation_xyz
  'x, y, z'

loop_
  _atom_site_type_symbol
  _atom_site_label
  _atom_site_symmetry_multiplicity
  _atom_site_fract_x
  _atom_site_fract_y
  _atom_site_fract_z
  _atom_site_occupancy
  Ni  Ni1       1.0  0.30294  0.54007  0.92515  1.0000
  Ni  Ni2       1.0  0.69707  0.54007  0.57485  1.0000
  Ni  Ni3       1.0  0.80293  0.04007  0.92515  1.0000
  Ni  Ni4       1.0  0.19706  0.04007  0.57485  1.0000
  Ni  Ni5       1.0  0.69707  0.45993  0.07485  1.0000
  Ni  Ni6       1.0  0.30294  0.45993  0.42515  1.0000
  Ni  Ni7       1.0  0.19706  0.95993  0.07485  1.0000
  Ni  Ni8       1.0  0.80293  0.95993  0.42515  1.0000
  P   P1        1.0  0.33701  0.74579  0.16956  1.0000
  P   P2        1.0  0.66299  0.74579  0.33044  1.0000
  P   P3        1.0  0.83701  0.24579  0.16956  1.0000
  P   P4        1.0  0.16299  0.24579  0.33044  1.0000
  P   P5        1.0  0.66299  0.25421  0.83044  1.0000
  P   P6        1.0  0.33701  0.25421  0.66956  1.0000
  P   P7        1.0  0.16299  0.75421  0.83044  1.0000
  P   P8        1.0  0.83701  0.75421  0.66956  1.0000
  O   O1        1.0  0.34247  0.71140  0.04750  1.0000
  O   O2        1.0  0.65753  0.71140  0.45250  1.0000
  O   O3        1.0  0.84247  0.21140  0.04750  1.0000
  O   O4        1.0  0.15753  0.21140  0.45250  1.0000
  O   O5        1.0  0.65753  0.28860  0.95250  1.0000
  O   O6        1.0  0.34247  0.28860  0.54750  1.0000
  O   O7        1.0  0.15753  0.78860  0.95250  1.0000
  O   O8        1.0  0.84247  0.78860  0.54750  1.0000
  O   O9        1.0  0.30269  0.89450  0.16160  1.0000
  O   O10       1.0  0.69731  0.89450  0.33840  1.0000
  O   O11       1.0  0.80269  0.39450  0.16160  1.0000
  O   O12       1.0  0.19731  0.39450  0.33840  1.0000
  O   O13       1.0  0.69731  0.10550  0.83840  1.0000
  O   O14       1.0  0.30269  0.10550  0.66160  1.0000
  O   O15       1.0  0.19731  0.60550  0.83840  1.0000
  O   O16       1.0  0.80269  0.60550  0.66160  1.0000
  O   O17       1.0  0.40792  0.72940  0.29740  1.0000
  O   O18       1.0  0.59208  0.72940  0.20260  1.0000
  O   O19       1.0  0.90792  0.22940  0.29740  1.0000
  O   O20       1.0  0.09208  0.22940  0.20260  1.0000
  O   O21       1.0  0.59208  0.27060  0.70260  1.0000
  O   O22       1.0  0.40792  0.27060  0.79740  1.0000
  O   O23       1.0  0.09208  0.77060  0.70260  1.0000
  O   O24       1.0  0.90792  0.77060  0.79740  1.0000
  O   O25       1.0  0.27279  0.63150  0.29500  1.0000
  O   O26       1.0  0.72721  0.63150  0.20500  1.0000
  O   O27       1.0  0.77279  0.13150  0.29500  1.0000
  O   O28       1.0  0.22721  0.13150  0.20500  1.0000
  O   O29       1.0  0.72721  0.36850  0.70500  1.0000
  O   O30       1.0  0.27279  0.36850  0.79500  1.0000
  O   O31       1.0  0.22721  0.86850  0.70500  1.0000
  O   O32       1.0  0.77279  0.86850  0.79500  1.0000
  H   H1        1.0  0.24820  0.70370  0.28550  1.0000
  H   H2        1.0  0.75180  0.70370  0.21450  1.0000
  H   H3        1.0  0.74820  0.20370  0.28550  1.0000
  H   H4        1.0  0.25180  0.20370  0.21450  1.0000
  H   H5        1.0  0.75180  0.29630  0.71450  1.0000
  H   H6        1.0  0.24820  0.29630  0.78550  1.0000
  H   H7        1.0  0.25180  0.79630  0.71450  1.0000
  H   H8        1.0  0.74820  0.79630  0.78550  1.0000
  O   O33       1.0  0.30858  0.36740  0.26640  1.0000
  O   O34       1.0  0.69142  0.36740  0.23360  1.0000
  O   O35       1.0  0.80858  0.86740  0.26640  1.0000
  O   O36       1.0  0.19142  0.86740  0.23360  1.0000
  O   O37       1.0  0.69142  0.63260  0.73360  1.0000
  O   O38       1.0  0.30858  0.63260  0.76640  1.0000
  O   O39       1.0  0.19142  0.13260  0.73360  1.0000
  O   O40       1.0  0.80858  0.13260  0.76640  1.0000
  O   O41       1.0  0.30111  0.41130  0.07180  1.0000
  O   O42       1.0  0.69889  0.41130  0.42820  1.0000
  O   O43       1.0  0.80111  0.91130  0.07180  1.0000
  O   O44       1.0  0.19889  0.91130  0.42820  1.0000
  O   O45       1.0  0.69889  0.58870  0.92820  1.0000
  O   O46       1.0  0.30111  0.58870  0.57180  1.0000
  O   O47       1.0  0.19889  0.08870  0.92820  1.0000
  O   O48       1.0  0.80111  0.08870  0.57180  1.0000
  O   O49       1.0  0.40554  0.46060  0.99680  1.0000
  O   O50       1.0  0.59446  0.46060  0.50320  1.0000
  O   O51       1.0  0.90554  0.96060  0.99680  1.0000
  O   O52       1.0  0.09446  0.96060  0.50320  1.0000
  O   O53       1.0  0.59446  0.53940  0.00320  1.0000
  O   O54       1.0  0.40554  0.53940  0.49680  1.0000
  O   O55       1.0  0.09446  0.03940  0.00320  1.0000
  O   O56       1.0  0.90554  0.03940  0.49680  1.0000
  H   H9        1.0  0.42260  0.49740  0.95150  1.0000
  H   H10       1.0  0.57740  0.49740  0.54850  1.0000
  H   H11       1.0  0.92260  0.99740  0.95150  1.0000
  H   H12       1.0  0.07740  0.99740  0.54850  1.0000
  H   H13       1.0  0.57740  0.50260  0.04850  1.0000
  H   H14       1.0  0.42260  0.50260  0.45150  1.0000
  H   H15       1.0  0.07740  0.00260  0.04850  1.0000
  H   H16       1.0  0.92260  0.00260  0.45150  1.0000
  H   H17       1.0  0.40420  0.36760  0.98940  1.0000
  H   H18       1.0  0.59580  0.36760  0.51060  1.0000
  H   H19       1.0  0.90420  0.86760  0.98940  1.0000
  H   H20       1.0  0.09580  0.86760  0.51060  1.0000
  H   H21       1.0  0.59580  0.63240  0.01060  1.0000
  H   H22       1.0  0.40420  0.63240  0.48940  1.0000
  H   H23       1.0  0.09580  0.13240  0.01060  1.0000
  H   H24       1.0  0.90420  0.13240  0.48940  1.0000
  C   C1        1.0  0.27693  0.60950  0.17720  1.0000
  C   C2        1.0  0.72307  0.60950  0.32280  1.0000
  C   C3        1.0  0.77693  0.10950  0.17720  1.0000
  C   C4        1.0  0.22307  0.10950  0.32280  1.0000
  C   C5        1.0  0.72307  0.39050  0.82280  1.0000
  C   C6        1.0  0.27693  0.39050  0.67720  1.0000
  C   C7        1.0  0.22307  0.89050  0.82280  1.0000
  C   C8        1.0  0.77693  0.89050  0.67720  1.0000
  H   H25       1.0  0.22960  0.62600  0.10060  1.0000
  H   H26       1.0  0.77040  0.62600  0.39940  1.0000
  H   H27       1.0  0.72960  0.12600  0.10060  1.0000
  H   H28       1.0  0.27040  0.12600  0.39940  1.0000
  H   H29       1.0  0.77040  0.37400  0.89940  1.0000
  H   H30       1.0  0.22960  0.37400  0.60060  1.0000
  H   H31       1.0  0.27040  0.87400  0.89940  1.0000
  H   H32       1.0  0.72960  0.87400  0.60060  1.0000
  C   C9        1.0  0.29747  0.45240  0.17150  1.0000
  C   C10       1.0  0.70253  0.45240  0.32850  1.0000
  C   C11       1.0  0.79747  0.95240  0.17150  1.0000
  C   C12       1.0  0.20253  0.95240  0.32850  1.0000
  C   C13       1.0  0.70253  0.54760  0.82850  1.0000
  C   C14       1.0  0.29747  0.54760  0.67150  1.0000
  C   C15       1.0  0.20253  0.04760  0.82850  1.0000
  C   C16       1.0  0.79747  0.04760  0.67150  1.0000
