data_image0
_chemical_formula_structural       Cd4O16H8O12C12H4C4H4C12H4C8
_chemical_formula_sum              "Cd4 O28 H20 C36"
_cell_length_a       6.516
_cell_length_b       9.6687
_cell_length_c       19.524
_cell_angle_alpha    90
_cell_angle_beta     96.23
_cell_angle_gamma    90

_space_group_name_H-M_alt    "P 1"
_space_group_IT_number       1

loop_
  _space_group_symop_operation_xyz
  'x, y, z'

loop_
  _atom_site_type_symbol
  _atom_site_label
  _atom_site_symmetry_multiplicity
  _atom_site_fract_x
  _atom_site_fract_y
  _atom_site_fract_z
  _atom_site_occupancy
  Cd  Cd1       1.0  0.41943  0.93353  0.40280  1.0000
  Cd  Cd2       1.0  0.58057  0.43353  0.09720  1.0000
  Cd  Cd3       1.0  0.58057  0.06647  0.59720  1.0000
  Cd  Cd4       1.0  0.41943  0.56647  0.90280  1.0000
  O   O1        1.0  0.33250  0.80780  0.28808  1.0000
  O   O2        1.0  0.66750  0.30780  0.21192  1.0000
  O   O3        1.0  0.66750  0.19220  0.71192  1.0000
  O   O4        1.0  0.33250  0.69220  0.78808  1.0000
  O   O5        1.0  0.40520  0.02990  0.29763  1.0000
  O   O6        1.0  0.59480  0.52990  0.20237  1.0000
  O   O7        1.0  0.59480  0.97010  0.70237  1.0000
  O   O8        1.0  0.40520  0.47010  0.79763  1.0000
  O   O9        1.0  0.40590  0.61240  0.04687  1.0000
  O   O10       1.0  0.59410  0.11240  0.45313  1.0000
  O   O11       1.0  0.59410  0.38760  0.95313  1.0000
  O   O12       1.0  0.40590  0.88760  0.54687  1.0000
  O   O13       1.0  0.09440  0.02970  0.41266  1.0000
  O   O14       1.0  0.90560  0.52970  0.08734  1.0000
  O   O15       1.0  0.90560  0.97030  0.58734  1.0000
  O   O16       1.0  0.09440  0.47030  0.91266  1.0000
  H   H1        1.0  0.03570  0.96260  0.42730  1.0000
  H   H2        1.0  0.96430  0.46260  0.07270  1.0000
  H   H3        1.0  0.96430  0.03740  0.57270  1.0000
  H   H4        1.0  0.03570  0.53740  0.92730  1.0000
  H   H5        1.0  0.11090  0.09170  0.44140  1.0000
  H   H6        1.0  0.88910  0.59170  0.05860  1.0000
  H   H7        1.0  0.88910  0.90830  0.55860  1.0000
  H   H8        1.0  0.11090  0.40830  0.94140  1.0000
  O   O17       1.0  0.24320  0.33661  0.09287  1.0000
  O   O18       1.0  0.75680  0.83661  0.40713  1.0000
  O   O19       1.0  0.75680  0.66339  0.90713  1.0000
  O   O20       1.0  0.24320  0.16339  0.59287  1.0000
  O   O21       1.0  0.32790  0.75200  0.95891  1.0000
  O   O22       1.0  0.67210  0.25200  0.54109  1.0000
  O   O23       1.0  0.67210  0.24800  0.04109  1.0000
  O   O24       1.0  0.32790  0.74800  0.45891  1.0000
  O   O25       1.0  0.15560  0.23800  0.99102  1.0000
  O   O26       1.0  0.84440  0.73800  0.50898  1.0000
  O   O27       1.0  0.84440  0.76200  0.00898  1.0000
  O   O28       1.0  0.15560  0.26200  0.49102  1.0000
  C   C1        1.0  0.35630  0.92370  0.26165  1.0000
  C   C2        1.0  0.64370  0.42370  0.23835  1.0000
  C   C3        1.0  0.64370  0.07630  0.73835  1.0000
  C   C4        1.0  0.35630  0.57630  0.76165  1.0000
  C   C5        1.0  0.32840  0.94140  0.18471  1.0000
  C   C6        1.0  0.67160  0.44140  0.31529  1.0000
  C   C7        1.0  0.67160  0.05860  0.81529  1.0000
  C   C8        1.0  0.32840  0.55860  0.68471  1.0000
  C   C9        1.0  0.29340  0.07280  0.15671  1.0000
  C   C10       1.0  0.70660  0.57280  0.34329  1.0000
  C   C11       1.0  0.70660  0.92720  0.84329  1.0000
  C   C12       1.0  0.29340  0.42720  0.65671  1.0000
  H   H9        1.0  0.29170  0.14910  0.18570  1.0000
  H   H10       1.0  0.70830  0.64910  0.31430  1.0000
  H   H11       1.0  0.70830  0.85090  0.81430  1.0000
  H   H12       1.0  0.29170  0.35090  0.68570  1.0000
  C   C13       1.0  0.34310  0.82750  0.14169  1.0000
  C   C14       1.0  0.65690  0.32750  0.35831  1.0000
  C   C15       1.0  0.65690  0.17250  0.85831  1.0000
  C   C16       1.0  0.34310  0.67250  0.64169  1.0000
  H   H13       1.0  0.36740  0.73980  0.16040  1.0000
  H   H14       1.0  0.63260  0.23980  0.33960  1.0000
  H   H15       1.0  0.63260  0.26020  0.83960  1.0000
  H   H16       1.0  0.36740  0.76020  0.66040  1.0000
  C   C17       1.0  0.26080  0.09080  0.08537  1.0000
  C   C18       1.0  0.73920  0.59080  0.41463  1.0000
  C   C19       1.0  0.73920  0.90920  0.91463  1.0000
  C   C20       1.0  0.26080  0.40920  0.58537  1.0000
  C   C21       1.0  0.35340  0.72820  0.02270  1.0000
  C   C22       1.0  0.64660  0.22820  0.47730  1.0000
  C   C23       1.0  0.64660  0.27180  0.97730  1.0000
  C   C24       1.0  0.35340  0.77180  0.52270  1.0000
  C   C25       1.0  0.27510  0.97710  0.04303  1.0000
  C   C26       1.0  0.72490  0.47710  0.45697  1.0000
  C   C27       1.0  0.72490  0.02290  0.95697  1.0000
  C   C28       1.0  0.27510  0.52290  0.54303  1.0000
  H   H17       1.0  0.25350  0.98820  0.99550  1.0000
  H   H18       1.0  0.74650  0.48820  0.50450  1.0000
  H   H19       1.0  0.74650  0.01180  0.00450  1.0000
  H   H20       1.0  0.25350  0.51180  0.49550  1.0000
  C   C29       1.0  0.32130  0.84580  0.07044  1.0000
  C   C30       1.0  0.67870  0.34580  0.42956  1.0000
  C   C31       1.0  0.67870  0.15420  0.92956  1.0000
  C   C32       1.0  0.32130  0.65420  0.57044  1.0000
  C   C33       1.0  0.21660  0.23140  0.05391  1.0000
  C   C34       1.0  0.78340  0.73140  0.44609  1.0000
  C   C35       1.0  0.78340  0.76860  0.94609  1.0000
  C   C36       1.0  0.21660  0.26860  0.55391  1.0000
