data_image0
_chemical_formula_structural       Co2N4O18H4C4H2C2H2C4H2C2H2C8H2C4H2C4H2C8H2C4H2C4H2C2H2C2H2C4H2C2H2C2H2C2H2C2H2C4H2C2H2C2H2
_chemical_formula_sum              "Co2 N4 O18 H44 C68"
_cell_length_a       10.723
_cell_length_b       11.8829
_cell_length_c       13.6481
_cell_angle_alpha    88.316
_cell_angle_beta     70.259
_cell_angle_gamma    78.075

_space_group_name_H-M_alt    "P 1"
_space_group_IT_number       1

loop_
  _space_group_symop_operation_xyz
  'x, y, z'

loop_
  _atom_site_type_symbol
  _atom_site_label
  _atom_site_symmetry_multiplicity
  _atom_site_fract_x
  _atom_site_fract_y
  _atom_site_fract_z
  _atom_site_occupancy
  Co  Co1       1.0  0.92199  0.81544  0.58571  1.0000
  Co  Co2       1.0  0.07801  0.18456  0.41429  1.0000
  N   N1        1.0  0.95390  0.70740  0.70750  1.0000
  N   N2        1.0  0.04610  0.29260  0.29250  1.0000
  N   N3        1.0  0.77490  0.72640  0.57160  1.0000
  N   N4        1.0  0.22510  0.27360  0.42840  1.0000
  O   O1        1.0  0.08530  0.70640  0.47310  1.0000
  O   O2        1.0  0.91470  0.29360  0.52690  1.0000
  O   O3        1.0  0.14000  0.84470  0.53870  1.0000
  O   O4        1.0  0.86000  0.15530  0.46130  1.0000
  O   O5        1.0  0.63290  0.88500  0.38270  1.0000
  O   O6        1.0  0.36710  0.11500  0.61730  1.0000
  O   O7        1.0  0.77440  0.77240  0.25040  1.0000
  O   O8        1.0  0.22560  0.22760  0.74960  1.0000
  O   O9        1.0  0.19230  0.07760  0.99900  1.0000
  O   O10       1.0  0.80770  0.92240  0.00100  1.0000
  O   O11       1.0  0.30480  0.96180  0.85650  1.0000
  O   O12       1.0  0.69520  0.03820  0.14350  1.0000
  O   O13       1.0  0.79040  0.94060  0.68590  1.0000
  O   O14       1.0  0.20960  0.05940  0.31410  1.0000
  O   O15       1.0  0.89370  0.07160  0.72320  1.0000
  O   O16       1.0  0.10630  0.92840  0.27680  1.0000
  O   O17       1.0  0.89170  0.91950  0.45840  1.0000
  O   O18       1.0  0.10830  0.08050  0.54160  1.0000
  H   H1        1.0  0.86800  0.99180  0.47120  1.0000
  H   H2        1.0  0.13200  0.00820  0.52880  1.0000
  H   H3        1.0  0.95940  0.90680  0.40220  1.0000
  H   H4        1.0  0.04060  0.09320  0.59780  1.0000
  C   C1        1.0  0.49170  0.50230  0.17680  1.0000
  C   C2        1.0  0.50830  0.49770  0.82320  1.0000
  C   C3        1.0  0.38570  0.48570  0.14250  1.0000
  C   C4        1.0  0.61430  0.51430  0.85750  1.0000
  H   H5        1.0  0.30340  0.53840  0.16460  1.0000
  H   H6        1.0  0.69660  0.46160  0.83540  1.0000
  C   C5        1.0  0.40110  0.39470  0.07810  1.0000
  C   C6        1.0  0.59890  0.60530  0.92190  1.0000
  H   H7        1.0  0.32840  0.38760  0.05790  1.0000
  H   H8        1.0  0.67160  0.61240  0.94210  1.0000
  C   C7        1.0  0.52080  0.31180  0.04110  1.0000
  C   C8        1.0  0.47920  0.68820  0.95890  1.0000
  C   C9        1.0  0.62900  0.32840  0.07260  1.0000
  C   C10       1.0  0.37100  0.67160  0.92740  1.0000
  H   H9        1.0  0.71150  0.27610  0.04900  1.0000
  H   H10       1.0  0.28850  0.72390  0.95100  1.0000
  C   C11       1.0  0.61470  0.42030  0.13720  1.0000
  C   C12       1.0  0.38530  0.57970  0.86280  1.0000
  H   H11       1.0  0.68840  0.42880  0.15550  1.0000
  H   H12       1.0  0.31160  0.57120  0.84450  1.0000
  C   C13       1.0  0.17370  0.76410  0.47380  1.0000
  C   C14       1.0  0.82630  0.23590  0.52620  1.0000
  C   C15       1.0  0.65960  0.80210  0.31530  1.0000
  C   C16       1.0  0.34040  0.19790  0.68470  1.0000
  C   C17       1.0  0.31510  0.72780  0.39560  1.0000
  C   C18       1.0  0.68490  0.27220  0.60440  1.0000
  C   C19       1.0  0.41660  0.78280  0.39380  1.0000
  C   C20       1.0  0.58340  0.21720  0.60620  1.0000
  H   H13       1.0  0.39820  0.84430  0.44070  1.0000
  H   H14       1.0  0.60180  0.15570  0.55930  1.0000
  C   C21       1.0  0.54720  0.74700  0.32220  1.0000
  C   C22       1.0  0.45280  0.25300  0.67780  1.0000
  C   C23       1.0  0.56920  0.65500  0.25120  1.0000
  C   C24       1.0  0.43080  0.34500  0.74880  1.0000
  H   H15       1.0  0.65540  0.63140  0.20240  1.0000
  H   H16       1.0  0.34460  0.36860  0.79760  1.0000
  C   C25       1.0  0.47040  0.59880  0.25040  1.0000
  C   C26       1.0  0.52960  0.40120  0.74960  1.0000
  C   C27       1.0  0.34110  0.63750  0.32580  1.0000
  C   C28       1.0  0.65890  0.36250  0.67420  1.0000
  H   H17       1.0  0.27140  0.60100  0.32840  1.0000
  H   H18       1.0  0.72860  0.39900  0.67160  1.0000
  C   C29       1.0  0.29610  0.03810  0.92570  1.0000
  C   C30       1.0  0.70390  0.96190  0.07430  1.0000
  C   C31       1.0  0.79160  0.02920  0.73790  1.0000
  C   C32       1.0  0.20840  0.97080  0.26210  1.0000
  C   C33       1.0  0.42340  0.08120  0.91360  1.0000
  C   C34       1.0  0.57660  0.91880  0.08640  1.0000
  C   C35       1.0  0.42000  0.16600  0.98000  1.0000
  C   C36       1.0  0.58000  0.83400  0.02000  1.0000
  H   H19       1.0  0.33920  0.19310  0.03410  1.0000
  H   H20       1.0  0.66080  0.80690  0.96590  1.0000
  C   C37       1.0  0.53230  0.21510  0.97130  1.0000
  C   C38       1.0  0.46770  0.78490  0.02870  1.0000
  C   C39       1.0  0.65310  0.16860  0.89120  1.0000
  C   C40       1.0  0.34690  0.83140  0.10880  1.0000
  H   H21       1.0  0.72990  0.19810  0.88240  1.0000
  H   H22       1.0  0.27010  0.80190  0.11760  1.0000
  C   C41       1.0  0.66060  0.07800  0.82370  1.0000
  C   C42       1.0  0.33940  0.92200  0.17630  1.0000
  C   C43       1.0  0.54560  0.03600  0.83370  1.0000
  C   C44       1.0  0.45440  0.96400  0.16630  1.0000
  H   H23       1.0  0.54950  0.97810  0.78770  1.0000
  H   H24       1.0  0.45050  0.02190  0.21230  1.0000
  C   C45       1.0  0.96330  0.75120  0.79190  1.0000
  C   C46       1.0  0.03670  0.24880  0.20810  1.0000
  H   H25       1.0  0.95680  0.83030  0.79670  1.0000
  H   H26       1.0  0.04320  0.16970  0.20330  1.0000
  C   C47       1.0  0.98340  0.68260  0.87860  1.0000
  C   C48       1.0  0.01660  0.31740  0.12140  1.0000
  H   H27       1.0  0.99070  0.71670  0.93640  1.0000
  H   H28       1.0  0.00930  0.28330  0.06360  1.0000
  C   C49       1.0  0.99100  0.56610  0.87110  1.0000
  C   C50       1.0  0.00900  0.43390  0.12890  1.0000
  C   C51       1.0  0.98050  0.52170  0.78370  1.0000
  C   C52       1.0  0.01950  0.47830  0.21630  1.0000
  H   H29       1.0  0.98420  0.44330  0.77670  1.0000
  H   H30       1.0  0.01580  0.55670  0.22330  1.0000
  C   C53       1.0  0.96410  0.59480  0.70490  1.0000
  C   C54       1.0  0.03590  0.40520  0.29510  1.0000
  H   H31       1.0  0.95990  0.56130  0.64560  1.0000
  H   H32       1.0  0.04010  0.43870  0.35440  1.0000
  C   C55       1.0  0.00390  0.48900  0.95650  1.0000
  C   C56       1.0  0.99610  0.51100  0.04350  1.0000
  H   H33       1.0  0.02080  0.41100  0.93930  1.0000
  H   H34       1.0  0.97920  0.58900  0.06070  1.0000
  C   C57       1.0  0.64540  0.74910  0.63190  1.0000
  C   C58       1.0  0.35460  0.25090  0.36810  1.0000
  H   H35       1.0  0.61620  0.80630  0.68450  1.0000
  H   H36       1.0  0.38380  0.19370  0.31550  1.0000
  C   C59       1.0  0.55250  0.69080  0.61910  1.0000
  C   C60       1.0  0.44750  0.30920  0.38090  1.0000
  H   H37       1.0  0.46310  0.71000  0.66370  1.0000
  H   H38       1.0  0.53690  0.29000  0.33630  1.0000
  C   C61       1.0  0.58640  0.60710  0.54450  1.0000
  C   C62       1.0  0.41360  0.39290  0.45550  1.0000
  C   C63       1.0  0.72490  0.58170  0.48020  1.0000
  C   C64       1.0  0.27510  0.41830  0.51980  1.0000
  H   H39       1.0  0.75630  0.52420  0.42770  1.0000
  H   H40       1.0  0.24370  0.47580  0.57230  1.0000
  C   C65       1.0  0.81220  0.64310  0.49660  1.0000
  C   C66       1.0  0.18780  0.35690  0.50340  1.0000
  H   H41       1.0  0.90230  0.62600  0.45330  1.0000
  H   H42       1.0  0.09770  0.37400  0.54670  1.0000
  C   C67       1.0  0.48580  0.54490  0.53380  1.0000
  C   C68       1.0  0.51420  0.45510  0.46620  1.0000
  H   H43       1.0  0.39620  0.56930  0.57690  1.0000
  H   H44       1.0  0.60380  0.43070  0.42310  1.0000
