data_image0
_chemical_formula_structural       Sm4O36H4O2H4C22
_chemical_formula_sum              "Sm4 O38 H8 C22"
_cell_length_a       10.0987
_cell_length_b       16.7006
_cell_length_c       11.3692
_cell_angle_alpha    90
_cell_angle_beta     116.365
_cell_angle_gamma    90

_space_group_name_H-M_alt    "P 1"
_space_group_IT_number       1

loop_
  _space_group_symop_operation_xyz
  'x, y, z'

loop_
  _atom_site_type_symbol
  _atom_site_label
  _atom_site_symmetry_multiplicity
  _atom_site_fract_x
  _atom_site_fract_y
  _atom_site_fract_z
  _atom_site_occupancy
  Sm  Sm1       1.0  0.15887  0.73862  0.78856  1.0000
  Sm  Sm2       1.0  0.84113  0.23862  0.21144  1.0000
  Sm  Sm3       1.0  0.85017  0.76989  0.16850  1.0000
  Sm  Sm4       1.0  0.14983  0.26989  0.83150  1.0000
  O   O1        1.0  0.91960  0.83890  0.00820  1.0000
  O   O2        1.0  0.08040  0.33890  0.99180  1.0000
  O   O3        1.0  0.99360  0.68850  0.09200  1.0000
  O   O4        1.0  0.00640  0.18850  0.90800  1.0000
  O   O5        1.0  0.01180  0.82140  0.86310  1.0000
  O   O6        1.0  0.98820  0.32140  0.13690  1.0000
  O   O7        1.0  0.08810  0.67100  0.95050  1.0000
  O   O8        1.0  0.91190  0.17100  0.04950  1.0000
  O   O9        1.0  0.35190  0.76790  0.01210  1.0000
  O   O10       1.0  0.64810  0.26790  0.98790  1.0000
  O   O11       1.0  0.41390  0.73090  0.81260  1.0000
  O   O12       1.0  0.58610  0.23090  0.18740  1.0000
  O   O13       1.0  0.65690  0.74360  0.94680  1.0000
  O   O14       1.0  0.34310  0.24360  0.05320  1.0000
  O   O15       1.0  0.59260  0.77820  0.14530  1.0000
  O   O16       1.0  0.40740  0.27820  0.85470  1.0000
  O   O17       1.0  0.96710  0.80380  0.59460  1.0000
  O   O18       1.0  0.03290  0.30380  0.40540  1.0000
  O   O19       1.0  0.16180  0.69930  0.58120  1.0000
  O   O20       1.0  0.83820  0.19930  0.41880  1.0000
  O   O21       1.0  0.84610  0.80610  0.37640  1.0000
  O   O22       1.0  0.15390  0.30610  0.62360  1.0000
  O   O23       1.0  0.04240  0.70320  0.36160  1.0000
  O   O24       1.0  0.95760  0.20320  0.63840  1.0000
  O   O25       1.0  0.93550  0.64610  0.66930  1.0000
  O   O26       1.0  0.06450  0.14610  0.33070  1.0000
  O   O27       1.0  0.22970  0.59330  0.81800  1.0000
  O   O28       1.0  0.77030  0.09330  0.18200  1.0000
  O   O29       1.0  0.22280  0.41320  0.85090  1.0000
  O   O30       1.0  0.77720  0.91320  0.14910  1.0000
  O   O31       1.0  0.92520  0.36250  0.71070  1.0000
  O   O32       1.0  0.07480  0.86250  0.28930  1.0000
  O   O33       1.0  0.73580  0.50560  0.59680  1.0000
  O   O34       1.0  0.26420  0.00560  0.40320  1.0000
  O   O35       1.0  0.23450  0.87470  0.76320  1.0000
  O   O36       1.0  0.76550  0.37470  0.23680  1.0000
  H   H1        1.0  0.17160  0.91130  0.74120  1.0000
  H   H2        1.0  0.82840  0.41130  0.25880  1.0000
  H   H3        1.0  0.31210  0.90100  0.80700  1.0000
  H   H4        1.0  0.68790  0.40100  0.19300  1.0000
  O   O37       1.0  0.77000  0.63430  0.18770  1.0000
  O   O38       1.0  0.23000  0.13430  0.81230  1.0000
  H   H5        1.0  0.81360  0.60090  0.22040  1.0000
  H   H6        1.0  0.18640  0.10090  0.77960  1.0000
  H   H7        1.0  0.68190  0.61240  0.14230  1.0000
  H   H8        1.0  0.31810  0.11240  0.85770  1.0000
  C   C1        1.0  0.98150  0.79820  0.95190  1.0000
  C   C2        1.0  0.01850  0.29820  0.04810  1.0000
  C   C3        1.0  0.02420  0.71130  0.00190  1.0000
  C   C4        1.0  0.97580  0.21130  0.99810  1.0000
  C   C5        1.0  0.48590  0.76580  0.03710  1.0000
  C   C6        1.0  0.51410  0.26580  0.96290  1.0000
  C   C7        1.0  0.52350  0.74520  0.92220  1.0000
  C   C8        1.0  0.47650  0.24520  0.07780  1.0000
  C   C9        1.0  0.06030  0.72290  0.47410  1.0000
  C   C10       1.0  0.93970  0.22290  0.52590  1.0000
  C   C11       1.0  0.94820  0.78320  0.48290  1.0000
  C   C12       1.0  0.05180  0.28320  0.51710  1.0000
  C   C13       1.0  0.97030  0.57430  0.69650  1.0000
  C   C14       1.0  0.02970  0.07430  0.30350  1.0000
  C   C15       1.0  0.12150  0.54640  0.77460  1.0000
  C   C16       1.0  0.87850  0.04640  0.22540  1.0000
  C   C17       1.0  0.11770  0.46150  0.78930  1.0000
  C   C18       1.0  0.88230  0.96150  0.21070  1.0000
  C   C19       1.0  0.96430  0.43500  0.71800  1.0000
  C   C20       1.0  0.03570  0.93500  0.28200  1.0000
  C   C21       1.0  0.86930  0.50400  0.66000  1.0000
  C   C22       1.0  0.13070  0.00400  0.34000  1.0000
