data_image0
_chemical_formula_structural       Fe8Cl8O4H4O32C16
_chemical_formula_sum              "Fe8 Cl8 O36 H4 C16"
_cell_length_a       9.209
_cell_length_b       14.712
_cell_length_c       12.5178
_cell_angle_alpha    90
_cell_angle_beta     109.01
_cell_angle_gamma    90

_space_group_name_H-M_alt    "P 1"
_space_group_IT_number       1

loop_
  _space_group_symop_operation_xyz
  'x, y, z'

loop_
  _atom_site_type_symbol
  _atom_site_label
  _atom_site_symmetry_multiplicity
  _atom_site_fract_x
  _atom_site_fract_y
  _atom_site_fract_z
  _atom_site_occupancy
  Fe  Fe1       1.0  0.95290  0.04238  0.33270  1.0000
  Fe  Fe2       1.0  0.95290  0.95762  0.83270  1.0000
  Fe  Fe3       1.0  0.45290  0.54238  0.33270  1.0000
  Fe  Fe4       1.0  0.45290  0.45762  0.83270  1.0000
  Fe  Fe5       1.0  0.83163  0.20033  0.10783  1.0000
  Fe  Fe6       1.0  0.83163  0.79967  0.60783  1.0000
  Fe  Fe7       1.0  0.33163  0.70033  0.10783  1.0000
  Fe  Fe8       1.0  0.33163  0.29967  0.60783  1.0000
  Cl  Cl1       1.0  0.00501  0.93755  0.22280  1.0000
  Cl  Cl2       1.0  0.00501  0.06245  0.72280  1.0000
  Cl  Cl3       1.0  0.50501  0.43755  0.22280  1.0000
  Cl  Cl4       1.0  0.50501  0.56245  0.72280  1.0000
  Cl  Cl5       1.0  0.98431  0.30327  0.23520  1.0000
  Cl  Cl6       1.0  0.98431  0.69673  0.73520  1.0000
  Cl  Cl7       1.0  0.48431  0.80327  0.23520  1.0000
  Cl  Cl8       1.0  0.48431  0.19673  0.73520  1.0000
  O   O1        1.0  0.80500  0.11300  0.20980  1.0000
  O   O2        1.0  0.80500  0.88700  0.70980  1.0000
  O   O3        1.0  0.30500  0.61300  0.20980  1.0000
  O   O4        1.0  0.30500  0.38700  0.70980  1.0000
  H   H1        1.0  0.70050  0.10020  0.20060  1.0000
  H   H2        1.0  0.70050  0.89980  0.70060  1.0000
  H   H3        1.0  0.20050  0.60020  0.20060  1.0000
  H   H4        1.0  0.20050  0.39980  0.70060  1.0000
  O   O5        1.0  0.95230  0.13910  0.45330  1.0000
  O   O6        1.0  0.95230  0.86090  0.95330  1.0000
  O   O7        1.0  0.45230  0.63910  0.45330  1.0000
  O   O8        1.0  0.45230  0.36090  0.95330  1.0000
  O   O9        1.0  0.15770  0.10890  0.36100  1.0000
  O   O10       1.0  0.15770  0.89110  0.86100  1.0000
  O   O11       1.0  0.65770  0.60890  0.36100  1.0000
  O   O12       1.0  0.65770  0.39110  0.86100  1.0000
  O   O13       1.0  0.11330  0.24440  0.56840  1.0000
  O   O14       1.0  0.11330  0.75560  0.06840  1.0000
  O   O15       1.0  0.61330  0.74440  0.56840  1.0000
  O   O16       1.0  0.61330  0.25560  0.06840  1.0000
  O   O17       1.0  0.32050  0.21300  0.47550  1.0000
  O   O18       1.0  0.32050  0.78700  0.97550  1.0000
  O   O19       1.0  0.82050  0.71300  0.47550  1.0000
  O   O20       1.0  0.82050  0.28700  0.97550  1.0000
  O   O21       1.0  0.71290  0.89130  0.47410  1.0000
  O   O22       1.0  0.71290  0.10870  0.97410  1.0000
  O   O23       1.0  0.21290  0.39130  0.47410  1.0000
  O   O24       1.0  0.21290  0.60870  0.97410  1.0000
  O   O25       1.0  0.01950  0.86070  0.58800  1.0000
  O   O26       1.0  0.01950  0.13930  0.08800  1.0000
  O   O27       1.0  0.51950  0.36070  0.58800  1.0000
  O   O28       1.0  0.51950  0.63930  0.08800  1.0000
  O   O29       1.0  0.07500  0.96080  0.47760  1.0000
  O   O30       1.0  0.07500  0.03920  0.97760  1.0000
  O   O31       1.0  0.57500  0.46080  0.47760  1.0000
  O   O32       1.0  0.57500  0.53920  0.97760  1.0000
  O   O33       1.0  0.76660  0.98400  0.35490  1.0000
  O   O34       1.0  0.76660  0.01600  0.85490  1.0000
  O   O35       1.0  0.26660  0.48400  0.35490  1.0000
  O   O36       1.0  0.26660  0.51600  0.85490  1.0000
  C   C1        1.0  0.07570  0.18470  0.49130  1.0000
  C   C2        1.0  0.07570  0.81530  0.99130  1.0000
  C   C3        1.0  0.57570  0.68470  0.49130  1.0000
  C   C4        1.0  0.57570  0.31530  0.99130  1.0000
  C   C5        1.0  0.19510  0.16800  0.43800  1.0000
  C   C6        1.0  0.19510  0.83200  0.93800  1.0000
  C   C7        1.0  0.69510  0.66800  0.43800  1.0000
  C   C8        1.0  0.69510  0.33200  0.93800  1.0000
  C   C9        1.0  0.80410  0.93260  0.43900  1.0000
  C   C10       1.0  0.80410  0.06740  0.93900  1.0000
  C   C11       1.0  0.30410  0.43260  0.43900  1.0000
  C   C12       1.0  0.30410  0.56740  0.93900  1.0000
  C   C13       1.0  0.98190  0.91750  0.50730  1.0000
  C   C14       1.0  0.98190  0.08250  0.00730  1.0000
  C   C15       1.0  0.48190  0.41750  0.50730  1.0000
  C   C16       1.0  0.48190  0.58250  0.00730  1.0000
