data_image0
_chemical_formula_structural       Mn6Cr6O72C36
_chemical_formula_sum              "Mn6 Cr6 O72 C36"
_cell_length_a       9.3928
_cell_length_b       9.3928
_cell_length_c       51.008
_cell_angle_alpha    90
_cell_angle_beta     90
_cell_angle_gamma    120

_space_group_name_H-M_alt    "P 1"
_space_group_IT_number       1

loop_
  _space_group_symop_operation_xyz
  'x, y, z'

loop_
  _atom_site_type_symbol
  _atom_site_label
  _atom_site_symmetry_multiplicity
  _atom_site_fract_x
  _atom_site_fract_y
  _atom_site_fract_z
  _atom_site_occupancy
  Mn  Mn1       1.0  0.66670  0.33330  0.53785  1.0000
  Mn  Mn2       1.0  0.66660  0.33330  0.03785  1.0000
  Mn  Mn3       1.0  0.33337  0.66663  0.87118  1.0000
  Mn  Mn4       1.0  0.33327  0.66663  0.37118  1.0000
  Mn  Mn5       1.0  0.00003  0.99997  0.20452  1.0000
  Mn  Mn6       1.0  0.99993  0.99997  0.70452  1.0000
  Cr  Cr1       1.0  0.33330  0.66670  0.53814  1.0000
  Cr  Cr2       1.0  0.33340  0.66670  0.03814  1.0000
  Cr  Cr3       1.0  0.99997  0.00003  0.87147  1.0000
  Cr  Cr4       1.0  0.00007  0.00003  0.37147  1.0000
  Cr  Cr5       1.0  0.66663  0.33337  0.20481  1.0000
  Cr  Cr6       1.0  0.66673  0.33337  0.70481  1.0000
  O   O1        1.0  0.50550  0.65590  0.51676  1.0000
  O   O2        1.0  0.34410  0.84960  0.51676  1.0000
  O   O3        1.0  0.15040  0.49450  0.51676  1.0000
  O   O4        1.0  0.15040  0.65590  0.01676  1.0000
  O   O5        1.0  0.50550  0.84960  0.01676  1.0000
  O   O6        1.0  0.34410  0.49450  0.01676  1.0000
  O   O7        1.0  0.17217  0.98923  0.85009  1.0000
  O   O8        1.0  0.01077  0.18293  0.85009  1.0000
  O   O9        1.0  0.81707  0.82783  0.85009  1.0000
  O   O10       1.0  0.81707  0.98923  0.35009  1.0000
  O   O11       1.0  0.17217  0.18293  0.35009  1.0000
  O   O12       1.0  0.01077  0.82783  0.35009  1.0000
  O   O13       1.0  0.83883  0.32257  0.18343  1.0000
  O   O14       1.0  0.67743  0.51627  0.18343  1.0000
  O   O15       1.0  0.48373  0.16117  0.18343  1.0000
  O   O16       1.0  0.48373  0.32257  0.68343  1.0000
  O   O17       1.0  0.83883  0.51627  0.68343  1.0000
  O   O18       1.0  0.67743  0.16117  0.68343  1.0000
  O   O19       1.0  0.34400  0.49870  0.55928  1.0000
  O   O20       1.0  0.50130  0.84530  0.55928  1.0000
  O   O21       1.0  0.15470  0.65600  0.55928  1.0000
  O   O22       1.0  0.15470  0.49870  0.05928  1.0000
  O   O23       1.0  0.34400  0.84530  0.05928  1.0000
  O   O24       1.0  0.50130  0.65600  0.05928  1.0000
  O   O25       1.0  0.01067  0.83203  0.89261  1.0000
  O   O26       1.0  0.16797  0.17863  0.89261  1.0000
  O   O27       1.0  0.82137  0.98933  0.89261  1.0000
  O   O28       1.0  0.82137  0.83203  0.39261  1.0000
  O   O29       1.0  0.01067  0.17863  0.39261  1.0000
  O   O30       1.0  0.16797  0.98933  0.39261  1.0000
  O   O31       1.0  0.67733  0.16537  0.22595  1.0000
  O   O32       1.0  0.83463  0.51197  0.22595  1.0000
  O   O33       1.0  0.48803  0.32267  0.22595  1.0000
  O   O34       1.0  0.48803  0.16537  0.72595  1.0000
  O   O35       1.0  0.67733  0.51197  0.72595  1.0000
  O   O36       1.0  0.83463  0.32267  0.72595  1.0000
  O   O37       1.0  0.64000  0.52090  0.51544  1.0000
  O   O38       1.0  0.47910  0.11910  0.51544  1.0000
  O   O39       1.0  0.88090  0.36000  0.51544  1.0000
  O   O40       1.0  0.88090  0.52090  0.01544  1.0000
  O   O41       1.0  0.64000  0.11910  0.01544  1.0000
  O   O42       1.0  0.47910  0.36000  0.01544  1.0000
  O   O43       1.0  0.30667  0.85423  0.84877  1.0000
  O   O44       1.0  0.14577  0.45243  0.84877  1.0000
  O   O45       1.0  0.54757  0.69333  0.84877  1.0000
  O   O46       1.0  0.54757  0.85423  0.34877  1.0000
  O   O47       1.0  0.30667  0.45243  0.34877  1.0000
  O   O48       1.0  0.14577  0.69333  0.34877  1.0000
  O   O49       1.0  0.97333  0.18757  0.18211  1.0000
  O   O50       1.0  0.81243  0.78577  0.18211  1.0000
  O   O51       1.0  0.21423  0.02667  0.18211  1.0000
  O   O52       1.0  0.21423  0.18757  0.68211  1.0000
  O   O53       1.0  0.97333  0.78577  0.68211  1.0000
  O   O54       1.0  0.81243  0.02667  0.68211  1.0000
  O   O55       1.0  0.48520  0.35970  0.56001  1.0000
  O   O56       1.0  0.64030  0.12550  0.56001  1.0000
  O   O57       1.0  0.87450  0.51480  0.56001  1.0000
  O   O58       1.0  0.87450  0.35970  0.06001  1.0000
  O   O59       1.0  0.48520  0.12550  0.06001  1.0000
  O   O60       1.0  0.64030  0.51480  0.06001  1.0000
  O   O61       1.0  0.15187  0.69303  0.89334  1.0000
  O   O62       1.0  0.30697  0.45883  0.89334  1.0000
  O   O63       1.0  0.54117  0.84813  0.89334  1.0000
  O   O64       1.0  0.54117  0.69303  0.39334  1.0000
  O   O65       1.0  0.15187  0.45883  0.39334  1.0000
  O   O66       1.0  0.30697  0.84813  0.39334  1.0000
  O   O67       1.0  0.81853  0.02637  0.22668  1.0000
  O   O68       1.0  0.97363  0.79217  0.22668  1.0000
  O   O69       1.0  0.20783  0.18147  0.22668  1.0000
  O   O70       1.0  0.20783  0.02637  0.72668  1.0000
  O   O71       1.0  0.81853  0.79217  0.72668  1.0000
  O   O72       1.0  0.97363  0.18147  0.72668  1.0000
  C   C1        1.0  0.54020  0.55310  0.52513  1.0000
  C   C2        1.0  0.44690  0.98710  0.52513  1.0000
  C   C3        1.0  0.01290  0.45980  0.52513  1.0000
  C   C4        1.0  0.01290  0.55310  0.02513  1.0000
  C   C5        1.0  0.54020  0.98710  0.02513  1.0000
  C   C6        1.0  0.44690  0.45980  0.02513  1.0000
  C   C7        1.0  0.20687  0.88643  0.85846  1.0000
  C   C8        1.0  0.11357  0.32043  0.85846  1.0000
  C   C9        1.0  0.67957  0.79313  0.85846  1.0000
  C   C10       1.0  0.67957  0.88643  0.35846  1.0000
  C   C11       1.0  0.20687  0.32043  0.35846  1.0000
  C   C12       1.0  0.11357  0.79313  0.35846  1.0000
  C   C13       1.0  0.87353  0.21977  0.19180  1.0000
  C   C14       1.0  0.78023  0.65377  0.19180  1.0000
  C   C15       1.0  0.34623  0.12647  0.19180  1.0000
  C   C16       1.0  0.34623  0.21977  0.69180  1.0000
  C   C17       1.0  0.87353  0.65377  0.69180  1.0000
  C   C18       1.0  0.78023  0.12647  0.69180  1.0000
  C   C19       1.0  0.44980  0.46010  0.55031  1.0000
  C   C20       1.0  0.53990  0.98970  0.55031  1.0000
  C   C21       1.0  0.01030  0.55020  0.55031  1.0000
  C   C22       1.0  0.01030  0.46010  0.05031  1.0000
  C   C23       1.0  0.44980  0.98970  0.05031  1.0000
  C   C24       1.0  0.53990  0.55020  0.05031  1.0000
  C   C25       1.0  0.11647  0.79343  0.88364  1.0000
  C   C26       1.0  0.20657  0.32303  0.88364  1.0000
  C   C27       1.0  0.67697  0.88353  0.88364  1.0000
  C   C28       1.0  0.67697  0.79343  0.38364  1.0000
  C   C29       1.0  0.11647  0.32303  0.38364  1.0000
  C   C30       1.0  0.20657  0.88353  0.38364  1.0000
  C   C31       1.0  0.78313  0.12677  0.21698  1.0000
  C   C32       1.0  0.87323  0.65637  0.21698  1.0000
  C   C33       1.0  0.34363  0.21687  0.21698  1.0000
  C   C34       1.0  0.34363  0.12677  0.71698  1.0000
  C   C35       1.0  0.78313  0.65637  0.71698  1.0000
  C   C36       1.0  0.87323  0.21687  0.71698  1.0000
