data_image0
_chemical_formula_structural       Co11N36O6H6C24H24C6N6
_chemical_formula_sum              "Co11 N42 O6 H30 C30"
_cell_length_a       11.67
_cell_length_b       11.67
_cell_length_c       11.67
_cell_angle_alpha    90
_cell_angle_beta     90
_cell_angle_gamma    90

_space_group_name_H-M_alt    "P 1"
_space_group_IT_number       1

loop_
  _space_group_symop_operation_xyz
  'x, y, z'

loop_
  _atom_site_type_symbol
  _atom_site_label
  _atom_site_symmetry_multiplicity
  _atom_site_fract_x
  _atom_site_fract_y
  _atom_site_fract_z
  _atom_site_occupancy
  Co  Co1       1.0  0.12920  0.87080  0.12920  1.0000
  Co  Co2       1.0  0.12920  0.12920  0.12920  1.0000
  Co  Co3       1.0  0.87080  0.12920  0.12920  1.0000
  Co  Co4       1.0  0.87080  0.87080  0.12920  1.0000
  Co  Co5       1.0  0.12920  0.12920  0.87080  1.0000
  Co  Co6       1.0  0.87080  0.12920  0.87080  1.0000
  Co  Co7       1.0  0.87080  0.87080  0.87080  1.0000
  Co  Co8       1.0  0.12920  0.87080  0.87080  1.0000
  Co  Co9       1.0  0.50000  1.00000  0.50000  1.0000
  Co  Co10      1.0  0.00000  0.50000  0.50000  1.0000
  Co  Co11      1.0  0.50000  0.50000  1.00000  1.0000
  N   N1        1.0  0.24380  0.94230  0.24380  1.0000
  N   N2        1.0  0.05770  0.24380  0.24380  1.0000
  N   N3        1.0  0.75620  0.05770  0.24380  1.0000
  N   N4        1.0  0.94230  0.75620  0.24380  1.0000
  N   N5        1.0  0.24380  0.05770  0.75620  1.0000
  N   N6        1.0  0.94230  0.24380  0.75620  1.0000
  N   N7        1.0  0.75620  0.94230  0.75620  1.0000
  N   N8        1.0  0.05770  0.75620  0.75620  1.0000
  N   N9        1.0  0.24380  0.24380  0.94230  1.0000
  N   N10       1.0  0.75620  0.24380  0.94230  1.0000
  N   N11       1.0  0.75620  0.75620  0.94230  1.0000
  N   N12       1.0  0.24380  0.75620  0.94230  1.0000
  N   N13       1.0  0.24380  0.75620  0.05770  1.0000
  N   N14       1.0  0.24380  0.24380  0.05770  1.0000
  N   N15       1.0  0.75620  0.24380  0.05770  1.0000
  N   N16       1.0  0.75620  0.75620  0.05770  1.0000
  N   N17       1.0  0.94230  0.24380  0.24380  1.0000
  N   N18       1.0  0.75620  0.05770  0.75620  1.0000
  N   N19       1.0  0.75620  0.94230  0.24380  1.0000
  N   N20       1.0  0.24380  0.94230  0.75620  1.0000
  N   N21       1.0  0.24380  0.05770  0.24380  1.0000
  N   N22       1.0  0.94230  0.75620  0.75620  1.0000
  N   N23       1.0  0.05770  0.75620  0.24380  1.0000
  N   N24       1.0  0.05770  0.24380  0.75620  1.0000
  N   N25       1.0  0.37190  1.00000  0.37190  1.0000
  N   N26       1.0  0.00000  0.37190  0.37190  1.0000
  N   N27       1.0  0.62810  0.00000  0.37190  1.0000
  N   N28       1.0  1.00000  0.62810  0.37190  1.0000
  N   N29       1.0  0.37190  0.00000  0.62810  1.0000
  N   N30       1.0  1.00000  0.37190  0.62810  1.0000
  N   N31       1.0  0.62810  1.00000  0.62810  1.0000
  N   N32       1.0  0.00000  0.62810  0.62810  1.0000
  N   N33       1.0  0.37190  0.37190  1.00000  1.0000
  N   N34       1.0  0.62810  0.37190  1.00000  1.0000
  N   N35       1.0  0.62810  0.62810  1.00000  1.0000
  N   N36       1.0  0.37190  0.62810  1.00000  1.0000
  O   O1        1.0  0.00000  0.82470  0.00000  1.0000
  O   O2        1.0  0.17530  0.00000  0.00000  1.0000
  O   O3        1.0  0.00000  0.17530  0.00000  1.0000
  O   O4        1.0  0.82470  0.00000  0.00000  1.0000
  O   O5        1.0  0.00000  0.00000  0.82470  1.0000
  O   O6        1.0  0.00000  0.00000  0.17530  1.0000
  H   H1        1.0  0.00000  0.75190  0.00000  1.0000
  H   H2        1.0  0.24810  0.00000  0.00000  1.0000
  H   H3        1.0  0.00000  0.24810  0.00000  1.0000
  H   H4        1.0  0.75190  0.00000  0.00000  1.0000
  H   H5        1.0  0.00000  0.00000  0.75190  1.0000
  H   H6        1.0  0.00000  0.00000  0.24810  1.0000
  C   C1        1.0  0.32150  0.91200  0.32150  1.0000
  C   C2        1.0  0.08800  0.32150  0.32150  1.0000
  C   C3        1.0  0.67850  0.08800  0.32150  1.0000
  C   C4        1.0  0.91200  0.67850  0.32150  1.0000
  C   C5        1.0  0.32150  0.08800  0.67850  1.0000
  C   C6        1.0  0.91200  0.32150  0.67850  1.0000
  C   C7        1.0  0.67850  0.91200  0.67850  1.0000
  C   C8        1.0  0.08800  0.67850  0.67850  1.0000
  C   C9        1.0  0.32150  0.32150  0.91200  1.0000
  C   C10       1.0  0.67850  0.32150  0.91200  1.0000
  C   C11       1.0  0.67850  0.67850  0.91200  1.0000
  C   C12       1.0  0.32150  0.67850  0.91200  1.0000
  C   C13       1.0  0.32150  0.67850  0.08800  1.0000
  C   C14       1.0  0.32150  0.32150  0.08800  1.0000
  C   C15       1.0  0.67850  0.32150  0.08800  1.0000
  C   C16       1.0  0.67850  0.67850  0.08800  1.0000
  C   C17       1.0  0.91200  0.32150  0.32150  1.0000
  C   C18       1.0  0.67850  0.08800  0.67850  1.0000
  C   C19       1.0  0.67850  0.91200  0.32150  1.0000
  C   C20       1.0  0.32150  0.91200  0.67850  1.0000
  C   C21       1.0  0.32150  0.08800  0.32150  1.0000
  C   C22       1.0  0.91200  0.67850  0.67850  1.0000
  C   C23       1.0  0.08800  0.67850  0.32150  1.0000
  C   C24       1.0  0.08800  0.32150  0.67850  1.0000
  H   H7        1.0  0.33870  0.83610  0.33870  1.0000
  H   H8        1.0  0.16390  0.33870  0.33870  1.0000
  H   H9        1.0  0.66130  0.16390  0.33870  1.0000
  H   H10       1.0  0.83610  0.66130  0.33870  1.0000
  H   H11       1.0  0.33870  0.16390  0.66130  1.0000
  H   H12       1.0  0.83610  0.33870  0.66130  1.0000
  H   H13       1.0  0.66130  0.83610  0.66130  1.0000
  H   H14       1.0  0.16390  0.66130  0.66130  1.0000
  H   H15       1.0  0.33870  0.33870  0.83610  1.0000
  H   H16       1.0  0.66130  0.33870  0.83610  1.0000
  H   H17       1.0  0.66130  0.66130  0.83610  1.0000
  H   H18       1.0  0.33870  0.66130  0.83610  1.0000
  H   H19       1.0  0.33870  0.66130  0.16390  1.0000
  H   H20       1.0  0.33870  0.33870  0.16390  1.0000
  H   H21       1.0  0.66130  0.33870  0.16390  1.0000
  H   H22       1.0  0.66130  0.66130  0.16390  1.0000
  H   H23       1.0  0.83610  0.33870  0.33870  1.0000
  H   H24       1.0  0.66130  0.16390  0.66130  1.0000
  H   H25       1.0  0.66130  0.83610  0.33870  1.0000
  H   H26       1.0  0.33870  0.83610  0.66130  1.0000
  H   H27       1.0  0.33870  0.16390  0.33870  1.0000
  H   H28       1.0  0.83610  0.66130  0.66130  1.0000
  H   H29       1.0  0.16390  0.66130  0.33870  1.0000
  H   H30       1.0  0.16390  0.33870  0.66130  1.0000
  C   C25       1.0  0.50000  0.17600  0.50000  1.0000
  C   C26       1.0  0.82400  0.50000  0.50000  1.0000
  C   C27       1.0  0.50000  0.82400  0.50000  1.0000
  C   C28       1.0  0.17600  0.50000  0.50000  1.0000
  C   C29       1.0  0.50000  0.50000  0.17600  1.0000
  C   C30       1.0  0.50000  0.50000  0.82400  1.0000
  N   N37       1.0  0.50000  0.27790  0.50000  1.0000
  N   N38       1.0  0.72210  0.50000  0.50000  1.0000
  N   N39       1.0  0.50000  0.72210  0.50000  1.0000
  N   N40       1.0  0.27790  0.50000  0.50000  1.0000
  N   N41       1.0  0.50000  0.50000  0.27790  1.0000
  N   N42       1.0  0.50000  0.50000  0.72210  1.0000
