data_image0
_chemical_formula_structural       Cu4S16C4
_chemical_formula_sum              "Cu4 S16 C4"
_cell_length_a       9.254
_cell_length_b       10.737
_cell_length_c       10.887
_cell_angle_alpha    78.62
_cell_angle_beta     74.18
_cell_angle_gamma    68.22

_space_group_name_H-M_alt    "P 1"
_space_group_IT_number       1

loop_
  _space_group_symop_operation_xyz
  'x, y, z'

loop_
  _atom_site_type_symbol
  _atom_site_label
  _atom_site_symmetry_multiplicity
  _atom_site_fract_x
  _atom_site_fract_y
  _atom_site_fract_z
  _atom_site_occupancy
  Cu  Cu1       1.0  0.43160  0.05884  0.89112  1.0000
  Cu  Cu2       1.0  0.56840  0.94116  0.10888  1.0000
  Cu  Cu3       1.0  0.91871  0.54752  0.61596  1.0000
  Cu  Cu4       1.0  0.08129  0.45248  0.38404  1.0000
  S   S1        1.0  0.00230  0.31708  0.58091  1.0000
  S   S2        1.0  0.99770  0.68292  0.41909  1.0000
  S   S3        1.0  0.19141  0.22864  0.66985  1.0000
  S   S4        1.0  0.80859  0.77136  0.33015  1.0000
  S   S5        1.0  0.35417  0.28587  0.83318  1.0000
  S   S6        1.0  0.64583  0.71413  0.16682  1.0000
  S   S7        1.0  0.09173  0.51067  0.74230  1.0000
  S   S8        1.0  0.90827  0.48933  0.25770  1.0000
  S   S9        1.0  0.70718  0.96530  0.88360  1.0000
  S   S10       1.0  0.29282  0.03470  0.11640  1.0000
  S   S11       1.0  0.76984  0.79393  0.79801  1.0000
  S   S12       1.0  0.23016  0.20607  0.20199  1.0000
  S   S13       1.0  0.42042  0.89624  0.79255  1.0000
  S   S14       1.0  0.57958  0.10376  0.20745  1.0000
  S   S15       1.0  0.64691  0.64523  0.68194  1.0000
  S   S16       1.0  0.35309  0.35477  0.31806  1.0000
  C   C1        1.0  0.20980  0.34770  0.74770  1.0000
  C   C2        1.0  0.79020  0.65230  0.25230  1.0000
  C   C3        1.0  0.60690  0.78260  0.75890  1.0000
  C   C4        1.0  0.39310  0.21740  0.24110  1.0000
