data_image0
_chemical_formula_structural       C12Co4O24
_chemical_formula_sum              "C12 Co4 O24"
_cell_length_a       9.056
_cell_length_b       9.686
_cell_length_c       14.356
_cell_angle_alpha    91.39
_cell_angle_beta     97.77
_cell_angle_gamma    113.5

_space_group_name_H-M_alt    "P 1"
_space_group_IT_number       1

loop_
  _space_group_symop_operation_xyz
  'x, y, z'

loop_
  _atom_site_type_symbol
  _atom_site_label
  _atom_site_symmetry_multiplicity
  _atom_site_fract_x
  _atom_site_fract_y
  _atom_site_fract_z
  _atom_site_occupancy
  C   C1        1.0  0.00060  0.95420  0.45500  1.0000
  C   C2        1.0  0.99940  0.04580  0.54500  1.0000
  C   C3        1.0  0.48940  0.91720  0.50040  1.0000
  C   C4        1.0  0.51060  0.08280  0.49960  1.0000
  C   C5        1.0  0.09090  0.51360  0.00380  1.0000
  C   C6        1.0  0.90910  0.48640  0.99620  1.0000
  C   C7        1.0  0.05430  0.00240  0.04730  1.0000
  C   C8        1.0  0.94570  0.99760  0.95270  1.0000
  C   C9        1.0  0.88890  0.23240  0.26030  1.0000
  C   C10       1.0  0.11110  0.76760  0.73970  1.0000
  C   C11       1.0  0.74380  0.09180  0.20960  1.0000
  C   C12       1.0  0.25620  0.90820  0.79040  1.0000
  Co  Co1       1.0  0.93497  0.22836  0.07117  1.0000
  Co  Co2       1.0  0.06503  0.77164  0.92883  1.0000
  Co  Co3       1.0  0.75336  0.06002  0.40593  1.0000
  Co  Co4       1.0  0.24664  0.93998  0.59407  1.0000
  O   O1        1.0  0.90110  0.94610  0.38400  1.0000
  O   O2        1.0  0.09890  0.05390  0.61600  1.0000
  O   O3        1.0  0.09790  0.89120  0.46260  1.0000
  O   O4        1.0  0.90210  0.10880  0.53740  1.0000
  O   O5        1.0  0.57710  0.87490  0.45620  1.0000
  O   O6        1.0  0.42290  0.12510  0.54380  1.0000
  O   O7        1.0  0.38890  0.83640  0.54910  1.0000
  O   O8        1.0  0.61110  0.16360  0.45090  1.0000
  O   O9        1.0  0.13030  0.41150  0.03230  1.0000
  O   O10       1.0  0.86970  0.58850  0.96770  1.0000
  O   O11       1.0  0.18530  0.63960  0.97990  1.0000
  O   O12       1.0  0.81470  0.36040  0.02010  1.0000
  O   O13       1.0  0.06910  0.09930  0.11120  1.0000
  O   O14       1.0  0.93090  0.90070  0.88880  1.0000
  O   O15       1.0  0.11500  0.90690  0.05310  1.0000
  O   O16       1.0  0.88500  0.09310  0.94690  1.0000
  O   O17       1.0  0.97890  0.32050  0.20890  1.0000
  O   O18       1.0  0.02110  0.67950  0.79110  1.0000
  O   O19       1.0  0.90450  0.25320  0.34830  1.0000
  O   O20       1.0  0.09550  0.74680  0.65170  1.0000
  O   O21       1.0  0.73040  0.07110  0.12310  1.0000
  O   O22       1.0  0.26960  0.92890  0.87690  1.0000
  O   O23       1.0  0.64840  0.00740  0.26120  1.0000
  O   O24       1.0  0.35160  0.99260  0.73880  1.0000
