data_image0
_chemical_formula_structural       C12O24Zn4
_chemical_formula_sum              "C12 O24 Zn4"
_cell_length_a       9.11
_cell_length_b       9.723
_cell_length_c       14.337
_cell_angle_alpha    91.703
_cell_angle_beta     97.738
_cell_angle_gamma    113.407

_space_group_name_H-M_alt    "P 1"
_space_group_IT_number       1

loop_
  _space_group_symop_operation_xyz
  'x, y, z'

loop_
  _atom_site_type_symbol
  _atom_site_label
  _atom_site_symmetry_multiplicity
  _atom_site_fract_x
  _atom_site_fract_y
  _atom_site_fract_z
  _atom_site_occupancy
  C   C1        1.0  0.49560  0.44970  0.45530  1.0000
  C   C2        1.0  0.50440  0.55030  0.54470  1.0000
  C   C3        1.0  0.98750  0.41590  0.49930  1.0000
  C   C4        1.0  0.01250  0.58410  0.50070  1.0000
  C   C5        1.0  0.38950  0.73390  0.26060  1.0000
  C   C6        1.0  0.61050  0.26610  0.73940  1.0000
  C   C7        1.0  0.24380  0.59160  0.21020  1.0000
  C   C8        1.0  0.75620  0.40840  0.78980  1.0000
  C   C9        1.0  0.55710  0.50460  0.04740  1.0000
  C   C10       1.0  0.44290  0.49540  0.95260  1.0000
  C   C11       1.0  0.59140  0.01500  0.00430  1.0000
  C   C12       1.0  0.40860  0.98500  0.99570  1.0000
  O   O1        1.0  0.59040  0.38370  0.46290  1.0000
  O   O2        1.0  0.40960  0.61630  0.53710  1.0000
  O   O3        1.0  0.39550  0.43950  0.38540  1.0000
  O   O4        1.0  0.60450  0.56050  0.61460  1.0000
  O   O5        1.0  0.07560  0.37570  0.45440  1.0000
  O   O6        1.0  0.92440  0.62430  0.54560  1.0000
  O   O7        1.0  0.88300  0.33330  0.54470  1.0000
  O   O8        1.0  0.11700  0.66670  0.45530  1.0000
  O   O9        1.0  0.40320  0.75250  0.34900  1.0000
  O   O10       1.0  0.59680  0.24750  0.65100  1.0000
  O   O11       1.0  0.15070  0.50710  0.26150  1.0000
  O   O12       1.0  0.84930  0.49290  0.73850  1.0000
  O   O13       1.0  0.48210  0.81930  0.21010  1.0000
  O   O14       1.0  0.51790  0.18070  0.78990  1.0000
  O   O15       1.0  0.23000  0.57250  0.12250  1.0000
  O   O16       1.0  0.77000  0.42750  0.87750  1.0000
  O   O17       1.0  0.57610  0.60500  0.10970  1.0000
  O   O18       1.0  0.42390  0.39500  0.89030  1.0000
  O   O19       1.0  0.61840  0.41030  0.05230  1.0000
  O   O20       1.0  0.38160  0.58970  0.94770  1.0000
  O   O21       1.0  0.63210  0.91350  0.03400  1.0000
  O   O22       1.0  0.36790  0.08650  0.96600  1.0000
  O   O23       1.0  0.68450  0.14120  0.98170  1.0000
  O   O24       1.0  0.31550  0.85880  0.01830  1.0000
  Zn  Zn1       1.0  0.25405  0.56148  0.40704  1.0000
  Zn  Zn2       1.0  0.74595  0.43852  0.59296  1.0000
  Zn  Zn3       1.0  0.43630  0.72904  0.07061  1.0000
  Zn  Zn4       1.0  0.56370  0.27096  0.92939  1.0000
