data_image0
_chemical_formula_structural       U20S16O52H4O4H4O80C16H4C4H4C4H4C4H4C16H4C4H4C4H4C4H4C16H4C4H4C4H4C4H4C16H4C4H4C4H4C4H4
_chemical_formula_sum              "U20 S16 O136 H72 C112"
_cell_length_a       13.3465
_cell_length_b       28.5557
_cell_length_c       16.3283
_cell_angle_alpha    90
_cell_angle_beta     97.2807
_cell_angle_gamma    90

_space_group_name_H-M_alt    "P 1"
_space_group_IT_number       1

loop_
  _space_group_symop_operation_xyz
  'x, y, z'

loop_
  _atom_site_type_symbol
  _atom_site_label
  _atom_site_symmetry_multiplicity
  _atom_site_fract_x
  _atom_site_fract_y
  _atom_site_fract_z
  _atom_site_occupancy
  U   U1        1.0  0.60560  0.10672  0.30526  1.0000
  U   U2        1.0  0.89440  0.60672  0.19474  1.0000
  U   U3        1.0  0.39440  0.89328  0.69474  1.0000
  U   U4        1.0  0.10560  0.39328  0.80526  1.0000
  U   U5        1.0  0.32978  0.12231  0.18615  1.0000
  U   U6        1.0  0.17022  0.62231  0.31385  1.0000
  U   U7        1.0  0.67022  0.87769  0.81385  1.0000
  U   U8        1.0  0.82978  0.37769  0.68615  1.0000
  U   U9        1.0  0.36217  0.12452  0.41709  1.0000
  U   U10       1.0  0.13783  0.62452  0.08291  1.0000
  U   U11       1.0  0.63783  0.87548  0.58291  1.0000
  U   U12       1.0  0.86217  0.37548  0.91709  1.0000
  U   U13       1.0  0.88258  0.11932  0.42271  1.0000
  U   U14       1.0  0.61742  0.61932  0.07729  1.0000
  U   U15       1.0  0.11742  0.88068  0.57730  1.0000
  U   U16       1.0  0.38258  0.38068  0.92271  1.0000
  U   U17       1.0  0.85039  0.11852  0.19366  1.0000
  U   U18       1.0  0.64961  0.61852  0.30634  1.0000
  U   U19       1.0  0.14961  0.88148  0.80634  1.0000
  U   U20       1.0  0.35039  0.38148  0.69366  1.0000
  S   S1        1.0  0.41700  0.14133  0.98484  1.0000
  S   S2        1.0  0.08300  0.64133  0.51516  1.0000
  S   S3        1.0  0.58300  0.85867  0.01516  1.0000
  S   S4        1.0  0.91700  0.35867  0.48484  1.0000
  S   S5        1.0  0.79290  0.15144  0.61673  1.0000
  S   S6        1.0  0.70710  0.65144  0.88327  1.0000
  S   S7        1.0  0.20710  0.84856  0.38327  1.0000
  S   S8        1.0  0.29290  0.34856  0.11673  1.0000
  S   S9        1.0  0.35394  0.13907  0.63672  1.0000
  S   S10       1.0  0.14606  0.63907  0.86328  1.0000
  S   S11       1.0  0.64606  0.86093  0.36328  1.0000
  S   S12       1.0  0.85394  0.36093  0.13672  1.0000
  S   S13       1.0  0.86588  0.13746  0.97579  1.0000
  S   S14       1.0  0.63412  0.63746  0.52421  1.0000
  S   S15       1.0  0.13412  0.86254  0.02421  1.0000
  S   S16       1.0  0.36588  0.36254  0.47579  1.0000
  O   O1        1.0  0.60070  0.04440  0.30250  1.0000
  O   O2        1.0  0.89930  0.54440  0.19750  1.0000
  O   O3        1.0  0.39930  0.95560  0.69750  1.0000
  O   O4        1.0  0.10070  0.45560  0.80250  1.0000
  O   O5        1.0  0.60910  0.16891  0.30670  1.0000
  O   O6        1.0  0.89090  0.66891  0.19330  1.0000
  O   O7        1.0  0.39090  0.83109  0.69330  1.0000
  O   O8        1.0  0.10910  0.33109  0.80670  1.0000
  O   O9        1.0  0.30180  0.06128  0.18080  1.0000
  O   O10       1.0  0.19820  0.56128  0.31920  1.0000
  O   O11       1.0  0.69820  0.93872  0.81920  1.0000
  O   O12       1.0  0.80180  0.43872  0.68080  1.0000
  O   O13       1.0  0.35120  0.18411  0.18820  1.0000
  O   O14       1.0  0.14880  0.68411  0.31180  1.0000
  O   O15       1.0  0.64880  0.81589  0.81180  1.0000
  O   O16       1.0  0.85120  0.31589  0.68820  1.0000
  O   O17       1.0  0.33550  0.06419  0.42870  1.0000
  O   O18       1.0  0.16450  0.56419  0.07130  1.0000
  O   O19       1.0  0.66450  0.93581  0.57130  1.0000
  O   O20       1.0  0.83550  0.43581  0.92870  1.0000
  O   O21       1.0  0.38670  0.18580  0.40970  1.0000
  O   O22       1.0  0.11330  0.68580  0.09030  1.0000
  O   O23       1.0  0.61330  0.81420  0.59030  1.0000
  O   O24       1.0  0.88670  0.31420  0.90970  1.0000
  O   O25       1.0  0.90290  0.05823  0.44210  1.0000
  O   O26       1.0  0.59710  0.55823  0.05790  1.0000
  O   O27       1.0  0.09710  0.94177  0.55790  1.0000
  O   O28       1.0  0.40290  0.44177  0.94210  1.0000
  O   O29       1.0  0.86620  0.18109  0.41000  1.0000
  O   O30       1.0  0.63380  0.68109  0.09000  1.0000
  O   O31       1.0  0.13380  0.81891  0.59000  1.0000
  O   O32       1.0  0.36620  0.31891  0.91000  1.0000
  O   O33       1.0  0.86930  0.05734  0.17990  1.0000
  O   O34       1.0  0.63070  0.55734  0.32010  1.0000
  O   O35       1.0  0.13070  0.94266  0.82010  1.0000
  O   O36       1.0  0.36930  0.44266  0.67990  1.0000
  O   O37       1.0  0.83280  0.17998  0.20300  1.0000
  O   O38       1.0  0.66720  0.67998  0.29700  1.0000
  O   O39       1.0  0.16720  0.82002  0.79700  1.0000
  O   O40       1.0  0.33280  0.32002  0.70300  1.0000
  O   O41       1.0  0.43520  0.11206  0.30170  1.0000
  O   O42       1.0  0.06480  0.61206  0.19830  1.0000
  O   O43       1.0  0.56480  0.88794  0.69830  1.0000
  O   O44       1.0  0.93520  0.38794  0.80170  1.0000
  O   O45       1.0  0.77500  0.10676  0.30760  1.0000
  O   O46       1.0  0.72500  0.60676  0.19240  1.0000
  O   O47       1.0  0.22500  0.89324  0.69240  1.0000
  O   O48       1.0  0.27500  0.39324  0.80760  1.0000
  O   O49       1.0  0.24020  0.13317  0.29980  1.0000
  O   O50       1.0  0.25980  0.63317  0.20020  1.0000
  O   O51       1.0  0.75980  0.86683  0.70020  1.0000
  O   O52       1.0  0.74020  0.36683  0.79980  1.0000
  H   H1        1.0  0.20460  0.10880  0.30040  1.0000
  H   H2        1.0  0.29540  0.60880  0.19960  1.0000
  H   H3        1.0  0.79540  0.89120  0.69960  1.0000
  H   H4        1.0  0.70460  0.39120  0.80040  1.0000
  O   O53       1.0  0.97210  0.11787  0.30970  1.0000
  O   O54       1.0  0.52790  0.61787  0.19030  1.0000
  O   O55       1.0  0.02790  0.88213  0.69030  1.0000
  O   O56       1.0  0.47210  0.38213  0.80970  1.0000
  H   H5        1.0  0.01990  0.09260  0.30630  1.0000
  H   H6        1.0  0.48010  0.59260  0.19370  1.0000
  H   H7        1.0  0.98010  0.90740  0.69370  1.0000
  H   H8        1.0  0.51990  0.40740  0.80630  1.0000
  O   O57       1.0  0.50500  0.10554  0.15950  1.0000
  O   O58       1.0  0.99500  0.60554  0.34050  1.0000
  O   O59       1.0  0.49500  0.89446  0.84050  1.0000
  O   O60       1.0  0.00500  0.39446  0.65950  1.0000
  O   O61       1.0  0.66710  0.10470  0.16120  1.0000
  O   O62       1.0  0.83290  0.60470  0.33880  1.0000
  O   O63       1.0  0.33290  0.89530  0.83880  1.0000
  O   O64       1.0  0.16710  0.39530  0.66120  1.0000
  O   O65       1.0  0.34070  0.12526  0.03760  1.0000
  O   O66       1.0  0.15930  0.62526  0.46240  1.0000
  O   O67       1.0  0.65930  0.87474  0.96240  1.0000
  O   O68       1.0  0.84070  0.37474  0.53760  1.0000
  O   O69       1.0  0.37030  0.15400  0.90370  1.0000
  O   O70       1.0  0.12970  0.65400  0.59630  1.0000
  O   O71       1.0  0.62970  0.84600  0.09630  1.0000
  O   O72       1.0  0.87030  0.34600  0.40370  1.0000
  O   O73       1.0  0.48250  0.17685  0.02560  1.0000
  O   O74       1.0  0.01750  0.67685  0.47440  1.0000
  O   O75       1.0  0.51750  0.82315  0.97440  1.0000
  O   O76       1.0  0.98250  0.32315  0.52560  1.0000
  O   O77       1.0  0.54300  0.10452  0.44920  1.0000
  O   O78       1.0  0.95700  0.60452  0.05080  1.0000
  O   O79       1.0  0.45700  0.89548  0.55080  1.0000
  O   O80       1.0  0.04300  0.39548  0.94920  1.0000
  O   O81       1.0  0.70510  0.10658  0.45060  1.0000
  O   O82       1.0  0.79490  0.60658  0.04940  1.0000
  O   O83       1.0  0.29490  0.89342  0.54940  1.0000
  O   O84       1.0  0.20510  0.39342  0.95060  1.0000
  O   O85       1.0  0.87130  0.13330  0.56860  1.0000
  O   O86       1.0  0.62870  0.63330  0.93140  1.0000
  O   O87       1.0  0.12870  0.86670  0.43140  1.0000
  O   O88       1.0  0.37130  0.36670  0.06860  1.0000
  O   O89       1.0  0.72400  0.18365  0.57010  1.0000
  O   O90       1.0  0.77600  0.68365  0.92990  1.0000
  O   O91       1.0  0.27600  0.81635  0.42990  1.0000
  O   O92       1.0  0.22400  0.31635  0.07010  1.0000
  O   O93       1.0  0.83770  0.16885  0.69620  1.0000
  O   O94       1.0  0.66230  0.66885  0.80380  1.0000
  O   O95       1.0  0.16230  0.83115  0.30380  1.0000
  O   O96       1.0  0.33770  0.33115  0.19620  1.0000
  O   O97       1.0  0.21100  0.14008  0.47450  1.0000
  O   O98       1.0  0.28900  0.64008  0.02550  1.0000
  O   O99       1.0  0.78900  0.85992  0.52550  1.0000
  O   O100      1.0  0.71100  0.35992  0.97450  1.0000
  O   O101      1.0  0.04950  0.13317  0.48760  1.0000
  O   O102      1.0  0.45050  0.63317  0.01240  1.0000
  O   O103      1.0  0.95050  0.86683  0.51240  1.0000
  O   O104      1.0  0.54950  0.36683  0.98760  1.0000
  O   O105      1.0  0.40600  0.13027  0.56450  1.0000
  O   O106      1.0  0.09400  0.63027  0.93550  1.0000
  O   O107      1.0  0.59400  0.86973  0.43550  1.0000
  O   O108      1.0  0.90600  0.36973  0.06450  1.0000
  O   O109      1.0  0.30330  0.18290  0.63230  1.0000
  O   O110      1.0  0.19670  0.68290  0.86770  1.0000
  O   O111      1.0  0.69670  0.81710  0.36770  1.0000
  O   O112      1.0  0.80330  0.31710  0.13230  1.0000
  O   O113      1.0  0.42360  0.13260  0.71280  1.0000
  O   O114      1.0  0.07640  0.63260  0.78720  1.0000
  O   O115      1.0  0.57640  0.86740  0.28720  1.0000
  O   O116      1.0  0.92360  0.36740  0.21280  1.0000
  O   O117      1.0  0.00480  0.13329  0.14130  1.0000
  O   O118      1.0  0.49520  0.63329  0.35870  1.0000
  O   O119      1.0  0.99520  0.86671  0.85870  1.0000
  O   O120      1.0  0.50480  0.36671  0.64130  1.0000
  O   O121      1.0  0.16360  0.13308  0.12050  1.0000
  O   O122      1.0  0.33640  0.63308  0.37950  1.0000
  O   O123      1.0  0.83640  0.86692  0.87950  1.0000
  O   O124      1.0  0.66360  0.36692  0.62050  1.0000
  O   O125      1.0  0.80990  0.12569  0.04550  1.0000
  O   O126      1.0  0.69010  0.62569  0.45450  1.0000
  O   O127      1.0  0.19010  0.87431  0.95450  1.0000
  O   O128      1.0  0.30990  0.37431  0.54550  1.0000
  O   O129      1.0  0.92060  0.18104  0.98880  1.0000
  O   O130      1.0  0.57940  0.68104  0.51120  1.0000
  O   O131      1.0  0.07940  0.81896  0.01120  1.0000
  O   O132      1.0  0.42060  0.31896  0.48880  1.0000
  O   O133      1.0  0.79980  0.13490  0.89920  1.0000
  O   O134      1.0  0.70020  0.63490  0.60080  1.0000
  O   O135      1.0  0.20020  0.86510  0.10080  1.0000
  O   O136      1.0  0.29980  0.36510  0.39920  1.0000
  C   C1        1.0  0.58080  0.09845  0.12220  1.0000
  C   C2        1.0  0.91920  0.59845  0.37780  1.0000
  C   C3        1.0  0.41920  0.90155  0.87780  1.0000
  C   C4        1.0  0.08080  0.40155  0.62220  1.0000
  C   C5        1.0  0.56850  0.07855  0.03780  1.0000
  C   C6        1.0  0.93150  0.57855  0.46220  1.0000
  C   C7        1.0  0.43150  0.92145  0.96220  1.0000
  C   C8        1.0  0.06850  0.42145  0.53780  1.0000
  C   C9        1.0  0.49370  0.09220  0.97410  1.0000
  C   C10       1.0  0.00630  0.59220  0.52590  1.0000
  C   C11       1.0  0.50630  0.90780  0.02590  1.0000
  C   C12       1.0  0.99370  0.40780  0.47410  1.0000
  C   C13       1.0  0.48190  0.06790  0.90090  1.0000
  C   C14       1.0  0.01810  0.56790  0.59910  1.0000
  C   C15       1.0  0.51810  0.93210  0.09910  1.0000
  C   C16       1.0  0.98190  0.43210  0.40090  1.0000
  H   H9        1.0  0.43410  0.07780  0.85800  1.0000
  H   H10       1.0  0.06590  0.57780  0.64200  1.0000
  H   H11       1.0  0.56590  0.92220  0.14200  1.0000
  H   H12       1.0  0.93410  0.42220  0.35800  1.0000
  C   C17       1.0  0.53990  0.02880  0.88990  1.0000
  C   C18       1.0  0.96010  0.52880  0.61010  1.0000
  C   C19       1.0  0.46010  0.97120  0.11010  1.0000
  C   C20       1.0  0.03990  0.47120  0.38990  1.0000
  H   H13       1.0  0.52880  0.01180  0.84100  1.0000
  H   H14       1.0  0.97120  0.51180  0.65900  1.0000
  H   H15       1.0  0.47120  0.98820  0.15900  1.0000
  H   H16       1.0  0.02880  0.48820  0.34100  1.0000
  C   C21       1.0  0.61430  0.01500  0.95180  1.0000
  C   C22       1.0  0.88570  0.51500  0.54820  1.0000
  C   C23       1.0  0.38570  0.98500  0.04820  1.0000
  C   C24       1.0  0.11430  0.48500  0.45180  1.0000
  H   H17       1.0  0.65330  0.98870  0.94450  1.0000
  H   H18       1.0  0.84670  0.48870  0.55550  1.0000
  H   H19       1.0  0.34670  0.01130  0.05550  1.0000
  H   H20       1.0  0.15330  0.51130  0.44450  1.0000
  C   C25       1.0  0.63100  0.04020  0.02450  1.0000
  C   C26       1.0  0.86900  0.54020  0.47550  1.0000
  C   C27       1.0  0.36900  0.95980  0.97550  1.0000
  C   C28       1.0  0.13100  0.45980  0.52450  1.0000
  H   H21       1.0  0.68360  0.03190  0.06480  1.0000
  H   H22       1.0  0.81640  0.53190  0.43520  1.0000
  H   H23       1.0  0.31640  0.96810  0.93520  1.0000
  H   H24       1.0  0.18360  0.46810  0.56480  1.0000
  C   C29       1.0  0.62990  0.10069  0.48970  1.0000
  C   C30       1.0  0.87010  0.60069  0.01030  1.0000
  C   C31       1.0  0.37010  0.89931  0.51030  1.0000
  C   C32       1.0  0.12990  0.39931  0.98970  1.0000
  C   C33       1.0  0.64310  0.08494  0.57580  1.0000
  C   C34       1.0  0.85690  0.58494  0.92420  1.0000
  C   C35       1.0  0.35690  0.91506  0.42420  1.0000
  C   C36       1.0  0.14310  0.41506  0.07580  1.0000
  C   C37       1.0  0.71870  0.10253  0.63620  1.0000
  C   C38       1.0  0.78130  0.60253  0.86380  1.0000
  C   C39       1.0  0.28130  0.89747  0.36380  1.0000
  C   C40       1.0  0.21870  0.39747  0.13620  1.0000
  C   C41       1.0  0.73360  0.08270  0.71450  1.0000
  C   C42       1.0  0.76640  0.58270  0.78550  1.0000
  C   C43       1.0  0.26640  0.91730  0.28550  1.0000
  C   C44       1.0  0.23360  0.41730  0.21450  1.0000
  H   H25       1.0  0.78130  0.09540  0.75480  1.0000
  H   H26       1.0  0.71870  0.59540  0.74520  1.0000
  H   H27       1.0  0.21870  0.90460  0.24520  1.0000
  H   H28       1.0  0.28130  0.40460  0.25480  1.0000
  C   C45       1.0  0.67800  0.04440  0.73270  1.0000
  C   C46       1.0  0.82200  0.54440  0.76730  1.0000
  C   C47       1.0  0.32200  0.95560  0.26730  1.0000
  C   C48       1.0  0.17800  0.45560  0.23270  1.0000
  H   H29       1.0  0.69050  0.03040  0.78440  1.0000
  H   H30       1.0  0.80950  0.53040  0.71560  1.0000
  H   H31       1.0  0.30950  0.96960  0.21560  1.0000
  H   H32       1.0  0.19050  0.46960  0.28440  1.0000
  C   C49       1.0  0.60230  0.02610  0.67350  1.0000
  C   C50       1.0  0.89770  0.52610  0.82650  1.0000
  C   C51       1.0  0.39770  0.97390  0.32650  1.0000
  C   C52       1.0  0.10230  0.47390  0.17350  1.0000
  H   H33       1.0  0.56460  0.00020  0.68560  1.0000
  H   H34       1.0  0.93540  0.50020  0.81440  1.0000
  H   H35       1.0  0.43540  0.99980  0.31440  1.0000
  H   H36       1.0  0.06460  0.49980  0.18560  1.0000
  C   C53       1.0  0.58500  0.04730  0.59720  1.0000
  C   C54       1.0  0.91500  0.54730  0.90280  1.0000
  C   C55       1.0  0.41500  0.95270  0.40280  1.0000
  C   C56       1.0  0.08500  0.45270  0.09720  1.0000
  H   H37       1.0  0.53310  0.03610  0.55880  1.0000
  H   H38       1.0  0.96690  0.53610  0.94120  1.0000
  H   H39       1.0  0.46690  0.96390  0.44120  1.0000
  H   H40       1.0  0.03310  0.46390  0.05880  1.0000
  C   C57       1.0  0.14150  0.12510  0.51200  1.0000
  C   C58       1.0  0.35850  0.62510  0.98800  1.0000
  C   C59       1.0  0.85850  0.87490  0.48800  1.0000
  C   C60       1.0  0.64150  0.37490  0.01200  1.0000
  C   C61       1.0  0.16640  0.09500  0.58770  1.0000
  C   C62       1.0  0.33360  0.59500  0.91230  1.0000
  C   C63       1.0  0.83360  0.90500  0.41230  1.0000
  C   C64       1.0  0.66640  0.40500  0.08770  1.0000
  C   C65       1.0  0.25900  0.09580  0.63910  1.0000
  C   C66       1.0  0.24100  0.59580  0.86090  1.0000
  C   C67       1.0  0.74100  0.90420  0.36090  1.0000
  C   C68       1.0  0.75900  0.40420  0.13910  1.0000
  C   C69       1.0  0.27820  0.06280  0.70180  1.0000
  C   C70       1.0  0.22180  0.56280  0.79820  1.0000
  C   C71       1.0  0.72180  0.93720  0.29820  1.0000
  C   C72       1.0  0.77820  0.43720  0.20180  1.0000
  H   H41       1.0  0.34060  0.06290  0.73430  1.0000
  H   H42       1.0  0.15940  0.56290  0.76570  1.0000
  H   H43       1.0  0.65940  0.93710  0.26570  1.0000
  H   H44       1.0  0.84060  0.43710  0.23430  1.0000
  C   C73       1.0  0.20680  0.03010  0.71690  1.0000
  C   C74       1.0  0.29320  0.53010  0.78310  1.0000
  C   C75       1.0  0.79320  0.96990  0.28310  1.0000
  C   C76       1.0  0.70680  0.46990  0.21690  1.0000
  H   H45       1.0  0.22090  0.00800  0.75860  1.0000
  H   H46       1.0  0.27910  0.50800  0.74140  1.0000
  H   H47       1.0  0.77910  0.99200  0.24140  1.0000
  H   H48       1.0  0.72090  0.49200  0.25860  1.0000
  C   C77       1.0  0.11330  0.03080  0.66860  1.0000
  C   C78       1.0  0.38670  0.53080  0.83140  1.0000
  C   C79       1.0  0.88670  0.96920  0.33140  1.0000
  C   C80       1.0  0.61330  0.46920  0.16860  1.0000
  H   H49       1.0  0.06330  0.00970  0.67910  1.0000
  H   H50       1.0  0.43670  0.50970  0.82090  1.0000
  H   H51       1.0  0.93670  0.99030  0.32090  1.0000
  H   H52       1.0  0.56330  0.49030  0.17910  1.0000
  C   C81       1.0  0.09480  0.06230  0.60590  1.0000
  C   C82       1.0  0.40520  0.56230  0.89410  1.0000
  C   C83       1.0  0.90520  0.93770  0.39410  1.0000
  C   C84       1.0  0.59480  0.43770  0.10590  1.0000
  H   H53       1.0  0.03200  0.06200  0.57400  1.0000
  H   H54       1.0  0.46800  0.56200  0.92600  1.0000
  H   H55       1.0  0.96800  0.93800  0.42600  1.0000
  H   H56       1.0  0.53200  0.43800  0.07400  1.0000
  C   C85       1.0  0.07320  0.12130  0.10040  1.0000
  C   C86       1.0  0.42680  0.62130  0.39960  1.0000
  C   C87       1.0  0.92680  0.87870  0.89960  1.0000
  C   C88       1.0  0.57320  0.37870  0.60040  1.0000
  C   C89       1.0  0.04910  0.09070  0.02550  1.0000
  C   C90       1.0  0.45090  0.59070  0.47450  1.0000
  C   C91       1.0  0.95090  0.90930  0.97450  1.0000
  C   C92       1.0  0.54910  0.40930  0.52550  1.0000
  C   C93       1.0  0.95900  0.09300  0.97070  1.0000
  C   C94       1.0  0.54100  0.59300  0.52930  1.0000
  C   C95       1.0  0.04100  0.90700  0.02930  1.0000
  C   C96       1.0  0.45900  0.40700  0.47070  1.0000
  C   C97       1.0  0.94160  0.06200  0.90560  1.0000
  C   C98       1.0  0.55840  0.56200  0.59440  1.0000
  C   C99       1.0  0.05840  0.93800  0.09440  1.0000
  C   C100      1.0  0.44160  0.43800  0.40560  1.0000
  H   H57       1.0  0.88150  0.06370  0.86990  1.0000
  H   H58       1.0  0.61850  0.56370  0.63010  1.0000
  H   H59       1.0  0.11850  0.93630  0.13010  1.0000
  H   H60       1.0  0.38150  0.43630  0.36990  1.0000
  C   C101      1.0  0.01280  0.02840  0.89290  1.0000
  C   C102      1.0  0.48720  0.52840  0.60710  1.0000
  C   C103      1.0  0.98720  0.97160  0.10710  1.0000
  C   C104      1.0  0.51280  0.47160  0.39290  1.0000
  H   H61       1.0  0.00030  0.00730  0.84940  1.0000
  H   H62       1.0  0.49970  0.50730  0.65060  1.0000
  H   H63       1.0  0.99970  0.99270  0.15060  1.0000
  H   H64       1.0  0.50030  0.49270  0.34940  1.0000
  C   C105      1.0  0.10280  0.02620  0.94540  1.0000
  C   C106      1.0  0.39720  0.52620  0.55460  1.0000
  C   C107      1.0  0.89720  0.97380  0.05460  1.0000
  C   C108      1.0  0.60280  0.47380  0.44540  1.0000
  H   H65       1.0  0.15130  0.00390  0.93700  1.0000
  H   H66       1.0  0.34870  0.50390  0.56300  1.0000
  H   H67       1.0  0.84870  0.99610  0.06300  1.0000
  H   H68       1.0  0.65130  0.49610  0.43700  1.0000
  C   C109      1.0  0.11970  0.05720  0.00990  1.0000
  C   C110      1.0  0.38030  0.55720  0.49010  1.0000
  C   C111      1.0  0.88030  0.94280  0.99010  1.0000
  C   C112      1.0  0.61970  0.44280  0.50990  1.0000
  H   H69       1.0  0.18070  0.05570  0.04440  1.0000
  H   H70       1.0  0.31930  0.55570  0.45560  1.0000
  H   H71       1.0  0.81930  0.94430  0.95560  1.0000
  H   H72       1.0  0.68070  0.44430  0.54440  1.0000
