data_image0
_chemical_formula_structural       U8S12O80H8C16H4C4H4C4H4C4H4C16H4C4H4C4H4C4H4C16H4C4H4C4H4C4H4
_chemical_formula_sum              "U8 S12 O80 H56 C84"
_cell_length_a       10.743
_cell_length_b       32.178
_cell_length_c       14.3508
_cell_angle_alpha    90
_cell_angle_beta     100.324
_cell_angle_gamma    90

_space_group_name_H-M_alt    "P 1"
_space_group_IT_number       1

loop_
  _space_group_symop_operation_xyz
  'x, y, z'

loop_
  _atom_site_type_symbol
  _atom_site_label
  _atom_site_symmetry_multiplicity
  _atom_site_fract_x
  _atom_site_fract_y
  _atom_site_fract_z
  _atom_site_occupancy
  U   U1        1.0  0.60243  0.38679  0.26569  1.0000
  U   U2        1.0  0.89757  0.88679  0.23431  1.0000
  U   U3        1.0  0.39757  0.61321  0.73431  1.0000
  U   U4        1.0  0.10243  0.11321  0.76569  1.0000
  U   U5        1.0  0.12469  0.40668  0.04868  1.0000
  U   U6        1.0  0.37531  0.90668  0.45132  1.0000
  U   U7        1.0  0.87531  0.59332  0.95132  1.0000
  U   U8        1.0  0.62469  0.09332  0.54868  1.0000
  S   S1        1.0  0.45280  0.38704  0.47520  1.0000
  S   S2        1.0  0.04720  0.88704  0.02480  1.0000
  S   S3        1.0  0.54720  0.61296  0.52480  1.0000
  S   S4        1.0  0.95280  0.11296  0.97520  1.0000
  S   S5        1.0  0.92570  0.38869  0.39530  1.0000
  S   S6        1.0  0.57430  0.88869  0.10470  1.0000
  S   S7        1.0  0.07430  0.61131  0.60470  1.0000
  S   S8        1.0  0.42570  0.11131  0.89530  1.0000
  S   S9        1.0  0.27810  0.39005  0.84650  1.0000
  S   S10       1.0  0.22190  0.89005  0.65350  1.0000
  S   S11       1.0  0.72190  0.60995  0.15350  1.0000
  S   S12       1.0  0.77810  0.10995  0.34650  1.0000
  O   O1        1.0  0.58630  0.33410  0.25450  1.0000
  O   O2        1.0  0.91370  0.83410  0.24550  1.0000
  O   O3        1.0  0.41370  0.66590  0.74550  1.0000
  O   O4        1.0  0.08630  0.16590  0.75450  1.0000
  O   O5        1.0  0.62070  0.43960  0.27760  1.0000
  O   O6        1.0  0.87930  0.93960  0.22240  1.0000
  O   O7        1.0  0.37930  0.56040  0.72240  1.0000
  O   O8        1.0  0.12070  0.06040  0.77760  1.0000
  O   O9        1.0  0.16010  0.35410  0.06370  1.0000
  O   O10       1.0  0.33990  0.85410  0.43630  1.0000
  O   O11       1.0  0.83990  0.64590  0.93630  1.0000
  O   O12       1.0  0.66010  0.14590  0.56370  1.0000
  O   O13       1.0  0.09710  0.45950  0.03750  1.0000
  O   O14       1.0  0.40290  0.95950  0.46250  1.0000
  O   O15       1.0  0.90290  0.54050  0.96250  1.0000
  O   O16       1.0  0.59710  0.04050  0.53750  1.0000
  O   O17       1.0  0.38440  0.39300  0.25940  1.0000
  O   O18       1.0  0.11560  0.89300  0.24060  1.0000
  O   O19       1.0  0.61560  0.60700  0.74060  1.0000
  O   O20       1.0  0.88440  0.10700  0.75940  1.0000
  O   O21       1.0  0.20080  0.41790  0.20830  1.0000
  O   O22       1.0  0.29920  0.91790  0.29170  1.0000
  O   O23       1.0  0.79920  0.58210  0.79170  1.0000
  O   O24       1.0  0.70080  0.08210  0.70830  1.0000
  O   O25       1.0  0.55990  0.38570  0.42390  1.0000
  O   O26       1.0  0.94010  0.88570  0.07610  1.0000
  O   O27       1.0  0.44010  0.61430  0.57610  1.0000
  O   O28       1.0  0.05990  0.11430  0.92390  1.0000
  O   O29       1.0  0.36070  0.35510  0.44620  1.0000
  O   O30       1.0  0.13930  0.85510  0.05380  1.0000
  O   O31       1.0  0.63930  0.64490  0.55380  1.0000
  O   O32       1.0  0.86070  0.14490  0.94620  1.0000
  O   O33       1.0  0.50290  0.38880  0.57640  1.0000
  O   O34       1.0  0.99710  0.88880  0.92360  1.0000
  O   O35       1.0  0.49710  0.61120  0.42360  1.0000
  O   O36       1.0  0.00290  0.11120  0.07640  1.0000
  O   O37       1.0  0.77990  0.38060  0.18430  1.0000
  O   O38       1.0  0.72010  0.88060  0.31570  1.0000
  O   O39       1.0  0.22010  0.61940  0.81570  1.0000
  O   O40       1.0  0.27990  0.11940  0.68430  1.0000
  O   O41       1.0  0.94440  0.39410  0.11710  1.0000
  O   O42       1.0  0.55560  0.89410  0.38290  1.0000
  O   O43       1.0  0.05560  0.60590  0.88290  1.0000
  O   O44       1.0  0.44440  0.10590  0.61710  1.0000
  O   O45       1.0  0.79100  0.37370  0.37680  1.0000
  O   O46       1.0  0.70900  0.87370  0.12320  1.0000
  O   O47       1.0  0.20900  0.62630  0.62320  1.0000
  O   O48       1.0  0.29100  0.12630  0.87680  1.0000
  O   O49       1.0  0.00710  0.36060  0.35310  1.0000
  O   O50       1.0  0.49290  0.86060  0.14690  1.0000
  O   O51       1.0  0.99290  0.63940  0.64690  1.0000
  O   O52       1.0  0.50710  0.13940  0.85310  1.0000
  O   O53       1.0  0.96900  0.39540  0.49560  1.0000
  O   O54       1.0  0.53100  0.89540  0.00440  1.0000
  O   O55       1.0  0.03100  0.60460  0.50440  1.0000
  O   O56       1.0  0.46900  0.10460  0.99560  1.0000
  O   O57       1.0  0.53760  0.39700  0.09820  1.0000
  O   O58       1.0  0.96240  0.89700  0.40180  1.0000
  O   O59       1.0  0.46240  0.60300  0.90180  1.0000
  O   O60       1.0  0.03760  0.10300  0.59820  1.0000
  O   O61       1.0  0.34210  0.41980  0.06140  1.0000
  O   O62       1.0  0.15790  0.91980  0.43860  1.0000
  O   O63       1.0  0.65790  0.58020  0.93860  1.0000
  O   O64       1.0  0.84210  0.08020  0.56140  1.0000
  O   O65       1.0  0.17700  0.40490  0.89390  1.0000
  O   O66       1.0  0.32300  0.90490  0.60610  1.0000
  O   O67       1.0  0.82300  0.59510  0.10610  1.0000
  O   O68       1.0  0.67700  0.09510  0.39390  1.0000
  O   O69       1.0  0.33430  0.35200  0.88630  1.0000
  O   O70       1.0  0.16570  0.85200  0.61370  1.0000
  O   O71       1.0  0.66570  0.64800  0.11370  1.0000
  O   O72       1.0  0.83430  0.14800  0.38630  1.0000
  O   O73       1.0  0.23200  0.38680  0.74490  1.0000
  O   O74       1.0  0.26800  0.88680  0.75510  1.0000
  O   O75       1.0  0.76800  0.61320  0.25510  1.0000
  O   O76       1.0  0.73200  0.11320  0.24490  1.0000
  O   O77       1.0  0.93940  0.39100  0.92770  1.0000
  O   O78       1.0  0.56060  0.89100  0.57230  1.0000
  O   O79       1.0  0.06060  0.60900  0.07230  1.0000
  O   O80       1.0  0.43940  0.10900  0.42770  1.0000
  H   H1        1.0  0.87150  0.37870  0.93720  1.0000
  H   H2        1.0  0.62850  0.87870  0.56280  1.0000
  H   H3        1.0  0.12850  0.62130  0.06280  1.0000
  H   H4        1.0  0.37150  0.12130  0.43720  1.0000
  H   H5        1.0  0.93970  0.39180  0.86380  1.0000
  H   H6        1.0  0.56030  0.89180  0.63620  1.0000
  H   H7        1.0  0.06030  0.60820  0.13620  1.0000
  H   H8        1.0  0.43970  0.10820  0.36380  1.0000
  C   C1        1.0  0.29660  0.41680  0.27260  1.0000
  C   C2        1.0  0.20340  0.91680  0.22740  1.0000
  C   C3        1.0  0.70340  0.58320  0.72740  1.0000
  C   C4        1.0  0.79660  0.08320  0.77260  1.0000
  C   C5        1.0  0.30590  0.44480  0.35660  1.0000
  C   C6        1.0  0.19410  0.94480  0.14340  1.0000
  C   C7        1.0  0.69410  0.55520  0.64340  1.0000
  C   C8        1.0  0.80590  0.05520  0.85660  1.0000
  C   C9        1.0  0.37760  0.43730  0.44720  1.0000
  C   C10       1.0  0.12240  0.93730  0.05280  1.0000
  C   C11       1.0  0.62240  0.56270  0.55280  1.0000
  C   C12       1.0  0.87760  0.06270  0.94720  1.0000
  C   C13       1.0  0.38520  0.46520  0.51870  1.0000
  C   C14       1.0  0.11480  0.96520  0.98130  1.0000
  C   C15       1.0  0.61480  0.53480  0.48130  1.0000
  C   C16       1.0  0.88520  0.03480  0.01870  1.0000
  H   H9        1.0  0.43030  0.45890  0.57860  1.0000
  H   H10       1.0  0.06970  0.95890  0.92140  1.0000
  H   H11       1.0  0.56970  0.54110  0.42140  1.0000
  H   H12       1.0  0.93030  0.04110  0.07860  1.0000
  C   C17       1.0  0.32610  0.50290  0.50220  1.0000
  C   C18       1.0  0.17390  0.00290  0.99780  1.0000
  C   C19       1.0  0.67390  0.49710  0.49780  1.0000
  C   C20       1.0  0.82610  0.99710  0.00220  1.0000
  H   H13       1.0  0.33390  0.52280  0.55000  1.0000
  H   H14       1.0  0.16610  0.02280  0.95000  1.0000
  H   H15       1.0  0.66610  0.47720  0.45000  1.0000
  H   H16       1.0  0.83390  0.97720  0.05000  1.0000
  C   C21       1.0  0.25600  0.51110  0.41560  1.0000
  C   C22       1.0  0.24400  0.01110  0.08440  1.0000
  C   C23       1.0  0.74400  0.48890  0.58440  1.0000
  C   C24       1.0  0.75600  0.98890  0.91560  1.0000
  H   H17       1.0  0.21420  0.53650  0.40590  1.0000
  H   H18       1.0  0.28580  0.03650  0.09410  1.0000
  H   H19       1.0  0.78580  0.46350  0.59410  1.0000
  H   H20       1.0  0.71420  0.96350  0.90590  1.0000
  C   C25       1.0  0.24420  0.48260  0.34030  1.0000
  C   C26       1.0  0.25580  0.98260  0.15970  1.0000
  C   C27       1.0  0.75580  0.51740  0.65970  1.0000
  C   C28       1.0  0.74420  0.01740  0.84030  1.0000
  H   H21       1.0  0.19650  0.48900  0.28140  1.0000
  H   H22       1.0  0.30350  0.98900  0.21860  1.0000
  H   H23       1.0  0.80350  0.51100  0.71860  1.0000
  H   H24       1.0  0.69650  0.01100  0.78140  1.0000
  C   C29       1.0  0.87590  0.40190  0.17590  1.0000
  C   C30       1.0  0.62410  0.90190  0.32410  1.0000
  C   C31       1.0  0.12410  0.59810  0.82410  1.0000
  C   C32       1.0  0.37590  0.09810  0.67590  1.0000
  C   C33       1.0  0.90320  0.44040  0.23600  1.0000
  C   C34       1.0  0.59680  0.94040  0.26400  1.0000
  C   C35       1.0  0.09680  0.55960  0.76400  1.0000
  C   C36       1.0  0.40320  0.05960  0.73600  1.0000
  C   C37       1.0  0.92000  0.43710  0.33760  1.0000
  C   C38       1.0  0.58000  0.93710  0.16240  1.0000
  C   C39       1.0  0.08000  0.56290  0.66240  1.0000
  C   C40       1.0  0.42000  0.06290  0.83760  1.0000
  C   C41       1.0  0.93020  0.47310  0.39120  1.0000
  C   C42       1.0  0.56980  0.97310  0.10880  1.0000
  C   C43       1.0  0.06980  0.52690  0.60880  1.0000
  C   C44       1.0  0.43020  0.02690  0.89120  1.0000
  H   H25       1.0  0.93980  0.47160  0.45680  1.0000
  H   H26       1.0  0.56020  0.97160  0.04320  1.0000
  H   H27       1.0  0.06020  0.52840  0.54320  1.0000
  H   H28       1.0  0.43980  0.02840  0.95680  1.0000
  C   C45       1.0  0.92580  0.51240  0.34520  1.0000
  C   C46       1.0  0.57420  0.01240  0.15480  1.0000
  C   C47       1.0  0.07420  0.48760  0.65480  1.0000
  C   C48       1.0  0.42580  0.98760  0.84520  1.0000
  H   H29       1.0  0.92740  0.53680  0.38020  1.0000
  H   H30       1.0  0.57260  0.03680  0.11980  1.0000
  H   H31       1.0  0.07260  0.46320  0.61980  1.0000
  H   H32       1.0  0.42740  0.96320  0.88020  1.0000
  C   C49       1.0  0.91900  0.51420  0.24630  1.0000
  C   C50       1.0  0.58100  0.01420  0.25370  1.0000
  C   C51       1.0  0.08100  0.48580  0.75370  1.0000
  C   C52       1.0  0.41900  0.98580  0.74630  1.0000
  H   H33       1.0  0.92170  0.53950  0.21550  1.0000
  H   H34       1.0  0.57830  0.03950  0.28450  1.0000
  H   H35       1.0  0.07830  0.46050  0.78450  1.0000
  H   H36       1.0  0.42170  0.96050  0.71550  1.0000
  C   C53       1.0  0.90880  0.47850  0.19800  1.0000
  C   C54       1.0  0.59120  0.97850  0.30200  1.0000
  C   C55       1.0  0.09120  0.52150  0.80200  1.0000
  C   C56       1.0  0.40880  0.02150  0.69800  1.0000
  H   H37       1.0  0.90520  0.48010  0.13290  1.0000
  H   H38       1.0  0.59480  0.98010  0.36710  1.0000
  H   H39       1.0  0.09480  0.51990  0.86710  1.0000
  H   H40       1.0  0.40520  0.01990  0.63290  1.0000
  C   C57       1.0  0.44950  0.41450  0.04420  1.0000
  C   C58       1.0  0.05050  0.91450  0.45580  1.0000
  C   C59       1.0  0.55050  0.58550  0.95580  1.0000
  C   C60       1.0  0.94950  0.08550  0.54420  1.0000
  C   C61       1.0  0.47910  0.43280  0.95440  1.0000
  C   C62       1.0  0.02090  0.93280  0.54560  1.0000
  C   C63       1.0  0.52090  0.56720  0.04560  1.0000
  C   C64       1.0  0.97910  0.06720  0.45440  1.0000
  C   C65       1.0  0.40210  0.42870  0.86660  1.0000
  C   C66       1.0  0.09790  0.92870  0.63340  1.0000
  C   C67       1.0  0.59790  0.57130  0.13340  1.0000
  C   C68       1.0  0.90210  0.07130  0.36660  1.0000
  C   C69       1.0  0.43050  0.45080  0.78890  1.0000
  C   C70       1.0  0.06950  0.95080  0.71110  1.0000
  C   C71       1.0  0.56950  0.54920  0.21110  1.0000
  C   C72       1.0  0.93050  0.04920  0.28890  1.0000
  H   H41       1.0  0.37950  0.44790  0.72970  1.0000
  H   H42       1.0  0.12050  0.94790  0.77030  1.0000
  H   H43       1.0  0.62050  0.55210  0.27030  1.0000
  H   H44       1.0  0.87950  0.05210  0.22970  1.0000
  C   C73       1.0  0.52820  0.47570  0.79940  1.0000
  C   C74       1.0  0.97180  0.97570  0.70060  1.0000
  C   C75       1.0  0.47180  0.52430  0.20060  1.0000
  C   C76       1.0  0.02820  0.02430  0.29940  1.0000
  H   H45       1.0  0.54090  0.49210  0.74860  1.0000
  H   H46       1.0  0.95910  0.99210  0.75140  1.0000
  H   H47       1.0  0.45910  0.50790  0.25140  1.0000
  H   H48       1.0  0.04090  0.00790  0.24860  1.0000
  C   C77       1.0  0.61270  0.47820  0.88300  1.0000
  C   C78       1.0  0.88730  0.97820  0.61700  1.0000
  C   C79       1.0  0.38730  0.52180  0.11700  1.0000
  C   C80       1.0  0.11270  0.02180  0.38300  1.0000
  H   H49       1.0  0.68760  0.49320  0.88710  1.0000
  H   H50       1.0  0.81240  0.99320  0.61290  1.0000
  H   H51       1.0  0.31240  0.50680  0.11290  1.0000
  H   H52       1.0  0.18760  0.00680  0.38710  1.0000
  C   C81       1.0  0.58310  0.45800  0.96050  1.0000
  C   C82       1.0  0.91690  0.95800  0.53950  1.0000
  C   C83       1.0  0.41690  0.54200  0.03950  1.0000
  C   C84       1.0  0.08310  0.04200  0.46050  1.0000
  H   H53       1.0  0.63530  0.46160  0.01900  1.0000
  H   H54       1.0  0.86470  0.96160  0.48100  1.0000
  H   H55       1.0  0.36470  0.53840  0.98100  1.0000
  H   H56       1.0  0.13530  0.03840  0.51900  1.0000
