data_image0
_chemical_formula_structural       Zn16P8H8P8H8O80C24H8C8H8C8H8C8H8C16
_chemical_formula_sum              "Zn16 P16 H48 O80 C64"
_cell_length_a       19.5129
_cell_length_b       29.8029
_cell_length_c       10.0415
_cell_angle_alpha    90
_cell_angle_beta     90
_cell_angle_gamma    90

_space_group_name_H-M_alt    "P 1"
_space_group_IT_number       1

loop_
  _space_group_symop_operation_xyz
  'x, y, z'

loop_
  _atom_site_type_symbol
  _atom_site_label
  _atom_site_symmetry_multiplicity
  _atom_site_fract_x
  _atom_site_fract_y
  _atom_site_fract_z
  _atom_site_occupancy
  Zn  Zn1       1.0  0.68446  0.93863  0.20188  1.0000
  Zn  Zn2       1.0  0.31554  0.06137  0.20188  1.0000
  Zn  Zn3       1.0  0.18446  0.56137  0.20188  1.0000
  Zn  Zn4       1.0  0.81554  0.43863  0.20188  1.0000
  Zn  Zn5       1.0  0.18446  0.43863  0.70188  1.0000
  Zn  Zn6       1.0  0.81554  0.56137  0.70188  1.0000
  Zn  Zn7       1.0  0.68446  0.06137  0.70188  1.0000
  Zn  Zn8       1.0  0.31554  0.93863  0.70188  1.0000
  Zn  Zn9       1.0  0.59276  0.89332  0.54826  1.0000
  Zn  Zn10      1.0  0.40724  0.10668  0.54826  1.0000
  Zn  Zn11      1.0  0.09276  0.60668  0.54826  1.0000
  Zn  Zn12      1.0  0.90724  0.39332  0.54826  1.0000
  Zn  Zn13      1.0  0.09276  0.39332  0.04826  1.0000
  Zn  Zn14      1.0  0.90724  0.60668  0.04826  1.0000
  Zn  Zn15      1.0  0.59276  0.10668  0.04826  1.0000
  Zn  Zn16      1.0  0.40724  0.89332  0.04826  1.0000
  P   P1        1.0  0.66198  0.01547  0.99144  1.0000
  P   P2        1.0  0.33802  0.98453  0.99144  1.0000
  P   P3        1.0  0.16198  0.48453  0.99144  1.0000
  P   P4        1.0  0.83802  0.51547  0.99144  1.0000
  P   P5        1.0  0.16198  0.51547  0.49144  1.0000
  P   P6        1.0  0.83802  0.48453  0.49144  1.0000
  P   P7        1.0  0.66198  0.98453  0.49144  1.0000
  P   P8        1.0  0.33802  0.01547  0.49144  1.0000
  H   H1        1.0  0.60220  0.99890  0.99940  1.0000
  H   H2        1.0  0.39780  0.00110  0.99940  1.0000
  H   H3        1.0  0.10220  0.50110  0.99940  1.0000
  H   H4        1.0  0.89780  0.49890  0.99940  1.0000
  H   H5        1.0  0.10220  0.49890  0.49940  1.0000
  H   H6        1.0  0.89780  0.50110  0.49940  1.0000
  H   H7        1.0  0.60220  0.00110  0.49940  1.0000
  H   H8        1.0  0.39780  0.99890  0.49940  1.0000
  P   P9        1.0  0.52785  0.91898  0.25331  1.0000
  P   P10       1.0  0.47215  0.08102  0.25331  1.0000
  P   P11       1.0  0.02785  0.58102  0.25331  1.0000
  P   P12       1.0  0.97215  0.41898  0.25331  1.0000
  P   P13       1.0  0.02785  0.41898  0.75331  1.0000
  P   P14       1.0  0.97215  0.58102  0.75331  1.0000
  P   P15       1.0  0.52785  0.08102  0.75331  1.0000
  P   P16       1.0  0.47215  0.91898  0.75331  1.0000
  H   H9        1.0  0.50540  0.95920  0.21900  1.0000
  H   H10       1.0  0.49460  0.04080  0.21900  1.0000
  H   H11       1.0  0.00540  0.54080  0.21900  1.0000
  H   H12       1.0  0.99460  0.45920  0.21900  1.0000
  H   H13       1.0  0.00540  0.45920  0.71900  1.0000
  H   H14       1.0  0.99460  0.54080  0.71900  1.0000
  H   H15       1.0  0.50540  0.04080  0.71900  1.0000
  H   H16       1.0  0.49460  0.95920  0.71900  1.0000
  O   O1        1.0  0.65855  0.05925  0.06860  1.0000
  O   O2        1.0  0.34145  0.94075  0.06860  1.0000
  O   O3        1.0  0.15855  0.44075  0.06860  1.0000
  O   O4        1.0  0.84145  0.55925  0.06860  1.0000
  O   O5        1.0  0.15855  0.55925  0.56860  1.0000
  O   O6        1.0  0.84145  0.44075  0.56860  1.0000
  O   O7        1.0  0.65855  0.94075  0.56860  1.0000
  O   O8        1.0  0.34145  0.05925  0.56860  1.0000
  O   O9        1.0  0.68543  0.02078  0.85340  1.0000
  O   O10       1.0  0.31457  0.97922  0.85340  1.0000
  O   O11       1.0  0.18543  0.47922  0.85340  1.0000
  O   O12       1.0  0.81457  0.52078  0.85340  1.0000
  O   O13       1.0  0.18543  0.52078  0.35340  1.0000
  O   O14       1.0  0.81457  0.47922  0.35340  1.0000
  O   O15       1.0  0.68543  0.97922  0.35340  1.0000
  O   O16       1.0  0.31457  0.02078  0.35340  1.0000
  O   O17       1.0  0.70604  0.98147  0.06180  1.0000
  O   O18       1.0  0.29396  0.01853  0.06180  1.0000
  O   O19       1.0  0.20604  0.51853  0.06180  1.0000
  O   O20       1.0  0.79396  0.48147  0.06180  1.0000
  O   O21       1.0  0.20604  0.48147  0.56180  1.0000
  O   O22       1.0  0.79396  0.51853  0.56180  1.0000
  O   O23       1.0  0.70604  0.01853  0.56180  1.0000
  O   O24       1.0  0.29396  0.98147  0.56180  1.0000
  O   O25       1.0  0.59226  0.91341  0.17570  1.0000
  O   O26       1.0  0.40774  0.08659  0.17570  1.0000
  O   O27       1.0  0.09226  0.58659  0.17570  1.0000
  O   O28       1.0  0.90774  0.41341  0.17570  1.0000
  O   O29       1.0  0.09226  0.41341  0.67570  1.0000
  O   O30       1.0  0.90774  0.58659  0.67570  1.0000
  O   O31       1.0  0.59226  0.08659  0.67570  1.0000
  O   O32       1.0  0.40774  0.91341  0.67570  1.0000
  O   O33       1.0  0.47050  0.89092  0.19740  1.0000
  O   O34       1.0  0.52950  0.10908  0.19740  1.0000
  O   O35       1.0  0.97050  0.60908  0.19740  1.0000
  O   O36       1.0  0.02950  0.39092  0.19740  1.0000
  O   O37       1.0  0.97050  0.39092  0.69740  1.0000
  O   O38       1.0  0.02950  0.60908  0.69740  1.0000
  O   O39       1.0  0.47050  0.10908  0.69740  1.0000
  O   O40       1.0  0.52950  0.89092  0.69740  1.0000
  O   O41       1.0  0.53606  0.90969  0.39750  1.0000
  O   O42       1.0  0.46394  0.09031  0.39750  1.0000
  O   O43       1.0  0.03606  0.59031  0.39750  1.0000
  O   O44       1.0  0.96394  0.40969  0.39750  1.0000
  O   O45       1.0  0.03606  0.40969  0.89750  1.0000
  O   O46       1.0  0.96394  0.59031  0.89750  1.0000
  O   O47       1.0  0.53606  0.09031  0.89750  1.0000
  O   O48       1.0  0.46394  0.90969  0.89750  1.0000
  O   O49       1.0  0.73200  0.87992  0.01680  1.0000
  O   O50       1.0  0.26800  0.12008  0.01680  1.0000
  O   O51       1.0  0.23200  0.62008  0.01680  1.0000
  O   O52       1.0  0.76800  0.37992  0.01680  1.0000
  O   O53       1.0  0.23200  0.37992  0.51680  1.0000
  O   O54       1.0  0.76800  0.62008  0.51680  1.0000
  O   O55       1.0  0.73200  0.12008  0.51680  1.0000
  O   O56       1.0  0.26800  0.87992  0.51680  1.0000
  O   O57       1.0  0.74299  0.88622  0.23130  1.0000
  O   O58       1.0  0.25701  0.11378  0.23130  1.0000
  O   O59       1.0  0.24299  0.61378  0.23130  1.0000
  O   O60       1.0  0.75701  0.38622  0.23130  1.0000
  O   O61       1.0  0.24299  0.38622  0.73130  1.0000
  O   O62       1.0  0.75701  0.61378  0.73130  1.0000
  O   O63       1.0  0.74299  0.11378  0.73130  1.0000
  O   O64       1.0  0.25701  0.88622  0.73130  1.0000
  O   O65       1.0  0.87479  0.66766  0.02690  1.0000
  O   O66       1.0  0.12521  0.33234  0.02690  1.0000
  O   O67       1.0  0.37479  0.83234  0.02690  1.0000
  O   O68       1.0  0.62521  0.16766  0.02690  1.0000
  O   O69       1.0  0.37479  0.16766  0.52690  1.0000
  O   O70       1.0  0.62521  0.83234  0.52690  1.0000
  O   O71       1.0  0.87479  0.33234  0.52690  1.0000
  O   O72       1.0  0.12521  0.66766  0.52690  1.0000
  O   O73       1.0  0.82545  0.65692  0.22050  1.0000
  O   O74       1.0  0.17455  0.34308  0.22050  1.0000
  O   O75       1.0  0.32545  0.84308  0.22050  1.0000
  O   O76       1.0  0.67455  0.15692  0.22050  1.0000
  O   O77       1.0  0.32545  0.15692  0.72050  1.0000
  O   O78       1.0  0.67455  0.84308  0.72050  1.0000
  O   O79       1.0  0.82545  0.34308  0.72050  1.0000
  O   O80       1.0  0.17455  0.65692  0.72050  1.0000
  C   C1        1.0  0.75210  0.86615  0.12210  1.0000
  C   C2        1.0  0.24790  0.13385  0.12210  1.0000
  C   C3        1.0  0.25210  0.63385  0.12210  1.0000
  C   C4        1.0  0.74790  0.36615  0.12210  1.0000
  C   C5        1.0  0.25210  0.36615  0.62210  1.0000
  C   C6        1.0  0.74790  0.63385  0.62210  1.0000
  C   C7        1.0  0.75210  0.13385  0.62210  1.0000
  C   C8        1.0  0.24790  0.86615  0.62210  1.0000
  C   C9        1.0  0.78100  0.81823  0.12950  1.0000
  C   C10       1.0  0.21900  0.18177  0.12950  1.0000
  C   C11       1.0  0.28100  0.68177  0.12950  1.0000
  C   C12       1.0  0.71900  0.31823  0.12950  1.0000
  C   C13       1.0  0.28100  0.31823  0.62950  1.0000
  C   C14       1.0  0.71900  0.68177  0.62950  1.0000
  C   C15       1.0  0.78100  0.18177  0.62950  1.0000
  C   C16       1.0  0.21900  0.81823  0.62950  1.0000
  C   C17       1.0  0.77270  0.79273  0.25000  1.0000
  C   C18       1.0  0.22730  0.20727  0.25000  1.0000
  C   C19       1.0  0.27270  0.70727  0.25000  1.0000
  C   C20       1.0  0.72730  0.29273  0.25000  1.0000
  C   C21       1.0  0.27270  0.29273  0.75000  1.0000
  C   C22       1.0  0.72730  0.70727  0.75000  1.0000
  C   C23       1.0  0.77270  0.20727  0.75000  1.0000
  C   C24       1.0  0.22730  0.79273  0.75000  1.0000
  H   H17       1.0  0.75450  0.80510  0.32730  1.0000
  H   H18       1.0  0.24550  0.19490  0.32730  1.0000
  H   H19       1.0  0.25450  0.69490  0.32730  1.0000
  H   H20       1.0  0.74550  0.30510  0.32730  1.0000
  H   H21       1.0  0.25450  0.30510  0.82730  1.0000
  H   H22       1.0  0.74550  0.69490  0.82730  1.0000
  H   H23       1.0  0.75450  0.19490  0.82730  1.0000
  H   H24       1.0  0.24550  0.80510  0.82730  1.0000
  C   C25       1.0  0.79380  0.74857  0.24260  1.0000
  C   C26       1.0  0.20620  0.25143  0.24260  1.0000
  C   C27       1.0  0.29380  0.75143  0.24260  1.0000
  C   C28       1.0  0.70620  0.24857  0.24260  1.0000
  C   C29       1.0  0.29380  0.24857  0.74260  1.0000
  C   C30       1.0  0.70620  0.75143  0.74260  1.0000
  C   C31       1.0  0.79380  0.25143  0.74260  1.0000
  C   C32       1.0  0.20620  0.74857  0.74260  1.0000
  H   H25       1.0  0.78840  0.73050  0.31730  1.0000
  H   H26       1.0  0.21160  0.26950  0.31730  1.0000
  H   H27       1.0  0.28840  0.76950  0.31730  1.0000
  H   H28       1.0  0.71160  0.23050  0.31730  1.0000
  H   H29       1.0  0.28840  0.23050  0.81730  1.0000
  H   H30       1.0  0.71160  0.76950  0.81730  1.0000
  H   H31       1.0  0.78840  0.26950  0.81730  1.0000
  H   H32       1.0  0.21160  0.73050  0.81730  1.0000
  C   C33       1.0  0.80820  0.79958  0.02150  1.0000
  C   C34       1.0  0.19180  0.20042  0.02150  1.0000
  C   C35       1.0  0.30820  0.70042  0.02150  1.0000
  C   C36       1.0  0.69180  0.29958  0.02150  1.0000
  C   C37       1.0  0.30820  0.29958  0.52150  1.0000
  C   C38       1.0  0.69180  0.70042  0.52150  1.0000
  C   C39       1.0  0.80820  0.20042  0.52150  1.0000
  C   C40       1.0  0.19180  0.79958  0.52150  1.0000
  H   H33       1.0  0.81110  0.81650  0.94380  1.0000
  H   H34       1.0  0.18890  0.18350  0.94380  1.0000
  H   H35       1.0  0.31110  0.68350  0.94380  1.0000
  H   H36       1.0  0.68890  0.31650  0.94380  1.0000
  H   H37       1.0  0.31110  0.31650  0.44380  1.0000
  H   H38       1.0  0.68890  0.68350  0.44380  1.0000
  H   H39       1.0  0.81110  0.18350  0.44380  1.0000
  H   H40       1.0  0.18890  0.81650  0.44380  1.0000
  C   C41       1.0  0.83240  0.75609  0.02070  1.0000
  C   C42       1.0  0.16760  0.24391  0.02070  1.0000
  C   C43       1.0  0.33240  0.74391  0.02070  1.0000
  C   C44       1.0  0.66760  0.25609  0.02070  1.0000
  C   C45       1.0  0.33240  0.25609  0.52070  1.0000
  C   C46       1.0  0.66760  0.74391  0.52070  1.0000
  C   C47       1.0  0.83240  0.24391  0.52070  1.0000
  C   C48       1.0  0.16760  0.75609  0.52070  1.0000
  H   H41       1.0  0.85510  0.74480  0.94650  1.0000
  H   H42       1.0  0.14490  0.25520  0.94650  1.0000
  H   H43       1.0  0.35510  0.75520  0.94650  1.0000
  H   H44       1.0  0.64490  0.24480  0.94650  1.0000
  H   H45       1.0  0.35510  0.24480  0.44650  1.0000
  H   H46       1.0  0.64490  0.75520  0.44650  1.0000
  H   H47       1.0  0.85510  0.25520  0.44650  1.0000
  H   H48       1.0  0.14490  0.74480  0.44650  1.0000
  C   C49       1.0  0.82230  0.73004  0.12970  1.0000
  C   C50       1.0  0.17770  0.26996  0.12970  1.0000
  C   C51       1.0  0.32230  0.76996  0.12970  1.0000
  C   C52       1.0  0.67770  0.23004  0.12970  1.0000
  C   C53       1.0  0.32230  0.23004  0.62970  1.0000
  C   C54       1.0  0.67770  0.76996  0.62970  1.0000
  C   C55       1.0  0.82230  0.26996  0.62970  1.0000
  C   C56       1.0  0.17770  0.73004  0.62970  1.0000
  C   C57       1.0  0.84280  0.68077  0.12710  1.0000
  C   C58       1.0  0.15720  0.31923  0.12710  1.0000
  C   C59       1.0  0.34280  0.81923  0.12710  1.0000
  C   C60       1.0  0.65720  0.18077  0.12710  1.0000
  C   C61       1.0  0.34280  0.18077  0.62710  1.0000
  C   C62       1.0  0.65720  0.81923  0.62710  1.0000
  C   C63       1.0  0.84280  0.31923  0.62710  1.0000
  C   C64       1.0  0.15720  0.68077  0.62710  1.0000
