data_image0
_chemical_formula_structural       Zn16P8H8P8H8O80C24H8C8H8C8H8C8H8C24H8C8H8C8H8C8H8C16
_chemical_formula_sum              "Zn16 P16 H80 O80 C112"
_cell_length_a       20.5011
_cell_length_b       37.9847
_cell_length_c       10.0139
_cell_angle_alpha    90
_cell_angle_beta     90
_cell_angle_gamma    90

_space_group_name_H-M_alt    "P 1"
_space_group_IT_number       1

loop_
  _space_group_symop_operation_xyz
  'x, y, z'

loop_
  _atom_site_type_symbol
  _atom_site_label
  _atom_site_symmetry_multiplicity
  _atom_site_fract_x
  _atom_site_fract_y
  _atom_site_fract_z
  _atom_site_occupancy
  Zn  Zn1       1.0  0.34061  0.33357  0.94987  1.0000
  Zn  Zn2       1.0  0.15939  0.16643  0.94987  1.0000
  Zn  Zn3       1.0  0.65939  0.83357  0.55013  1.0000
  Zn  Zn4       1.0  0.84061  0.66643  0.55013  1.0000
  Zn  Zn5       1.0  0.65939  0.66643  0.05013  1.0000
  Zn  Zn6       1.0  0.84061  0.83357  0.05013  1.0000
  Zn  Zn7       1.0  0.34061  0.16643  0.44987  1.0000
  Zn  Zn8       1.0  0.15939  0.33357  0.44987  1.0000
  Zn  Zn9       1.0  0.41891  0.20256  0.79618  1.0000
  Zn  Zn10      1.0  0.08109  0.29744  0.79618  1.0000
  Zn  Zn11      1.0  0.58109  0.70256  0.70382  1.0000
  Zn  Zn12      1.0  0.91891  0.79744  0.70382  1.0000
  Zn  Zn13      1.0  0.58109  0.79744  0.20382  1.0000
  Zn  Zn14      1.0  0.91891  0.70256  0.20382  1.0000
  Zn  Zn15      1.0  0.41891  0.29744  0.29618  1.0000
  Zn  Zn16      1.0  0.08109  0.20256  0.29618  1.0000
  P   P1        1.0  0.22780  0.31362  0.73933  1.0000
  P   P2        1.0  0.27220  0.18638  0.73933  1.0000
  P   P3        1.0  0.77220  0.81362  0.76067  1.0000
  P   P4        1.0  0.72780  0.68638  0.76067  1.0000
  P   P5        1.0  0.77220  0.68638  0.26067  1.0000
  P   P6        1.0  0.72780  0.81362  0.26067  1.0000
  P   P7        1.0  0.22780  0.18638  0.23933  1.0000
  P   P8        1.0  0.27220  0.31362  0.23933  1.0000
  H   H1        1.0  0.24160  0.28100  0.74900  1.0000
  H   H2        1.0  0.25840  0.21900  0.74900  1.0000
  H   H3        1.0  0.75840  0.78100  0.75100  1.0000
  H   H4        1.0  0.74160  0.71900  0.75100  1.0000
  H   H5        1.0  0.75840  0.71900  0.25100  1.0000
  H   H6        1.0  0.74160  0.78100  0.25100  1.0000
  H   H7        1.0  0.24160  0.21900  0.24900  1.0000
  H   H8        1.0  0.25840  0.28100  0.24900  1.0000
  P   P9        1.0  0.39786  0.26037  0.01035  1.0000
  P   P10       1.0  0.10214  0.23963  0.01035  1.0000
  P   P11       1.0  0.60214  0.76037  0.48965  1.0000
  P   P12       1.0  0.89786  0.73963  0.48965  1.0000
  P   P13       1.0  0.60214  0.73963  0.98965  1.0000
  P   P14       1.0  0.89786  0.76037  0.98965  1.0000
  P   P15       1.0  0.39786  0.23963  0.51035  1.0000
  P   P16       1.0  0.10214  0.26037  0.51035  1.0000
  H   H9        1.0  0.34400  0.24640  0.01660  1.0000
  H   H10       1.0  0.15600  0.25360  0.01660  1.0000
  H   H11       1.0  0.65600  0.74640  0.48340  1.0000
  H   H12       1.0  0.84400  0.75360  0.48340  1.0000
  H   H13       1.0  0.65600  0.75360  0.98340  1.0000
  H   H14       1.0  0.84400  0.74640  0.98340  1.0000
  H   H15       1.0  0.34400  0.25360  0.51660  1.0000
  H   H16       1.0  0.15600  0.24640  0.51660  1.0000
  O   O1        1.0  0.28436  0.33505  0.79110  1.0000
  O   O2        1.0  0.21564  0.16495  0.79110  1.0000
  O   O3        1.0  0.71564  0.83505  0.70890  1.0000
  O   O4        1.0  0.78436  0.66495  0.70890  1.0000
  O   O5        1.0  0.71564  0.66495  0.20890  1.0000
  O   O6        1.0  0.78436  0.83505  0.20890  1.0000
  O   O7        1.0  0.28436  0.16495  0.29110  1.0000
  O   O8        1.0  0.21564  0.33505  0.29110  1.0000
  O   O9        1.0  0.21757  0.32156  0.59550  1.0000
  O   O10       1.0  0.28243  0.17844  0.59550  1.0000
  O   O11       1.0  0.78243  0.82156  0.90450  1.0000
  O   O12       1.0  0.71757  0.67844  0.90450  1.0000
  O   O13       1.0  0.78243  0.67844  0.40450  1.0000
  O   O14       1.0  0.71757  0.82156  0.40450  1.0000
  O   O15       1.0  0.21757  0.17844  0.09550  1.0000
  O   O16       1.0  0.28243  0.32156  0.09550  1.0000
  O   O17       1.0  0.16804  0.31772  0.82580  1.0000
  O   O18       1.0  0.33196  0.18228  0.82580  1.0000
  O   O19       1.0  0.83196  0.81772  0.67420  1.0000
  O   O20       1.0  0.66804  0.68228  0.67420  1.0000
  O   O21       1.0  0.83196  0.68228  0.17420  1.0000
  O   O22       1.0  0.66804  0.81772  0.17420  1.0000
  O   O23       1.0  0.16804  0.18228  0.32580  1.0000
  O   O24       1.0  0.33196  0.31772  0.32580  1.0000
  O   O25       1.0  0.40173  0.29488  0.93530  1.0000
  O   O26       1.0  0.09827  0.20512  0.93530  1.0000
  O   O27       1.0  0.59827  0.79488  0.56470  1.0000
  O   O28       1.0  0.90173  0.70512  0.56470  1.0000
  O   O29       1.0  0.59827  0.70512  0.06470  1.0000
  O   O30       1.0  0.90173  0.79488  0.06470  1.0000
  O   O31       1.0  0.40173  0.20512  0.43530  1.0000
  O   O32       1.0  0.09827  0.29488  0.43530  1.0000
  O   O33       1.0  0.43956  0.23191  0.94790  1.0000
  O   O34       1.0  0.06044  0.26809  0.94790  1.0000
  O   O35       1.0  0.56044  0.73191  0.55210  1.0000
  O   O36       1.0  0.93956  0.76809  0.55210  1.0000
  O   O37       1.0  0.56044  0.76809  0.05210  1.0000
  O   O38       1.0  0.93956  0.73191  0.05210  1.0000
  O   O39       1.0  0.43956  0.26809  0.44790  1.0000
  O   O40       1.0  0.06044  0.23191  0.44790  1.0000
  O   O41       1.0  0.41570  0.26324  0.15630  1.0000
  O   O42       1.0  0.08430  0.23676  0.15630  1.0000
  O   O43       1.0  0.58430  0.76324  0.34370  1.0000
  O   O44       1.0  0.91570  0.73676  0.34370  1.0000
  O   O45       1.0  0.58430  0.73676  0.84370  1.0000
  O   O46       1.0  0.91570  0.76324  0.84370  1.0000
  O   O47       1.0  0.41570  0.23676  0.65630  1.0000
  O   O48       1.0  0.08430  0.26324  0.65630  1.0000
  O   O49       1.0  0.36589  0.38320  0.97000  1.0000
  O   O50       1.0  0.13411  0.11680  0.97000  1.0000
  O   O51       1.0  0.63411  0.88320  0.53000  1.0000
  O   O52       1.0  0.86589  0.61680  0.53000  1.0000
  O   O53       1.0  0.63411  0.61680  0.03000  1.0000
  O   O54       1.0  0.86589  0.88320  0.03000  1.0000
  O   O55       1.0  0.36589  0.11680  0.47000  1.0000
  O   O56       1.0  0.13411  0.38320  0.47000  1.0000
  O   O57       1.0  0.42030  0.36914  0.78470  1.0000
  O   O58       1.0  0.07970  0.13086  0.78470  1.0000
  O   O59       1.0  0.57970  0.86914  0.71530  1.0000
  O   O60       1.0  0.92030  0.63086  0.71530  1.0000
  O   O61       1.0  0.57970  0.63086  0.21530  1.0000
  O   O62       1.0  0.92030  0.86914  0.21530  1.0000
  O   O63       1.0  0.42030  0.13086  0.28470  1.0000
  O   O64       1.0  0.07970  0.36914  0.28470  1.0000
  O   O65       1.0  0.52560  0.66321  0.74690  1.0000
  O   O66       1.0  0.97440  0.83679  0.74690  1.0000
  O   O67       1.0  0.47440  0.16321  0.75310  1.0000
  O   O68       1.0  0.02560  0.33679  0.75310  1.0000
  O   O69       1.0  0.47440  0.33679  0.25310  1.0000
  O   O70       1.0  0.02560  0.16321  0.25310  1.0000
  O   O71       1.0  0.52560  0.83679  0.24690  1.0000
  O   O72       1.0  0.97440  0.66321  0.24690  1.0000
  O   O73       1.0  0.52800  0.64747  0.53350  1.0000
  O   O74       1.0  0.97200  0.85253  0.53350  1.0000
  O   O75       1.0  0.47200  0.14747  0.96650  1.0000
  O   O76       1.0  0.02800  0.35253  0.96650  1.0000
  O   O77       1.0  0.47200  0.35253  0.46650  1.0000
  O   O78       1.0  0.02800  0.14747  0.46650  1.0000
  O   O79       1.0  0.52800  0.85253  0.03350  1.0000
  O   O80       1.0  0.97200  0.64747  0.03350  1.0000
  C   C1        1.0  0.40000  0.39091  0.86840  1.0000
  C   C2        1.0  0.10000  0.10909  0.86840  1.0000
  C   C3        1.0  0.60000  0.89091  0.63160  1.0000
  C   C4        1.0  0.90000  0.60909  0.63160  1.0000
  C   C5        1.0  0.60000  0.60909  0.13160  1.0000
  C   C6        1.0  0.90000  0.89091  0.13160  1.0000
  C   C7        1.0  0.40000  0.10909  0.36840  1.0000
  C   C8        1.0  0.10000  0.39091  0.36840  1.0000
  C   C9        1.0  0.41430  0.42919  0.84420  1.0000
  C   C10       1.0  0.08570  0.07081  0.84420  1.0000
  C   C11       1.0  0.58570  0.92919  0.65580  1.0000
  C   C12       1.0  0.91430  0.57081  0.65580  1.0000
  C   C13       1.0  0.58570  0.57081  0.15580  1.0000
  C   C14       1.0  0.91430  0.92919  0.15580  1.0000
  C   C15       1.0  0.41430  0.07081  0.34420  1.0000
  C   C16       1.0  0.08570  0.42919  0.34420  1.0000
  C   C17       1.0  0.39250  0.45504  0.92850  1.0000
  C   C18       1.0  0.10750  0.04496  0.92850  1.0000
  C   C19       1.0  0.60750  0.95504  0.57150  1.0000
  C   C20       1.0  0.89250  0.54496  0.57150  1.0000
  C   C21       1.0  0.60750  0.54496  0.07150  1.0000
  C   C22       1.0  0.89250  0.95504  0.07150  1.0000
  C   C23       1.0  0.39250  0.04496  0.42850  1.0000
  C   C24       1.0  0.10750  0.45504  0.42850  1.0000
  H   H17       1.0  0.36830  0.44880  0.00350  1.0000
  H   H18       1.0  0.13170  0.05120  0.00350  1.0000
  H   H19       1.0  0.63170  0.94880  0.49650  1.0000
  H   H20       1.0  0.86830  0.55120  0.49650  1.0000
  H   H21       1.0  0.63170  0.55120  0.99650  1.0000
  H   H22       1.0  0.86830  0.94880  0.99650  1.0000
  H   H23       1.0  0.36830  0.05120  0.50350  1.0000
  H   H24       1.0  0.13170  0.44880  0.50350  1.0000
  C   C25       1.0  0.40540  0.48999  0.90480  1.0000
  C   C26       1.0  0.09460  0.01001  0.90480  1.0000
  C   C27       1.0  0.59460  0.98999  0.59520  1.0000
  C   C28       1.0  0.90540  0.51001  0.59520  1.0000
  C   C29       1.0  0.59460  0.51001  0.09520  1.0000
  C   C30       1.0  0.90540  0.98999  0.09520  1.0000
  C   C31       1.0  0.40540  0.01001  0.40480  1.0000
  C   C32       1.0  0.09460  0.48999  0.40480  1.0000
  H   H25       1.0  0.39200  0.50700  0.96580  1.0000
  H   H26       1.0  0.10800  0.99300  0.96580  1.0000
  H   H27       1.0  0.60800  0.00700  0.53420  1.0000
  H   H28       1.0  0.89200  0.49300  0.53420  1.0000
  H   H29       1.0  0.60800  0.49300  0.03420  1.0000
  H   H30       1.0  0.89200  0.00700  0.03420  1.0000
  H   H31       1.0  0.39200  0.99300  0.46580  1.0000
  H   H32       1.0  0.10800  0.50700  0.46580  1.0000
  C   C33       1.0  0.44790  0.43854  0.73150  1.0000
  C   C34       1.0  0.05210  0.06146  0.73150  1.0000
  C   C35       1.0  0.55210  0.93854  0.76850  1.0000
  C   C36       1.0  0.94790  0.56146  0.76850  1.0000
  C   C37       1.0  0.55210  0.56146  0.26850  1.0000
  C   C38       1.0  0.94790  0.93854  0.26850  1.0000
  C   C39       1.0  0.44790  0.06146  0.23150  1.0000
  C   C40       1.0  0.05210  0.43854  0.23150  1.0000
  H   H33       1.0  0.46190  0.42130  0.67210  1.0000
  H   H34       1.0  0.03810  0.07870  0.67210  1.0000
  H   H35       1.0  0.53810  0.92130  0.82790  1.0000
  H   H36       1.0  0.96190  0.57870  0.82790  1.0000
  H   H37       1.0  0.53810  0.57870  0.32790  1.0000
  H   H38       1.0  0.96190  0.92130  0.32790  1.0000
  H   H39       1.0  0.46190  0.07870  0.17210  1.0000
  H   H40       1.0  0.03810  0.42130  0.17210  1.0000
  C   C41       1.0  0.46120  0.47391  0.70560  1.0000
  C   C42       1.0  0.03880  0.02609  0.70560  1.0000
  C   C43       1.0  0.53880  0.97391  0.79440  1.0000
  C   C44       1.0  0.96120  0.52609  0.79440  1.0000
  C   C45       1.0  0.53880  0.52609  0.29440  1.0000
  C   C46       1.0  0.96120  0.97391  0.29440  1.0000
  C   C47       1.0  0.46120  0.02609  0.20560  1.0000
  C   C48       1.0  0.03880  0.47391  0.20560  1.0000
  H   H41       1.0  0.48570  0.48000  0.63100  1.0000
  H   H42       1.0  0.01430  0.02000  0.63100  1.0000
  H   H43       1.0  0.51430  0.98000  0.86900  1.0000
  H   H44       1.0  0.98570  0.52000  0.86900  1.0000
  H   H45       1.0  0.51430  0.52000  0.36900  1.0000
  H   H46       1.0  0.98570  0.98000  0.36900  1.0000
  H   H47       1.0  0.48570  0.02000  0.13100  1.0000
  H   H48       1.0  0.01430  0.48000  0.13100  1.0000
  C   C49       1.0  0.43840  0.49992  0.79020  1.0000
  C   C50       1.0  0.06160  0.00008  0.79020  1.0000
  C   C51       1.0  0.56160  0.99992  0.70980  1.0000
  C   C52       1.0  0.93840  0.50008  0.70980  1.0000
  C   C53       1.0  0.56160  0.50008  0.20980  1.0000
  C   C54       1.0  0.93840  0.99992  0.20980  1.0000
  C   C55       1.0  0.43840  0.00008  0.29020  1.0000
  C   C56       1.0  0.06160  0.49992  0.29020  1.0000
  C   C57       1.0  0.45280  0.53770  0.75780  1.0000
  C   C58       1.0  0.04720  0.96230  0.75780  1.0000
  C   C59       1.0  0.54720  0.03770  0.74220  1.0000
  C   C60       1.0  0.95280  0.46230  0.74220  1.0000
  C   C61       1.0  0.54720  0.46230  0.24220  1.0000
  C   C62       1.0  0.95280  0.03770  0.24220  1.0000
  C   C63       1.0  0.45280  0.96230  0.25780  1.0000
  C   C64       1.0  0.04720  0.53770  0.25780  1.0000
  C   C65       1.0  0.47290  0.56105  0.85550  1.0000
  C   C66       1.0  0.02710  0.93895  0.85550  1.0000
  C   C67       1.0  0.52710  0.06105  0.64450  1.0000
  C   C68       1.0  0.97290  0.43895  0.64450  1.0000
  C   C69       1.0  0.52710  0.43895  0.14450  1.0000
  C   C70       1.0  0.97290  0.06105  0.14450  1.0000
  C   C71       1.0  0.47290  0.93895  0.35550  1.0000
  C   C72       1.0  0.02710  0.56105  0.35550  1.0000
  H   H49       1.0  0.47390  0.55380  0.94420  1.0000
  H   H50       1.0  0.02610  0.94620  0.94420  1.0000
  H   H51       1.0  0.52610  0.05380  0.55580  1.0000
  H   H52       1.0  0.97390  0.44620  0.55580  1.0000
  H   H53       1.0  0.52610  0.44620  0.05580  1.0000
  H   H54       1.0  0.97390  0.05380  0.05580  1.0000
  H   H55       1.0  0.47390  0.94620  0.44420  1.0000
  H   H56       1.0  0.02610  0.55380  0.44420  1.0000
  C   C73       1.0  0.49150  0.59493  0.82330  1.0000
  C   C74       1.0  0.00850  0.90507  0.82330  1.0000
  C   C75       1.0  0.50850  0.09493  0.67670  1.0000
  C   C76       1.0  0.99150  0.40507  0.67670  1.0000
  C   C77       1.0  0.50850  0.40507  0.17670  1.0000
  C   C78       1.0  0.99150  0.09493  0.17670  1.0000
  C   C79       1.0  0.49150  0.90507  0.32330  1.0000
  C   C80       1.0  0.00850  0.59493  0.32330  1.0000
  H   H57       1.0  0.50530  0.61030  0.88980  1.0000
  H   H58       1.0  0.99470  0.88970  0.88980  1.0000
  H   H59       1.0  0.49470  0.11030  0.61020  1.0000
  H   H60       1.0  0.00530  0.38970  0.61020  1.0000
  H   H61       1.0  0.49470  0.38970  0.11020  1.0000
  H   H62       1.0  0.00530  0.11030  0.11020  1.0000
  H   H63       1.0  0.50530  0.88970  0.38980  1.0000
  H   H64       1.0  0.99470  0.61030  0.38980  1.0000
  C   C81       1.0  0.44760  0.54990  0.62570  1.0000
  C   C82       1.0  0.05240  0.95010  0.62570  1.0000
  C   C83       1.0  0.55240  0.04990  0.87430  1.0000
  C   C84       1.0  0.94760  0.45010  0.87430  1.0000
  C   C85       1.0  0.55240  0.45010  0.37430  1.0000
  C   C86       1.0  0.94760  0.04990  0.37430  1.0000
  C   C87       1.0  0.44760  0.95010  0.12570  1.0000
  C   C88       1.0  0.05240  0.54990  0.12570  1.0000
  H   H65       1.0  0.43160  0.53500  0.55980  1.0000
  H   H66       1.0  0.06840  0.96500  0.55980  1.0000
  H   H67       1.0  0.56840  0.03500  0.94020  1.0000
  H   H68       1.0  0.93160  0.46500  0.94020  1.0000
  H   H69       1.0  0.56840  0.46500  0.44020  1.0000
  H   H70       1.0  0.93160  0.03500  0.44020  1.0000
  H   H71       1.0  0.43160  0.96500  0.05980  1.0000
  H   H72       1.0  0.06840  0.53500  0.05980  1.0000
  C   C89       1.0  0.46570  0.58338  0.59310  1.0000
  C   C90       1.0  0.03430  0.91662  0.59310  1.0000
  C   C91       1.0  0.53430  0.08338  0.90690  1.0000
  C   C92       1.0  0.96570  0.41662  0.90690  1.0000
  C   C93       1.0  0.53430  0.41662  0.40690  1.0000
  C   C94       1.0  0.96570  0.08338  0.40690  1.0000
  C   C95       1.0  0.46570  0.91662  0.09310  1.0000
  C   C96       1.0  0.03430  0.58338  0.09310  1.0000
  H   H73       1.0  0.46220  0.59110  0.50530  1.0000
  H   H74       1.0  0.03780  0.90890  0.50530  1.0000
  H   H75       1.0  0.53780  0.09110  0.99470  1.0000
  H   H76       1.0  0.96220  0.40890  0.99470  1.0000
  H   H77       1.0  0.53780  0.40890  0.49470  1.0000
  H   H78       1.0  0.96220  0.09110  0.49470  1.0000
  H   H79       1.0  0.46220  0.90890  0.00530  1.0000
  H   H80       1.0  0.03780  0.59110  0.00530  1.0000
  C   C97       1.0  0.48930  0.60602  0.69060  1.0000
  C   C98       1.0  0.01070  0.89398  0.69060  1.0000
  C   C99       1.0  0.51070  0.10602  0.80940  1.0000
  C   C100      1.0  0.98930  0.39398  0.80940  1.0000
  C   C101      1.0  0.51070  0.39398  0.30940  1.0000
  C   C102      1.0  0.98930  0.10602  0.30940  1.0000
  C   C103      1.0  0.48930  0.89398  0.19060  1.0000
  C   C104      1.0  0.01070  0.60602  0.19060  1.0000
  C   C105      1.0  0.51580  0.64165  0.65210  1.0000
  C   C106      1.0  0.98420  0.85835  0.65210  1.0000
  C   C107      1.0  0.48420  0.14165  0.84790  1.0000
  C   C108      1.0  0.01580  0.35835  0.84790  1.0000
  C   C109      1.0  0.48420  0.35835  0.34790  1.0000
  C   C110      1.0  0.01580  0.14165  0.34790  1.0000
  C   C111      1.0  0.51580  0.85835  0.15210  1.0000
  C   C112      1.0  0.98420  0.64165  0.15210  1.0000
