data_image0
_chemical_formula_structural       O16C8U8O48C32O4C8H8C8H8C16H8O8
_chemical_formula_sum              "O76 C72 U8 H24"
_cell_length_a       7.8622
_cell_length_b       17.8077
_cell_length_c       21.8192
_cell_angle_alpha    90
_cell_angle_beta     104.023
_cell_angle_gamma    90

_space_group_name_H-M_alt    "P 1"
_space_group_IT_number       1

loop_
  _space_group_symop_operation_xyz
  'x, y, z'

loop_
  _atom_site_type_symbol
  _atom_site_label
  _atom_site_symmetry_multiplicity
  _atom_site_fract_x
  _atom_site_fract_y
  _atom_site_fract_z
  _atom_site_occupancy
  O   O1        1.0  0.59380  0.69670  0.11550  1.0000
  O   O2        1.0  0.40620  0.69670  0.38450  1.0000
  O   O3        1.0  0.09380  0.19670  0.11550  1.0000
  O   O4        1.0  0.90620  0.19670  0.38450  1.0000
  O   O5        1.0  0.40620  0.30330  0.88450  1.0000
  O   O6        1.0  0.59380  0.30330  0.61550  1.0000
  O   O7        1.0  0.90620  0.80330  0.88450  1.0000
  O   O8        1.0  0.09380  0.80330  0.61550  1.0000
  O   O9        1.0  0.71820  0.60270  0.07760  1.0000
  O   O10       1.0  0.28180  0.60270  0.42240  1.0000
  O   O11       1.0  0.21820  0.10270  0.07760  1.0000
  O   O12       1.0  0.78180  0.10270  0.42240  1.0000
  O   O13       1.0  0.28180  0.39730  0.92240  1.0000
  O   O14       1.0  0.71820  0.39730  0.57760  1.0000
  O   O15       1.0  0.78180  0.89730  0.92240  1.0000
  O   O16       1.0  0.21820  0.89730  0.57760  1.0000
  C   C1        1.0  0.71050  0.67230  0.09080  1.0000
  C   C2        1.0  0.28950  0.67230  0.40920  1.0000
  C   C3        1.0  0.21050  0.17230  0.09080  1.0000
  C   C4        1.0  0.78950  0.17230  0.40920  1.0000
  C   C5        1.0  0.28950  0.32770  0.90920  1.0000
  C   C6        1.0  0.71050  0.32770  0.59080  1.0000
  C   C7        1.0  0.78950  0.82770  0.90920  1.0000
  C   C8        1.0  0.21050  0.82770  0.59080  1.0000
  U   U1        1.0  0.95559  0.07357  0.12012  1.0000
  U   U2        1.0  0.04441  0.07357  0.37988  1.0000
  U   U3        1.0  0.45559  0.57357  0.12012  1.0000
  U   U4        1.0  0.54441  0.57357  0.37988  1.0000
  U   U5        1.0  0.04441  0.92643  0.87988  1.0000
  U   U6        1.0  0.95559  0.92643  0.62012  1.0000
  U   U7        1.0  0.54441  0.42643  0.87988  1.0000
  U   U8        1.0  0.45559  0.42643  0.62012  1.0000
  O   O17       1.0  0.69920  0.06380  0.16830  1.0000
  O   O18       1.0  0.30080  0.06380  0.33170  1.0000
  O   O19       1.0  0.19920  0.56380  0.16830  1.0000
  O   O20       1.0  0.80080  0.56380  0.33170  1.0000
  O   O21       1.0  0.30080  0.93620  0.83170  1.0000
  O   O22       1.0  0.69920  0.93620  0.66830  1.0000
  O   O23       1.0  0.80080  0.43620  0.83170  1.0000
  O   O24       1.0  0.19920  0.43620  0.66830  1.0000
  O   O25       1.0  0.81820  0.79750  0.09240  1.0000
  O   O26       1.0  0.18180  0.79750  0.40760  1.0000
  O   O27       1.0  0.31820  0.29750  0.09240  1.0000
  O   O28       1.0  0.68180  0.29750  0.40760  1.0000
  O   O29       1.0  0.18180  0.20250  0.90760  1.0000
  O   O30       1.0  0.81820  0.20250  0.59240  1.0000
  O   O31       1.0  0.68180  0.70250  0.90760  1.0000
  O   O32       1.0  0.31820  0.70250  0.59240  1.0000
  O   O33       1.0  0.83510  0.94570  0.11280  1.0000
  O   O34       1.0  0.16490  0.94570  0.38720  1.0000
  O   O35       1.0  0.33510  0.44570  0.11280  1.0000
  O   O36       1.0  0.66490  0.44570  0.38720  1.0000
  O   O37       1.0  0.16490  0.05430  0.88720  1.0000
  O   O38       1.0  0.83510  0.05430  0.61280  1.0000
  O   O39       1.0  0.66490  0.55430  0.88720  1.0000
  O   O40       1.0  0.33510  0.55430  0.61280  1.0000
  O   O41       1.0  0.81180  0.09440  0.04740  1.0000
  O   O42       1.0  0.18820  0.09440  0.45260  1.0000
  O   O43       1.0  0.31180  0.59440  0.04740  1.0000
  O   O44       1.0  0.68820  0.59440  0.45260  1.0000
  O   O45       1.0  0.18820  0.90560  0.95260  1.0000
  O   O46       1.0  0.81180  0.90560  0.54740  1.0000
  O   O47       1.0  0.68820  0.40560  0.95260  1.0000
  O   O48       1.0  0.31180  0.40560  0.54740  1.0000
  O   O49       1.0  0.82680  0.17460  0.17160  1.0000
  O   O50       1.0  0.17320  0.17460  0.32840  1.0000
  O   O51       1.0  0.32680  0.67460  0.17160  1.0000
  O   O52       1.0  0.67320  0.67460  0.32840  1.0000
  O   O53       1.0  0.17320  0.82540  0.82840  1.0000
  O   O54       1.0  0.82680  0.82540  0.67160  1.0000
  O   O55       1.0  0.67320  0.32540  0.82840  1.0000
  O   O56       1.0  0.32680  0.32540  0.67160  1.0000
  O   O57       1.0  0.07290  0.95950  0.07800  1.0000
  O   O58       1.0  0.92710  0.95950  0.42200  1.0000
  O   O59       1.0  0.57290  0.45950  0.07800  1.0000
  O   O60       1.0  0.42710  0.45950  0.42200  1.0000
  O   O61       1.0  0.92710  0.04050  0.92200  1.0000
  O   O62       1.0  0.07290  0.04050  0.57800  1.0000
  O   O63       1.0  0.42710  0.54050  0.92200  1.0000
  O   O64       1.0  0.57290  0.54050  0.57800  1.0000
  C   C9        1.0  0.95290  0.83680  0.07720  1.0000
  C   C10       1.0  0.04710  0.83680  0.42280  1.0000
  C   C11       1.0  0.45290  0.33680  0.07720  1.0000
  C   C12       1.0  0.54710  0.33680  0.42280  1.0000
  C   C13       1.0  0.04710  0.16320  0.92280  1.0000
  C   C14       1.0  0.95290  0.16320  0.57720  1.0000
  C   C15       1.0  0.54710  0.66320  0.92280  1.0000
  C   C16       1.0  0.45290  0.66320  0.57720  1.0000
  C   C17       1.0  0.95220  0.91830  0.09050  1.0000
  C   C18       1.0  0.04780  0.91830  0.40950  1.0000
  C   C19       1.0  0.45220  0.41830  0.09050  1.0000
  C   C20       1.0  0.54780  0.41830  0.40950  1.0000
  C   C21       1.0  0.04780  0.08170  0.90950  1.0000
  C   C22       1.0  0.95220  0.08170  0.59050  1.0000
  C   C23       1.0  0.54780  0.58170  0.90950  1.0000
  C   C24       1.0  0.45220  0.58170  0.59050  1.0000
  C   C25       1.0  0.71640  0.13230  0.18650  1.0000
  C   C26       1.0  0.28360  0.13230  0.31350  1.0000
  C   C27       1.0  0.21640  0.63230  0.18650  1.0000
  C   C28       1.0  0.78360  0.63230  0.31350  1.0000
  C   C29       1.0  0.28360  0.86770  0.81350  1.0000
  C   C30       1.0  0.71640  0.86770  0.68650  1.0000
  C   C31       1.0  0.78360  0.36770  0.81350  1.0000
  C   C32       1.0  0.21640  0.36770  0.68650  1.0000
  C   C33       1.0  0.84050  0.72390  0.07660  1.0000
  C   C34       1.0  0.15950  0.72390  0.42340  1.0000
  C   C35       1.0  0.34050  0.22390  0.07660  1.0000
  C   C36       1.0  0.65950  0.22390  0.42340  1.0000
  C   C37       1.0  0.15950  0.27610  0.92340  1.0000
  C   C38       1.0  0.84050  0.27610  0.57660  1.0000
  C   C39       1.0  0.65950  0.77610  0.92340  1.0000
  C   C40       1.0  0.34050  0.77610  0.57660  1.0000
  O   O65       1.0  0.50000  0.11810  0.25000  1.0000
  O   O66       1.0  0.00000  0.61810  0.25000  1.0000
  O   O67       1.0  0.50000  0.88190  0.75000  1.0000
  O   O68       1.0  0.00000  0.38190  0.75000  1.0000
  C   C41       1.0  0.05190  0.79060  0.05190  1.0000
  C   C42       1.0  0.94810  0.79060  0.44810  1.0000
  C   C43       1.0  0.55190  0.29060  0.05190  1.0000
  C   C44       1.0  0.44810  0.29060  0.44810  1.0000
  C   C45       1.0  0.94810  0.20940  0.94810  1.0000
  C   C46       1.0  0.05190  0.20940  0.55190  1.0000
  C   C47       1.0  0.44810  0.70940  0.94810  1.0000
  C   C48       1.0  0.55190  0.70940  0.55190  1.0000
  H   H1        1.0  0.14950  0.80360  0.03720  1.0000
  H   H2        1.0  0.85050  0.80360  0.46280  1.0000
  H   H3        1.0  0.64950  0.30360  0.03720  1.0000
  H   H4        1.0  0.35050  0.30360  0.46280  1.0000
  H   H5        1.0  0.85050  0.19640  0.96280  1.0000
  H   H6        1.0  0.14950  0.19640  0.53720  1.0000
  H   H7        1.0  0.35050  0.69640  0.96280  1.0000
  H   H8        1.0  0.64950  0.69640  0.53720  1.0000
  C   C49       1.0  0.56560  0.23600  0.23270  1.0000
  C   C50       1.0  0.43440  0.23600  0.26730  1.0000
  C   C51       1.0  0.06560  0.73600  0.23270  1.0000
  C   C52       1.0  0.93440  0.73600  0.26730  1.0000
  C   C53       1.0  0.43440  0.76400  0.76730  1.0000
  C   C54       1.0  0.56560  0.76400  0.73270  1.0000
  C   C55       1.0  0.93440  0.26400  0.76730  1.0000
  C   C56       1.0  0.06560  0.26400  0.73270  1.0000
  H   H9        1.0  0.61830  0.27780  0.21960  1.0000
  H   H10       1.0  0.38170  0.27780  0.28040  1.0000
  H   H11       1.0  0.11830  0.77780  0.21960  1.0000
  H   H12       1.0  0.88170  0.77780  0.28040  1.0000
  H   H13       1.0  0.38170  0.72220  0.78040  1.0000
  H   H14       1.0  0.61830  0.72220  0.71960  1.0000
  H   H15       1.0  0.88170  0.22220  0.78040  1.0000
  H   H16       1.0  0.11830  0.22220  0.71960  1.0000
  C   C57       1.0  0.59810  0.16460  0.22270  1.0000
  C   C58       1.0  0.40190  0.16460  0.27730  1.0000
  C   C59       1.0  0.09810  0.66460  0.22270  1.0000
  C   C60       1.0  0.90190  0.66460  0.27730  1.0000
  C   C61       1.0  0.40190  0.83540  0.77730  1.0000
  C   C62       1.0  0.59810  0.83540  0.72270  1.0000
  C   C63       1.0  0.90190  0.33540  0.77730  1.0000
  C   C64       1.0  0.09810  0.33540  0.72270  1.0000
  C   C65       1.0  0.97830  0.71850  0.05220  1.0000
  C   C66       1.0  0.02170  0.71850  0.44780  1.0000
  C   C67       1.0  0.47830  0.21850  0.05220  1.0000
  C   C68       1.0  0.52170  0.21850  0.44780  1.0000
  C   C69       1.0  0.02170  0.28150  0.94780  1.0000
  C   C70       1.0  0.97830  0.28150  0.55220  1.0000
  C   C71       1.0  0.52170  0.78150  0.94780  1.0000
  C   C72       1.0  0.47830  0.78150  0.55220  1.0000
  H   H17       1.0  0.01950  0.67460  0.03770  1.0000
  H   H18       1.0  0.98050  0.67460  0.46230  1.0000
  H   H19       1.0  0.51950  0.17460  0.03770  1.0000
  H   H20       1.0  0.48050  0.17460  0.46230  1.0000
  H   H21       1.0  0.98050  0.32540  0.96230  1.0000
  H   H22       1.0  0.01950  0.32540  0.53770  1.0000
  H   H23       1.0  0.48050  0.82540  0.96230  1.0000
  H   H24       1.0  0.51950  0.82540  0.53770  1.0000
  O   O69       1.0  0.09920  0.05280  0.19240  1.0000
  O   O70       1.0  0.90080  0.05280  0.30760  1.0000
  O   O71       1.0  0.59920  0.55280  0.19240  1.0000
  O   O72       1.0  0.40080  0.55280  0.30760  1.0000
  O   O73       1.0  0.90080  0.94720  0.80760  1.0000
  O   O74       1.0  0.09920  0.94720  0.69240  1.0000
  O   O75       1.0  0.40080  0.44720  0.80760  1.0000
  O   O76       1.0  0.59920  0.44720  0.69240  1.0000
