data_image0
_chemical_formula_structural       U4O22H2O12H2O6C2H2C2H2C2H2C2H2C10H2C2H2C2H2C2H2C8
_chemical_formula_sum              "U4 O40 H20 C32"
_cell_length_a       8.3551
_cell_length_b       17.137
_cell_length_c       14.6771
_cell_angle_alpha    90
_cell_angle_beta     94.279
_cell_angle_gamma    90

_space_group_name_H-M_alt    "P 1"
_space_group_IT_number       1

loop_
  _space_group_symop_operation_xyz
  'x, y, z'

loop_
  _atom_site_type_symbol
  _atom_site_label
  _atom_site_symmetry_multiplicity
  _atom_site_fract_x
  _atom_site_fract_y
  _atom_site_fract_z
  _atom_site_occupancy
  U   U1        1.0  0.69017  0.18836  0.37498  1.0000
  U   U2        1.0  0.30983  0.68836  0.62502  1.0000
  U   U3        1.0  0.18492  0.21588  0.88086  1.0000
  U   U4        1.0  0.81508  0.71588  0.11914  1.0000
  O   O1        1.0  0.66340  0.09290  0.41610  1.0000
  O   O2        1.0  0.33660  0.59290  0.58390  1.0000
  O   O3        1.0  0.71940  0.28270  0.33400  1.0000
  O   O4        1.0  0.28060  0.78270  0.66600  1.0000
  O   O5        1.0  0.20440  0.13490  0.80680  1.0000
  O   O6        1.0  0.79560  0.63490  0.19320  1.0000
  O   O7        1.0  0.16520  0.29780  0.95140  1.0000
  O   O8        1.0  0.83480  0.79780  0.04860  1.0000
  O   O9        1.0  0.83010  0.22350  0.52390  1.0000
  O   O10       1.0  0.16990  0.72350  0.47610  1.0000
  O   O11       1.0  0.56870  0.25040  0.50810  1.0000
  O   O12       1.0  0.43130  0.75040  0.49190  1.0000
  O   O13       1.0  0.99870  0.27700  0.76410  1.0000
  O   O14       1.0  0.00130  0.77700  0.23590  1.0000
  O   O15       1.0  0.88400  0.19730  0.85630  1.0000
  O   O16       1.0  0.11600  0.69730  0.14370  1.0000
  O   O17       1.0  0.47330  0.24270  0.87920  1.0000
  O   O18       1.0  0.52670  0.74270  0.12080  1.0000
  O   O19       1.0  0.31740  0.29830  0.77150  1.0000
  O   O20       1.0  0.68260  0.79830  0.22850  1.0000
  O   O21       1.0  0.63820  0.44870  0.56900  1.0000
  O   O22       1.0  0.36180  0.94870  0.43100  1.0000
  H   H1        1.0  0.69210  0.49740  0.56620  1.0000
  H   H2        1.0  0.30790  0.99740  0.43380  1.0000
  O   O23       1.0  0.58690  0.48350  0.71080  1.0000
  O   O24       1.0  0.41310  0.98350  0.28920  1.0000
  O   O25       1.0  0.38550  0.19950  0.34960  1.0000
  O   O26       1.0  0.61450  0.69950  0.65040  1.0000
  O   O27       1.0  0.51950  0.16260  0.23300  1.0000
  O   O28       1.0  0.48050  0.66260  0.76700  1.0000
  O   O29       1.0  0.83810  0.13450  0.25210  1.0000
  O   O30       1.0  0.16190  0.63450  0.74790  1.0000
  O   O31       1.0  0.98210  0.16460  0.37880  1.0000
  O   O32       1.0  0.01790  0.66460  0.62120  1.0000
  O   O33       1.0  0.99370  0.93680  0.23630  1.0000
  O   O34       1.0  0.00630  0.43680  0.76370  1.0000
  H   H3        1.0  0.97100  0.88190  0.22150  1.0000
  H   H4        1.0  0.02900  0.38190  0.77850  1.0000
  O   O35       1.0  0.14470  0.92480  0.11770  1.0000
  O   O36       1.0  0.85530  0.42480  0.88230  1.0000
  O   O37       1.0  0.08260  0.13600  0.00180  1.0000
  O   O38       1.0  0.91740  0.63600  0.99820  1.0000
  O   O39       1.0  0.34230  0.15100  0.00530  1.0000
  O   O40       1.0  0.65770  0.65100  0.99470  1.0000
  C   C1        1.0  0.72290  0.29960  0.64160  1.0000
  C   C2        1.0  0.27710  0.79960  0.35840  1.0000
  H   H5        1.0  0.81990  0.33190  0.64410  1.0000
  H   H6        1.0  0.18010  0.83190  0.35590  1.0000
  C   C3        1.0  0.71680  0.25180  0.73110  1.0000
  C   C4        1.0  0.28320  0.75180  0.26890  1.0000
  H   H7        1.0  0.66090  0.20210  0.71960  1.0000
  H   H8        1.0  0.33910  0.70210  0.28040  1.0000
  C   C5        1.0  0.59900  0.31580  0.76700  1.0000
  C   C6        1.0  0.40100  0.81580  0.23300  1.0000
  H   H9        1.0  0.65700  0.35290  0.80820  1.0000
  H   H10       1.0  0.34300  0.85290  0.19180  1.0000
  C   C7        1.0  0.58030  0.34770  0.66760  1.0000
  C   C8        1.0  0.41970  0.84770  0.33240  1.0000
  H   H11       1.0  0.48080  0.32830  0.63580  1.0000
  H   H12       1.0  0.51920  0.82830  0.36420  1.0000
  C   C9        1.0  0.70620  0.25440  0.55250  1.0000
  C   C10       1.0  0.29380  0.75440  0.44750  1.0000
  C   C11       1.0  0.87190  0.23990  0.78670  1.0000
  C   C12       1.0  0.12810  0.73990  0.21330  1.0000
  C   C13       1.0  0.45800  0.28400  0.80800  1.0000
  C   C14       1.0  0.54200  0.78400  0.19200  1.0000
  C   C15       1.0  0.59660  0.43530  0.65330  1.0000
  C   C16       1.0  0.40340  0.93530  0.34670  1.0000
  C   C17       1.0  0.23240  0.15160  0.21660  1.0000
  C   C18       1.0  0.76760  0.65160  0.78340  1.0000
  H   H13       1.0  0.17700  0.19950  0.19580  1.0000
  H   H14       1.0  0.82300  0.69950  0.80420  1.0000
  C   C19       1.0  0.11530  0.09570  0.26280  1.0000
  C   C20       1.0  0.88470  0.59570  0.73720  1.0000
  H   H15       1.0  0.17280  0.06290  0.30920  1.0000
  H   H16       1.0  0.82720  0.56290  0.69080  1.0000
  C   C21       1.0  0.08710  0.05250  0.17210  1.0000
  C   C22       1.0  0.91290  0.55250  0.82790  1.0000
  H   H17       1.0  0.99030  0.07290  0.13850  1.0000
  H   H18       1.0  0.00970  0.57290  0.86150  1.0000
  C   C23       1.0  0.23670  0.09160  0.13630  1.0000
  C   C24       1.0  0.76330  0.59160  0.86370  1.0000
  H   H19       1.0  0.33100  0.05760  0.14410  1.0000
  H   H20       1.0  0.66900  0.55760  0.85590  1.0000
  C   C25       1.0  0.39030  0.17070  0.26990  1.0000
  C   C26       1.0  0.60970  0.67070  0.73010  1.0000
  C   C27       1.0  0.96970  0.13420  0.30010  1.0000
  C   C28       1.0  0.03030  0.63420  0.69990  1.0000
  C   C29       1.0  0.08290  0.96590  0.17120  1.0000
  C   C30       1.0  0.91710  0.46590  0.82880  1.0000
  C   C31       1.0  0.21830  0.12570  0.04180  1.0000
  C   C32       1.0  0.78170  0.62570  0.95820  1.0000
