data_image0
_chemical_formula_structural       U4O32C12
_chemical_formula_sum              "U4 O32 C12"
_cell_length_a       6.9784
_cell_length_b       11.8557
_cell_length_c       18.6374
_cell_angle_alpha    90
_cell_angle_beta     98.759
_cell_angle_gamma    90

_space_group_name_H-M_alt    "P 1"
_space_group_IT_number       1

loop_
  _space_group_symop_operation_xyz
  'x, y, z'

loop_
  _atom_site_type_symbol
  _atom_site_label
  _atom_site_symmetry_multiplicity
  _atom_site_fract_x
  _atom_site_fract_y
  _atom_site_fract_z
  _atom_site_occupancy
  U   U1        1.0  0.45985  0.53533  0.32959  1.0000
  U   U2        1.0  0.54015  0.03533  0.17041  1.0000
  U   U3        1.0  0.54015  0.46467  0.67041  1.0000
  U   U4        1.0  0.45985  0.96467  0.82959  1.0000
  O   O1        1.0  0.20440  0.53830  0.32423  1.0000
  O   O2        1.0  0.79560  0.03830  0.17577  1.0000
  O   O3        1.0  0.79560  0.46170  0.67577  1.0000
  O   O4        1.0  0.20440  0.96170  0.82423  1.0000
  O   O5        1.0  0.71560  0.52940  0.33637  1.0000
  O   O6        1.0  0.28440  0.02940  0.16363  1.0000
  O   O7        1.0  0.28440  0.47060  0.66363  1.0000
  O   O8        1.0  0.71560  0.97060  0.83637  1.0000
  O   O9        1.0  0.45810  0.40230  0.42977  1.0000
  O   O10       1.0  0.54190  0.90230  0.07023  1.0000
  O   O11       1.0  0.54190  0.59770  0.57023  1.0000
  O   O12       1.0  0.45810  0.09770  0.92977  1.0000
  O   O13       1.0  0.49320  0.37690  0.55038  1.0000
  O   O14       1.0  0.50680  0.87690  0.94962  1.0000
  O   O15       1.0  0.50680  0.62310  0.44962  1.0000
  O   O16       1.0  0.49320  0.12310  0.05038  1.0000
  O   O17       1.0  0.47130  0.34140  0.28958  1.0000
  O   O18       1.0  0.52870  0.84140  0.21042  1.0000
  O   O19       1.0  0.52870  0.65860  0.71042  1.0000
  O   O20       1.0  0.47130  0.15860  0.78958  1.0000
  O   O21       1.0  0.52440  0.22460  0.20190  1.0000
  O   O22       1.0  0.47560  0.72460  0.29810  1.0000
  O   O23       1.0  0.47560  0.77540  0.79810  1.0000
  O   O24       1.0  0.52440  0.27540  0.70190  1.0000
  O   O25       1.0  0.42240  0.51220  0.20342  1.0000
  O   O26       1.0  0.57760  0.01220  0.29658  1.0000
  O   O27       1.0  0.57760  0.48780  0.79658  1.0000
  O   O28       1.0  0.42240  0.98780  0.70342  1.0000
  O   O29       1.0  0.43130  0.40270  0.10550  1.0000
  O   O30       1.0  0.56870  0.90270  0.39450  1.0000
  O   O31       1.0  0.56870  0.59730  0.89450  1.0000
  O   O32       1.0  0.43130  0.09730  0.60550  1.0000
  C   C1        1.0  0.48580  0.43730  0.49453  1.0000
  C   C2        1.0  0.51420  0.93730  0.00547  1.0000
  C   C3        1.0  0.51420  0.56270  0.50547  1.0000
  C   C4        1.0  0.48580  0.06270  0.99453  1.0000
  C   C5        1.0  0.48230  0.31930  0.22413  1.0000
  C   C6        1.0  0.51770  0.81930  0.27587  1.0000
  C   C7        1.0  0.51770  0.68070  0.77587  1.0000
  C   C8        1.0  0.48230  0.18070  0.72413  1.0000
  C   C9        1.0  0.44140  0.41900  0.17112  1.0000
  C   C10       1.0  0.55860  0.91900  0.32888  1.0000
  C   C11       1.0  0.55860  0.58100  0.82888  1.0000
  C   C12       1.0  0.44140  0.08100  0.67112  1.0000
