data_image0
_chemical_formula_structural       U8O36H4O4H4O4H4C8
_chemical_formula_sum              "U8 O44 H12 C8"
_cell_length_a       9.7325
_cell_length_b       19.1566
_cell_length_c       11.6271
_cell_angle_alpha    90
_cell_angle_beta     104.173
_cell_angle_gamma    90

_space_group_name_H-M_alt    "P 1"
_space_group_IT_number       1

loop_
  _space_group_symop_operation_xyz
  'x, y, z'

loop_
  _atom_site_type_symbol
  _atom_site_label
  _atom_site_symmetry_multiplicity
  _atom_site_fract_x
  _atom_site_fract_y
  _atom_site_fract_z
  _atom_site_occupancy
  U   U1        1.0  0.62491  0.22840  0.27698  1.0000
  U   U2        1.0  0.87509  0.72840  0.22303  1.0000
  U   U3        1.0  0.37509  0.77160  0.72303  1.0000
  U   U4        1.0  0.12492  0.27160  0.77697  1.0000
  U   U5        1.0  0.22601  0.26381  0.15521  1.0000
  U   U6        1.0  0.27399  0.76381  0.34479  1.0000
  U   U7        1.0  0.77399  0.73619  0.84479  1.0000
  U   U8        1.0  0.72601  0.23619  0.65521  1.0000
  O   O1        1.0  0.67950  0.31352  0.32810  1.0000
  O   O2        1.0  0.82050  0.81352  0.17190  1.0000
  O   O3        1.0  0.32050  0.68648  0.67190  1.0000
  O   O4        1.0  0.17950  0.18648  0.82810  1.0000
  O   O5        1.0  0.58530  0.14133  0.22410  1.0000
  O   O6        1.0  0.91470  0.64133  0.27590  1.0000
  O   O7        1.0  0.41470  0.85867  0.77590  1.0000
  O   O8        1.0  0.08530  0.35867  0.72410  1.0000
  O   O9        1.0  0.21120  0.35009  0.20730  1.0000
  O   O10       1.0  0.28880  0.85009  0.29270  1.0000
  O   O11       1.0  0.78880  0.64991  0.79270  1.0000
  O   O12       1.0  0.71120  0.14991  0.70730  1.0000
  O   O13       1.0  0.22860  0.17619  0.10440  1.0000
  O   O14       1.0  0.27140  0.67619  0.39560  1.0000
  O   O15       1.0  0.77140  0.82381  0.89560  1.0000
  O   O16       1.0  0.72860  0.32381  0.60440  1.0000
  O   O17       1.0  0.88670  0.20555  0.34310  1.0000
  O   O18       1.0  0.61330  0.70555  0.15690  1.0000
  O   O19       1.0  0.11330  0.79445  0.65690  1.0000
  O   O20       1.0  0.38670  0.29445  0.84310  1.0000
  O   O21       1.0  0.09610  0.22517  0.30120  1.0000
  O   O22       1.0  0.40390  0.72517  0.19880  1.0000
  O   O23       1.0  0.90390  0.77483  0.69880  1.0000
  O   O24       1.0  0.59610  0.27483  0.80120  1.0000
  O   O25       1.0  0.75350  0.23558  0.11960  1.0000
  O   O26       1.0  0.74650  0.73558  0.38040  1.0000
  O   O27       1.0  0.24650  0.76442  0.88040  1.0000
  O   O28       1.0  0.25350  0.26442  0.61960  1.0000
  O   O29       1.0  0.96150  0.25536  0.07670  1.0000
  O   O30       1.0  0.53850  0.75536  0.42330  1.0000
  O   O31       1.0  0.03850  0.74464  0.92330  1.0000
  O   O32       1.0  0.46150  0.24464  0.57670  1.0000
  O   O33       1.0  0.45330  0.27605  0.11890  1.0000
  O   O34       1.0  0.04670  0.77605  0.38110  1.0000
  O   O35       1.0  0.54670  0.72395  0.88110  1.0000
  O   O36       1.0  0.95330  0.22395  0.61890  1.0000
  H   H1        1.0  0.46490  0.29030  0.04710  1.0000
  H   H2        1.0  0.03510  0.79030  0.45290  1.0000
  H   H3        1.0  0.53510  0.70970  0.95290  1.0000
  H   H4        1.0  0.96490  0.20970  0.54710  1.0000
  O   O37       1.0  0.40550  0.23923  0.32150  1.0000
  O   O38       1.0  0.09450  0.73923  0.17850  1.0000
  O   O39       1.0  0.59450  0.76077  0.67850  1.0000
  O   O40       1.0  0.90550  0.26077  0.82150  1.0000
  H   H5        1.0  0.39180  0.24990  0.38460  1.0000
  H   H6        1.0  0.10820  0.74990  0.11540  1.0000
  H   H7        1.0  0.60820  0.75010  0.61540  1.0000
  H   H8        1.0  0.89180  0.25010  0.88460  1.0000
  O   O41       1.0  0.67180  0.18758  0.46760  1.0000
  O   O42       1.0  0.82820  0.68758  0.03240  1.0000
  O   O43       1.0  0.32820  0.81242  0.53240  1.0000
  O   O44       1.0  0.17180  0.31242  0.96760  1.0000
  H   H9        1.0  0.66570  0.14420  0.49530  1.0000
  H   H10       1.0  0.83430  0.64420  0.00470  1.0000
  H   H11       1.0  0.33430  0.85580  0.50470  1.0000
  H   H12       1.0  0.16570  0.35580  0.99530  1.0000
  C   C1        1.0  0.96400  0.22150  0.27470  1.0000
  C   C2        1.0  0.53600  0.72150  0.22530  1.0000
  C   C3        1.0  0.03600  0.77850  0.72530  1.0000
  C   C4        1.0  0.46400  0.27850  0.77470  1.0000
  C   C5        1.0  0.88520  0.23910  0.14360  1.0000
  C   C6        1.0  0.61480  0.73910  0.35640  1.0000
  C   C7        1.0  0.11480  0.76090  0.85640  1.0000
  C   C8        1.0  0.38520  0.26090  0.64360  1.0000
