data_image0
_chemical_formula_structural       Gd4O4H8Gd4O4H8O16C8O16C8O16C8O8C4O8C4
_chemical_formula_sum              "Gd8 O72 H16 C32"
_cell_length_a       9.9174
_cell_length_b       35.3475
_cell_length_c       8.5763
_cell_angle_alpha    90
_cell_angle_beta     108.282
_cell_angle_gamma    90

_space_group_name_H-M_alt    "P 1"
_space_group_IT_number       1

loop_
  _space_group_symop_operation_xyz
  'x, y, z'

loop_
  _atom_site_type_symbol
  _atom_site_label
  _atom_site_symmetry_multiplicity
  _atom_site_fract_x
  _atom_site_fract_y
  _atom_site_fract_z
  _atom_site_occupancy
  Gd  Gd1       1.0  0.95252  0.43551  0.73105  1.0000
  Gd  Gd2       1.0  0.04748  0.93551  0.76895  1.0000
  Gd  Gd3       1.0  0.04748  0.56449  0.26895  1.0000
  Gd  Gd4       1.0  0.95252  0.06449  0.23105  1.0000
  O   O1        1.0  0.69480  0.43330  0.63570  1.0000
  O   O2        1.0  0.30520  0.93330  0.86430  1.0000
  O   O3        1.0  0.30520  0.56670  0.36430  1.0000
  O   O4        1.0  0.69480  0.06670  0.13570  1.0000
  H   H1        1.0  0.66747  0.41193  0.65610  1.0000
  H   H2        1.0  0.33253  0.91193  0.84390  1.0000
  H   H3        1.0  0.33253  0.58807  0.34390  1.0000
  H   H4        1.0  0.66747  0.08807  0.15610  1.0000
  H   H5        1.0  0.67700  0.45500  0.65200  1.0000
  H   H6        1.0  0.32300  0.95500  0.84800  1.0000
  H   H7        1.0  0.32300  0.54500  0.34800  1.0000
  H   H8        1.0  0.67700  0.04500  0.15200  1.0000
  Gd  Gd5       1.0  0.14421  0.31682  0.29548  1.0000
  Gd  Gd6       1.0  0.85579  0.81682  0.20452  1.0000
  Gd  Gd7       1.0  0.85579  0.68318  0.70452  1.0000
  Gd  Gd8       1.0  0.14421  0.18318  0.79548  1.0000
  O   O5        1.0  0.40170  0.32110  0.37330  1.0000
  O   O6        1.0  0.59830  0.82110  0.12670  1.0000
  O   O7        1.0  0.59830  0.67890  0.62670  1.0000
  O   O8        1.0  0.40170  0.17890  0.87330  1.0000
  H   H9        1.0  0.43981  0.32565  0.48198  1.0000
  H   H10       1.0  0.56019  0.82565  0.01802  1.0000
  H   H11       1.0  0.56019  0.67435  0.51802  1.0000
  H   H12       1.0  0.43981  0.17435  0.98198  1.0000
  H   H13       1.0  0.42802  0.34165  0.32724  1.0000
  H   H14       1.0  0.57198  0.84165  0.17276  1.0000
  H   H15       1.0  0.57198  0.65835  0.67276  1.0000
  H   H16       1.0  0.42802  0.15835  0.82724  1.0000
  O   O9        1.0  0.11540  0.42130  0.00190  1.0000
  O   O10       1.0  0.88460  0.92130  0.49810  1.0000
  O   O11       1.0  0.88460  0.57870  0.99810  1.0000
  O   O12       1.0  0.11540  0.07870  0.50190  1.0000
  O   O13       1.0  0.88620  0.38020  0.84970  1.0000
  O   O14       1.0  0.11380  0.88020  0.65030  1.0000
  O   O15       1.0  0.11380  0.61980  0.15030  1.0000
  O   O16       1.0  0.88620  0.11980  0.34970  1.0000
  O   O17       1.0  0.96600  0.33350  0.03540  1.0000
  O   O18       1.0  0.03400  0.83350  0.46460  1.0000
  O   O19       1.0  0.03400  0.66650  0.96460  1.0000
  O   O20       1.0  0.96600  0.16650  0.53540  1.0000
  O   O21       1.0  0.19320  0.37670  0.19260  1.0000
  O   O22       1.0  0.80680  0.87670  0.30740  1.0000
  O   O23       1.0  0.80680  0.62330  0.80740  1.0000
  O   O24       1.0  0.19320  0.12330  0.69260  1.0000
  C   C1        1.0  0.10610  0.39020  0.06320  1.0000
  C   C2        1.0  0.89390  0.89020  0.43680  1.0000
  C   C3        1.0  0.89390  0.60980  0.93680  1.0000
  C   C4        1.0  0.10610  0.10980  0.56320  1.0000
  C   C5        1.0  0.97700  0.36540  0.97890  1.0000
  C   C6        1.0  0.02300  0.86540  0.52110  1.0000
  C   C7        1.0  0.02300  0.63460  0.02110  1.0000
  C   C8        1.0  0.97700  0.13460  0.47890  1.0000
  O   O25       1.0  0.25420  0.26040  0.44030  1.0000
  O   O26       1.0  0.74580  0.76040  0.05970  1.0000
  O   O27       1.0  0.74580  0.73960  0.55970  1.0000
  O   O28       1.0  0.25420  0.23960  0.94030  1.0000
  O   O29       1.0  0.01530  0.28710  0.47500  1.0000
  O   O30       1.0  0.98470  0.78710  0.02500  1.0000
  O   O31       1.0  0.98470  0.71290  0.52500  1.0000
  O   O32       1.0  0.01530  0.21290  0.97500  1.0000
  O   O33       1.0  0.01430  0.23960  0.64730  1.0000
  O   O34       1.0  0.98570  0.73960  0.85270  1.0000
  O   O35       1.0  0.98570  0.76040  0.35270  1.0000
  O   O36       1.0  0.01430  0.26040  0.14730  1.0000
  O   O37       1.0  0.24100  0.20988  0.59110  1.0000
  O   O38       1.0  0.75900  0.70988  0.90890  1.0000
  O   O39       1.0  0.75900  0.79012  0.40890  1.0000
  O   O40       1.0  0.24100  0.29012  0.09110  1.0000
  C   C9        1.0  0.20020  0.24120  0.52560  1.0000
  C   C10       1.0  0.79980  0.74120  0.97440  1.0000
  C   C11       1.0  0.79980  0.75880  0.47440  1.0000
  C   C12       1.0  0.20020  0.25880  0.02560  1.0000
  C   C13       1.0  0.06270  0.25760  0.55140  1.0000
  C   C14       1.0  0.93730  0.75760  0.94860  1.0000
  C   C15       1.0  0.93730  0.74240  0.44860  1.0000
  C   C16       1.0  0.06270  0.24240  0.05140  1.0000
  O   O41       1.0  0.95660  0.35830  0.32750  1.0000
  O   O42       1.0  0.04340  0.85830  0.17250  1.0000
  O   O43       1.0  0.04340  0.64170  0.67250  1.0000
  O   O44       1.0  0.95660  0.14170  0.82750  1.0000
  O   O45       1.0  0.21660  0.35460  0.54500  1.0000
  O   O46       1.0  0.78340  0.85460  0.95500  1.0000
  O   O47       1.0  0.78340  0.64540  0.45500  1.0000
  O   O48       1.0  0.21660  0.14540  0.04500  1.0000
  O   O49       1.0  0.14430  0.39010  0.72040  1.0000
  O   O50       1.0  0.85570  0.89010  0.77960  1.0000
  O   O51       1.0  0.85570  0.60990  0.27960  1.0000
  O   O52       1.0  0.14430  0.10990  0.22040  1.0000
  O   O53       1.0  0.88390  0.39410  0.50030  1.0000
  O   O54       1.0  0.11610  0.89410  0.99970  1.0000
  O   O55       1.0  0.11610  0.60590  0.49970  1.0000
  O   O56       1.0  0.88390  0.10590  0.00030  1.0000
  C   C17       1.0  0.97400  0.37500  0.45770  1.0000
  C   C18       1.0  0.02600  0.87500  0.04230  1.0000
  C   C19       1.0  0.02600  0.62500  0.54230  1.0000
  C   C20       1.0  0.97400  0.12500  0.95770  1.0000
  C   C21       1.0  0.12740  0.37400  0.58780  1.0000
  C   C22       1.0  0.87260  0.87400  0.91220  1.0000
  C   C23       1.0  0.87260  0.62600  0.41220  1.0000
  C   C24       1.0  0.12740  0.12600  0.08780  1.0000
  O   O57       1.0  0.09740  0.49082  0.86510  1.0000
  O   O58       1.0  0.90260  0.99082  0.63490  1.0000
  O   O59       1.0  0.90260  0.50918  0.13490  1.0000
  O   O60       1.0  0.09740  0.00918  0.36510  1.0000
  O   O61       1.0  0.13860  0.53256  0.07180  1.0000
  O   O62       1.0  0.86140  0.03256  0.42820  1.0000
  O   O63       1.0  0.86140  0.46744  0.92820  1.0000
  O   O64       1.0  0.13860  0.96744  0.57180  1.0000
  C   C25       1.0  0.06870  0.50650  0.97980  1.0000
  C   C26       1.0  0.93130  0.00650  0.52020  1.0000
  C   C27       1.0  0.93130  0.49350  0.02020  1.0000
  C   C28       1.0  0.06870  0.99350  0.47980  1.0000
  O   O65       1.0  0.09190  0.45800  0.56120  1.0000
  O   O66       1.0  0.90810  0.95800  0.93880  1.0000
  O   O67       1.0  0.90810  0.54200  0.43880  1.0000
  O   O68       1.0  0.09190  0.04200  0.06120  1.0000
  O   O69       1.0  0.14460  0.50760  0.42880  1.0000
  O   O70       1.0  0.85540  0.00760  0.07120  1.0000
  O   O71       1.0  0.85540  0.49240  0.57120  1.0000
  O   O72       1.0  0.14460  0.99240  0.92880  1.0000
  C   C29       1.0  0.06990  0.48970  0.49890  1.0000
  C   C30       1.0  0.93010  0.98970  0.00110  1.0000
  C   C31       1.0  0.93010  0.51030  0.50110  1.0000
  C   C32       1.0  0.06990  0.01030  0.99890  1.0000
