data_image0
_chemical_formula_structural       Mo20Ni4P8O88H8O4H8O4H8O4H8N8H4C4H8C8H4C4H4C4H4C4H4C8H8C4H4C4H4C4H4C4H4C12H4C4H4C4H4C4H4
_chemical_formula_sum              "Mo20 Ni4 P8 O100 H100 N8 C72"
_cell_length_a       15.6642
_cell_length_b       17.0366
_cell_length_c       18.1045
_cell_angle_alpha    90
_cell_angle_beta     110.366
_cell_angle_gamma    90

_space_group_name_H-M_alt    "P 1"
_space_group_IT_number       1

loop_
  _space_group_symop_operation_xyz
  'x, y, z'

loop_
  _atom_site_type_symbol
  _atom_site_label
  _atom_site_symmetry_multiplicity
  _atom_site_fract_x
  _atom_site_fract_y
  _atom_site_fract_z
  _atom_site_occupancy
  Mo  Mo1       1.0  0.11372  0.13930  0.92861  1.0000
  Mo  Mo2       1.0  0.88628  0.63930  0.57139  1.0000
  Mo  Mo3       1.0  0.88628  0.86070  0.07139  1.0000
  Mo  Mo4       1.0  0.11372  0.36070  0.42861  1.0000
  Mo  Mo5       1.0  0.04462  0.31458  0.97417  1.0000
  Mo  Mo6       1.0  0.95538  0.81458  0.52583  1.0000
  Mo  Mo7       1.0  0.95538  0.68542  0.02583  1.0000
  Mo  Mo8       1.0  0.04462  0.18542  0.47417  1.0000
  Mo  Mo9       1.0  0.23245  0.42683  0.05549  1.0000
  Mo  Mo10      1.0  0.76755  0.92683  0.44451  1.0000
  Mo  Mo11      1.0  0.76755  0.57317  0.94451  1.0000
  Mo  Mo12      1.0  0.23245  0.07317  0.55549  1.0000
  Mo  Mo13      1.0  0.42252  0.32077  0.07984  1.0000
  Mo  Mo14      1.0  0.57748  0.82077  0.42016  1.0000
  Mo  Mo15      1.0  0.57748  0.67923  0.92016  1.0000
  Mo  Mo16      1.0  0.42252  0.17923  0.57984  1.0000
  Mo  Mo17      1.0  0.36168  0.13227  0.03320  1.0000
  Mo  Mo18      1.0  0.63832  0.63227  0.46680  1.0000
  Mo  Mo19      1.0  0.63832  0.86773  0.96680  1.0000
  Mo  Mo20      1.0  0.36168  0.36773  0.53320  1.0000
  Ni  Ni1       1.0  0.33465  0.49020  0.26712  1.0000
  Ni  Ni2       1.0  0.66535  0.99020  0.23288  1.0000
  Ni  Ni3       1.0  0.66535  0.50980  0.73288  1.0000
  Ni  Ni4       1.0  0.33465  0.00980  0.76712  1.0000
  P   P1        1.0  0.23556  0.20610  0.41415  1.0000
  P   P2        1.0  0.76444  0.70610  0.08585  1.0000
  P   P3        1.0  0.76444  0.79390  0.58585  1.0000
  P   P4        1.0  0.23556  0.29390  0.91415  1.0000
  P   P5        1.0  0.23390  0.23197  0.11265  1.0000
  P   P6        1.0  0.76610  0.73197  0.38735  1.0000
  P   P7        1.0  0.76610  0.76803  0.88735  1.0000
  P   P8        1.0  0.23390  0.26803  0.61265  1.0000
  O   O1        1.0  0.23896  0.10683  0.97377  1.0000
  O   O2        1.0  0.76104  0.60683  0.52623  1.0000
  O   O3        1.0  0.76104  0.89317  0.02623  1.0000
  O   O4        1.0  0.23896  0.39317  0.47377  1.0000
  O   O5        1.0  0.08138  0.09345  0.83935  1.0000
  O   O6        1.0  0.91862  0.59345  0.66065  1.0000
  O   O7        1.0  0.91862  0.90655  0.16065  1.0000
  O   O8        1.0  0.08138  0.40655  0.33935  1.0000
  O   O9        1.0  0.17666  0.27279  0.36926  1.0000
  O   O10       1.0  0.82334  0.77279  0.13074  1.0000
  O   O11       1.0  0.82334  0.72721  0.63074  1.0000
  O   O12       1.0  0.17666  0.22721  0.86926  1.0000
  O   O13       1.0  0.02864  0.22633  0.90377  1.0000
  O   O14       1.0  0.97136  0.72633  0.59623  1.0000
  O   O15       1.0  0.97136  0.77367  0.09623  1.0000
  O   O16       1.0  0.02864  0.27367  0.40377  1.0000
  O   O17       1.0  0.06657  0.08112  0.98151  1.0000
  O   O18       1.0  0.93343  0.58112  0.51849  1.0000
  O   O19       1.0  0.93343  0.91888  0.01849  1.0000
  O   O20       1.0  0.06657  0.41888  0.48151  1.0000
  O   O21       1.0  0.15129  0.22691  0.03412  1.0000
  O   O22       1.0  0.84871  0.72691  0.46588  1.0000
  O   O23       1.0  0.84871  0.77309  0.96588  1.0000
  O   O24       1.0  0.15129  0.27309  0.53412  1.0000
  O   O25       1.0  0.18075  0.15070  0.44900  1.0000
  O   O26       1.0  0.81925  0.65070  0.05100  1.0000
  O   O27       1.0  0.81925  0.84930  0.55100  1.0000
  O   O28       1.0  0.18075  0.34930  0.94900  1.0000
  O   O29       1.0  0.98867  0.38351  0.90502  1.0000
  O   O30       1.0  0.01133  0.88351  0.59498  1.0000
  O   O31       1.0  0.01133  0.61649  0.09498  1.0000
  O   O32       1.0  0.98867  0.11649  0.40502  1.0000
  O   O33       1.0  0.96831  0.28808  0.01730  1.0000
  O   O34       1.0  0.03169  0.78808  0.48270  1.0000
  O   O35       1.0  0.03169  0.71192  0.98270  1.0000
  O   O36       1.0  0.96831  0.21192  0.51730  1.0000
  O   O37       1.0  0.12084  0.38176  0.05773  1.0000
  O   O38       1.0  0.87916  0.88176  0.44227  1.0000
  O   O39       1.0  0.87916  0.61824  0.94227  1.0000
  O   O40       1.0  0.12084  0.11824  0.55773  1.0000
  O   O41       1.0  0.19580  0.50927  0.00068  1.0000
  O   O42       1.0  0.80420  0.00927  0.49932  1.0000
  O   O43       1.0  0.80420  0.49073  0.99932  1.0000
  O   O44       1.0  0.19580  0.99073  0.50068  1.0000
  O   O45       1.0  0.29080  0.30612  0.11437  1.0000
  O   O46       1.0  0.70920  0.80612  0.38563  1.0000
  O   O47       1.0  0.70920  0.69388  0.88563  1.0000
  O   O48       1.0  0.29080  0.19388  0.61437  1.0000
  O   O49       1.0  0.34502  0.41092  0.03807  1.0000
  O   O50       1.0  0.65498  0.91092  0.46193  1.0000
  O   O51       1.0  0.65498  0.58908  0.96193  1.0000
  O   O52       1.0  0.34502  0.08908  0.53807  1.0000
  O   O53       1.0  0.27036  0.46198  0.15147  1.0000
  O   O54       1.0  0.72964  0.96198  0.34853  1.0000
  O   O55       1.0  0.72964  0.53802  0.84853  1.0000
  O   O56       1.0  0.27036  0.03802  0.65147  1.0000
  O   O57       1.0  0.47690  0.35184  0.17561  1.0000
  O   O58       1.0  0.52310  0.85184  0.32439  1.0000
  O   O59       1.0  0.52310  0.64816  0.82439  1.0000
  O   O60       1.0  0.47690  0.14816  0.67561  1.0000
  O   O61       1.0  0.49897  0.33961  0.03445  1.0000
  O   O62       1.0  0.50103  0.83961  0.46555  1.0000
  O   O63       1.0  0.50103  0.66039  0.96555  1.0000
  O   O64       1.0  0.49897  0.16039  0.53445  1.0000
  O   O65       1.0  0.43989  0.20974  0.10038  1.0000
  O   O66       1.0  0.56011  0.70974  0.39962  1.0000
  O   O67       1.0  0.56011  0.79026  0.89962  1.0000
  O   O68       1.0  0.43989  0.29026  0.60038  1.0000
  O   O69       1.0  0.32012  0.23891  0.48018  1.0000
  O   O70       1.0  0.67988  0.73891  0.01982  1.0000
  O   O71       1.0  0.67988  0.76109  0.51982  1.0000
  O   O72       1.0  0.32012  0.26109  0.98018  1.0000
  O   O73       1.0  0.40756  0.12457  0.95929  1.0000
  O   O74       1.0  0.59244  0.62457  0.54071  1.0000
  O   O75       1.0  0.59244  0.87543  0.04071  1.0000
  O   O76       1.0  0.40756  0.37543  0.45929  1.0000
  O   O77       1.0  0.40210  0.04848  0.08589  1.0000
  O   O78       1.0  0.59790  0.54848  0.41411  1.0000
  O   O79       1.0  0.59790  0.95152  0.91411  1.0000
  O   O80       1.0  0.40210  0.45152  0.58589  1.0000
  O   O81       1.0  0.28973  0.15720  0.12097  1.0000
  O   O82       1.0  0.71027  0.65720  0.37903  1.0000
  O   O83       1.0  0.71027  0.84280  0.87903  1.0000
  O   O84       1.0  0.28973  0.34280  0.62097  1.0000
  O   O85       1.0  0.35097  0.37138  0.29573  1.0000
  O   O86       1.0  0.64903  0.87138  0.20427  1.0000
  O   O87       1.0  0.64903  0.62862  0.70427  1.0000
  O   O88       1.0  0.35097  0.12862  0.79573  1.0000
  H   H1        1.0  0.36900  0.33910  0.27430  1.0000
  H   H2        1.0  0.63100  0.83910  0.22570  1.0000
  H   H3        1.0  0.63100  0.66090  0.72570  1.0000
  H   H4        1.0  0.36900  0.16090  0.77430  1.0000
  H   H5        1.0  0.37100  0.36140  0.33900  1.0000
  H   H6        1.0  0.62900  0.86140  0.16100  1.0000
  H   H7        1.0  0.62900  0.63860  0.66100  1.0000
  H   H8        1.0  0.37100  0.13860  0.83900  1.0000
  O   O89       1.0  0.45700  0.48569  0.25107  1.0000
  O   O90       1.0  0.54300  0.98569  0.24893  1.0000
  O   O91       1.0  0.54300  0.51431  0.74893  1.0000
  O   O92       1.0  0.45700  0.01431  0.75107  1.0000
  H   H9        1.0  0.47100  0.51780  0.22590  1.0000
  H   H10       1.0  0.52900  0.01780  0.27410  1.0000
  H   H11       1.0  0.52900  0.48220  0.77410  1.0000
  H   H12       1.0  0.47100  0.98220  0.72590  1.0000
  H   H13       1.0  0.46100  0.44180  0.23120  1.0000
  H   H14       1.0  0.53900  0.94180  0.26880  1.0000
  H   H15       1.0  0.53900  0.55820  0.76880  1.0000
  H   H16       1.0  0.46100  0.05820  0.73120  1.0000
  O   O93       1.0  0.41047  0.51558  0.38475  1.0000
  O   O94       1.0  0.58953  0.01558  0.11525  1.0000
  O   O95       1.0  0.58953  0.48442  0.61525  1.0000
  O   O96       1.0  0.41047  0.98442  0.88475  1.0000
  H   H17       1.0  0.46300  0.51820  0.39070  1.0000
  H   H18       1.0  0.53700  0.01820  0.10930  1.0000
  H   H19       1.0  0.53700  0.48180  0.60930  1.0000
  H   H20       1.0  0.46300  0.98180  0.89070  1.0000
  H   H21       1.0  0.41270  0.47820  0.41170  1.0000
  H   H22       1.0  0.58730  0.97820  0.08830  1.0000
  H   H23       1.0  0.58730  0.52180  0.58830  1.0000
  H   H24       1.0  0.41270  0.02180  0.91170  1.0000
  O   O97       1.0  0.21502  0.48835  0.29081  1.0000
  O   O98       1.0  0.78498  0.98835  0.20919  1.0000
  O   O99       1.0  0.78498  0.51165  0.70919  1.0000
  O   O100      1.0  0.21502  0.01165  0.79081  1.0000
  H   H25       1.0  0.21000  0.46000  0.31960  1.0000
  H   H26       1.0  0.79000  0.96000  0.18040  1.0000
  H   H27       1.0  0.79000  0.54000  0.68040  1.0000
  H   H28       1.0  0.21000  0.04000  0.81960  1.0000
  H   H29       1.0  0.16800  0.48420  0.25070  1.0000
  H   H30       1.0  0.83200  0.98420  0.24930  1.0000
  H   H31       1.0  0.83200  0.51580  0.74930  1.0000
  H   H32       1.0  0.16800  0.01580  0.75070  1.0000
  N   N1        1.0  0.30976  0.60891  0.23993  1.0000
  N   N2        1.0  0.69024  0.10891  0.26007  1.0000
  N   N3        1.0  0.69024  0.39109  0.76007  1.0000
  N   N4        1.0  0.30976  0.89109  0.73993  1.0000
  N   N5        1.0  0.22089  0.00332  0.12687  1.0000
  N   N6        1.0  0.77911  0.50332  0.37313  1.0000
  N   N7        1.0  0.77911  0.99668  0.87313  1.0000
  N   N8        1.0  0.22089  0.49668  0.62687  1.0000
  H   H33       1.0  0.21290  0.05290  0.11150  1.0000
  H   H34       1.0  0.78710  0.55290  0.38850  1.0000
  H   H35       1.0  0.78710  0.94710  0.88850  1.0000
  H   H36       1.0  0.21290  0.44710  0.61150  1.0000
  C   C1        1.0  0.27312  0.15064  0.34672  1.0000
  C   C2        1.0  0.72688  0.65064  0.15328  1.0000
  C   C3        1.0  0.72688  0.84936  0.65328  1.0000
  C   C4        1.0  0.27312  0.34936  0.84672  1.0000
  H   H37       1.0  0.31100  0.18430  0.32590  1.0000
  H   H38       1.0  0.68900  0.68430  0.17410  1.0000
  H   H39       1.0  0.68900  0.81570  0.67410  1.0000
  H   H40       1.0  0.31100  0.31570  0.82590  1.0000
  H   H41       1.0  0.31090  0.10590  0.37470  1.0000
  H   H42       1.0  0.68910  0.60590  0.12530  1.0000
  H   H43       1.0  0.68910  0.89410  0.62530  1.0000
  H   H44       1.0  0.31090  0.39410  0.87470  1.0000
  C   C5        1.0  0.19230  0.12057  0.27944  1.0000
  C   C6        1.0  0.80770  0.62057  0.22056  1.0000
  C   C7        1.0  0.80770  0.87943  0.72056  1.0000
  C   C8        1.0  0.19230  0.37943  0.77944  1.0000
  C   C9        1.0  0.15336  0.04939  0.29097  1.0000
  C   C10       1.0  0.84664  0.54939  0.20903  1.0000
  C   C11       1.0  0.84664  0.95061  0.70903  1.0000
  C   C12       1.0  0.15336  0.45061  0.79097  1.0000
  H   H45       1.0  0.18090  0.02090  0.33840  1.0000
  H   H46       1.0  0.81910  0.52090  0.16160  1.0000
  H   H47       1.0  0.81910  0.97910  0.66160  1.0000
  H   H48       1.0  0.18090  0.47910  0.83840  1.0000
  C   C13       1.0  0.07563  0.02012  0.23449  1.0000
  C   C14       1.0  0.92437  0.52012  0.26551  1.0000
  C   C15       1.0  0.92437  0.97988  0.76551  1.0000
  C   C16       1.0  0.07563  0.47988  0.73449  1.0000
  H   H49       1.0  0.05020  0.97200  0.24330  1.0000
  H   H50       1.0  0.94980  0.47200  0.25670  1.0000
  H   H51       1.0  0.94980  0.02800  0.75670  1.0000
  H   H52       1.0  0.05020  0.52800  0.74330  1.0000
  C   C17       1.0  0.03468  0.06133  0.16463  1.0000
  C   C18       1.0  0.96532  0.56133  0.33537  1.0000
  C   C19       1.0  0.96532  0.93867  0.83537  1.0000
  C   C20       1.0  0.03468  0.43867  0.66463  1.0000
  H   H53       1.0  0.98130  0.04140  0.12570  1.0000
  H   H54       1.0  0.01870  0.54140  0.37430  1.0000
  H   H55       1.0  0.01870  0.95860  0.87430  1.0000
  H   H56       1.0  0.98130  0.45860  0.62570  1.0000
  C   C21       1.0  0.07223  0.13154  0.15224  1.0000
  C   C22       1.0  0.92777  0.63154  0.34776  1.0000
  C   C23       1.0  0.92777  0.86846  0.84776  1.0000
  C   C24       1.0  0.07223  0.36846  0.65224  1.0000
  H   H57       1.0  0.04400  0.15950  0.10450  1.0000
  H   H58       1.0  0.95600  0.65950  0.39550  1.0000
  H   H59       1.0  0.95600  0.84050  0.89550  1.0000
  H   H60       1.0  0.04400  0.34050  0.60450  1.0000
  C   C25       1.0  0.15084  0.16209  0.20858  1.0000
  C   C26       1.0  0.84916  0.66209  0.29142  1.0000
  C   C27       1.0  0.84916  0.83791  0.79142  1.0000
  C   C28       1.0  0.15084  0.33791  0.70858  1.0000
  C   C29       1.0  0.18865  0.23927  0.19152  1.0000
  C   C30       1.0  0.81135  0.73927  0.30848  1.0000
  C   C31       1.0  0.81135  0.76073  0.80848  1.0000
  C   C32       1.0  0.18865  0.26073  0.69152  1.0000
  H   H61       1.0  0.23750  0.25730  0.23990  1.0000
  H   H62       1.0  0.76250  0.75730  0.26010  1.0000
  H   H63       1.0  0.76250  0.74270  0.76010  1.0000
  H   H64       1.0  0.23750  0.24270  0.73990  1.0000
  H   H65       1.0  0.13970  0.27920  0.17740  1.0000
  H   H66       1.0  0.86030  0.77920  0.32260  1.0000
  H   H67       1.0  0.86030  0.72080  0.82260  1.0000
  H   H68       1.0  0.13970  0.22080  0.67740  1.0000
  C   C33       1.0  0.24408  0.63005  0.17198  1.0000
  C   C34       1.0  0.75592  0.13005  0.32802  1.0000
  C   C35       1.0  0.75592  0.36995  0.82802  1.0000
  C   C36       1.0  0.24408  0.86995  0.67198  1.0000
  H   H69       1.0  0.21210  0.59000  0.13660  1.0000
  H   H70       1.0  0.78790  0.09000  0.36340  1.0000
  H   H71       1.0  0.78790  0.41000  0.86340  1.0000
  H   H72       1.0  0.21210  0.91000  0.63660  1.0000
  C   C37       1.0  0.35263  0.66648  0.28967  1.0000
  C   C38       1.0  0.64737  0.16648  0.21033  1.0000
  C   C39       1.0  0.64737  0.33352  0.71033  1.0000
  C   C40       1.0  0.35263  0.83352  0.78967  1.0000
  H   H73       1.0  0.39830  0.65250  0.33820  1.0000
  H   H74       1.0  0.60170  0.15250  0.16180  1.0000
  H   H75       1.0  0.60170  0.34750  0.66180  1.0000
  H   H76       1.0  0.39830  0.84750  0.83820  1.0000
  C   C41       1.0  0.22130  0.70757  0.15153  1.0000
  C   C42       1.0  0.77870  0.20757  0.34847  1.0000
  C   C43       1.0  0.77870  0.29243  0.84847  1.0000
  C   C44       1.0  0.22130  0.79243  0.65153  1.0000
  H   H77       1.0  0.17470  0.71980  0.10300  1.0000
  H   H78       1.0  0.82530  0.21980  0.39700  1.0000
  H   H79       1.0  0.82530  0.28020  0.89700  1.0000
  H   H80       1.0  0.17470  0.78020  0.60300  1.0000
  C   C45       1.0  0.33320  0.74575  0.27345  1.0000
  C   C46       1.0  0.66680  0.24575  0.22655  1.0000
  C   C47       1.0  0.66680  0.25425  0.72655  1.0000
  C   C48       1.0  0.33320  0.75425  0.77345  1.0000
  H   H81       1.0  0.36480  0.78460  0.31050  1.0000
  H   H82       1.0  0.63520  0.28460  0.18950  1.0000
  H   H83       1.0  0.63520  0.21540  0.68950  1.0000
  H   H84       1.0  0.36480  0.71540  0.81050  1.0000
  C   C49       1.0  0.26671  0.76749  0.20207  1.0000
  C   C50       1.0  0.73329  0.26749  0.29793  1.0000
  C   C51       1.0  0.73329  0.23251  0.79793  1.0000
  C   C52       1.0  0.26671  0.73251  0.70207  1.0000
  C   C53       1.0  0.24778  0.85133  0.17884  1.0000
  C   C54       1.0  0.75222  0.35133  0.32116  1.0000
  C   C55       1.0  0.75222  0.14867  0.82116  1.0000
  C   C56       1.0  0.24778  0.64867  0.67884  1.0000
  C   C57       1.0  0.16607  0.87396  0.12082  1.0000
  C   C58       1.0  0.83393  0.37396  0.37918  1.0000
  C   C59       1.0  0.83393  0.12604  0.87918  1.0000
  C   C60       1.0  0.16607  0.62604  0.62082  1.0000
  H   H85       1.0  0.11900  0.83650  0.09910  1.0000
  H   H86       1.0  0.88100  0.33650  0.40090  1.0000
  H   H87       1.0  0.88100  0.16350  0.90090  1.0000
  H   H88       1.0  0.11900  0.66350  0.59910  1.0000
  C   C61       1.0  0.31353  0.90883  0.21252  1.0000
  C   C62       1.0  0.68647  0.40883  0.28748  1.0000
  C   C63       1.0  0.68647  0.09117  0.78748  1.0000
  C   C64       1.0  0.31353  0.59117  0.71252  1.0000
  H   H89       1.0  0.36830  0.89560  0.25390  1.0000
  H   H90       1.0  0.63170  0.39560  0.24610  1.0000
  H   H91       1.0  0.63170  0.10440  0.74610  1.0000
  H   H92       1.0  0.36830  0.60440  0.75390  1.0000
  C   C65       1.0  0.15397  0.95064  0.09524  1.0000
  C   C66       1.0  0.84603  0.45064  0.40476  1.0000
  C   C67       1.0  0.84603  0.04936  0.90476  1.0000
  C   C68       1.0  0.15397  0.54936  0.59524  1.0000
  H   H93       1.0  0.09880  0.96630  0.05550  1.0000
  H   H94       1.0  0.90120  0.46630  0.44450  1.0000
  H   H95       1.0  0.90120  0.03370  0.94450  1.0000
  H   H96       1.0  0.09880  0.53370  0.55550  1.0000
  C   C69       1.0  0.29827  0.98482  0.18520  1.0000
  C   C70       1.0  0.70173  0.48482  0.31480  1.0000
  C   C71       1.0  0.70173  0.01518  0.81480  1.0000
  C   C72       1.0  0.29827  0.51518  0.68520  1.0000
  H   H97       1.0  0.34270  0.02420  0.20780  1.0000
  H   H98       1.0  0.65730  0.52420  0.29220  1.0000
  H   H99       1.0  0.65730  0.97580  0.79220  1.0000
  H   H100      1.0  0.34270  0.47580  0.70780  1.0000
