data_image0
_chemical_formula_structural       W4Cu12S28N8C8
_chemical_formula_sum              "W4 Cu12 S28 N8 C8"
_cell_length_a       10.685
_cell_length_b       19.399
_cell_length_c       10.733
_cell_angle_alpha    90
_cell_angle_beta     100.88
_cell_angle_gamma    90

_space_group_name_H-M_alt    "P 1"
_space_group_IT_number       1

loop_
  _space_group_symop_operation_xyz
  'x, y, z'

loop_
  _atom_site_type_symbol
  _atom_site_label
  _atom_site_symmetry_multiplicity
  _atom_site_fract_x
  _atom_site_fract_y
  _atom_site_fract_z
  _atom_site_occupancy
  W   W1        1.0  0.07801  0.11819  0.19822  1.0000
  W   W2        1.0  0.92199  0.61819  0.30178  1.0000
  W   W3        1.0  0.92199  0.88181  0.80178  1.0000
  W   W4        1.0  0.07801  0.38181  0.69822  1.0000
  Cu  Cu1       1.0  0.24435  0.19882  0.10511  1.0000
  Cu  Cu2       1.0  0.75565  0.69882  0.39489  1.0000
  Cu  Cu3       1.0  0.75565  0.80118  0.89489  1.0000
  Cu  Cu4       1.0  0.24435  0.30118  0.60511  1.0000
  Cu  Cu5       1.0  0.21470  0.16337  0.41920  1.0000
  Cu  Cu6       1.0  0.78530  0.66337  0.08080  1.0000
  Cu  Cu7       1.0  0.78530  0.83663  0.58080  1.0000
  Cu  Cu8       1.0  0.21470  0.33663  0.91920  1.0000
  Cu  Cu9       1.0  0.93407  0.04966  0.33134  1.0000
  Cu  Cu10      1.0  0.06593  0.54966  0.16866  1.0000
  Cu  Cu11      1.0  0.06593  0.95034  0.66866  1.0000
  Cu  Cu12      1.0  0.93407  0.45034  0.83134  1.0000
  S   S1        1.0  0.02776  0.18602  0.03440  1.0000
  S   S2        1.0  0.97224  0.68602  0.46560  1.0000
  S   S3        1.0  0.97224  0.81398  0.96560  1.0000
  S   S4        1.0  0.02776  0.31398  0.53440  1.0000
  S   S5        1.0  0.29168  0.11271  0.25400  1.0000
  S   S6        1.0  0.70832  0.61271  0.24600  1.0000
  S   S7        1.0  0.70832  0.88729  0.74600  1.0000
  S   S8        1.0  0.29168  0.38729  0.75400  1.0000
  S   S9        1.0  0.99536  0.16070  0.36036  1.0000
  S   S10       1.0  0.00464  0.66070  0.13964  1.0000
  S   S11       1.0  0.00464  0.83930  0.63964  1.0000
  S   S12       1.0  0.99536  0.33930  0.86036  1.0000
  S   S13       1.0  0.99833  0.01455  0.15518  1.0000
  S   S14       1.0  0.00167  0.51455  0.34482  1.0000
  S   S15       1.0  0.00167  0.98545  0.84482  1.0000
  S   S16       1.0  0.99833  0.48545  0.65518  1.0000
  S   S17       1.0  0.34295  0.22937  0.94268  1.0000
  S   S18       1.0  0.65705  0.72937  0.55732  1.0000
  S   S19       1.0  0.65705  0.77063  0.05732  1.0000
  S   S20       1.0  0.34295  0.27063  0.44268  1.0000
  S   S21       1.0  0.25259  0.09143  0.82400  1.0000
  S   S22       1.0  0.74741  0.59143  0.67600  1.0000
  S   S23       1.0  0.74741  0.90857  0.17600  1.0000
  S   S24       1.0  0.25259  0.40857  0.32400  1.0000
  S   S25       1.0  0.19029  0.01119  0.57131  1.0000
  S   S26       1.0  0.80971  0.51119  0.92869  1.0000
  S   S27       1.0  0.80971  0.98881  0.42869  1.0000
  S   S28       1.0  0.19029  0.48881  0.07131  1.0000
  N   N1        1.0  0.27870  0.19844  0.69360  1.0000
  N   N2        1.0  0.72130  0.69844  0.80640  1.0000
  N   N3        1.0  0.72130  0.80156  0.30640  1.0000
  N   N4        1.0  0.27870  0.30156  0.19360  1.0000
  N   N5        1.0  0.24630  0.14446  0.60750  1.0000
  N   N6        1.0  0.75370  0.64446  0.89250  1.0000
  N   N7        1.0  0.75370  0.85554  0.39250  1.0000
  N   N8        1.0  0.24630  0.35554  0.10750  1.0000
  C   C1        1.0  0.28900  0.17810  0.81080  1.0000
  C   C2        1.0  0.71100  0.67810  0.68920  1.0000
  C   C3        1.0  0.71100  0.82190  0.18920  1.0000
  C   C4        1.0  0.28900  0.32190  0.31080  1.0000
  C   C5        1.0  0.22880  0.08540  0.65970  1.0000
  C   C6        1.0  0.77120  0.58540  0.84030  1.0000
  C   C7        1.0  0.77120  0.91460  0.34030  1.0000
  C   C8        1.0  0.22880  0.41460  0.15970  1.0000
