data_image0
_chemical_formula_structural       Sn16O96C48
_chemical_formula_sum              "Sn16 O96 C48"
_cell_length_a       16.954
_cell_length_b       20.5
_cell_length_c       11.693
_cell_angle_alpha    90
_cell_angle_beta     96.061
_cell_angle_gamma    90

_space_group_name_H-M_alt    "P 1"
_space_group_IT_number       1

loop_
  _space_group_symop_operation_xyz
  'x, y, z'

loop_
  _atom_site_type_symbol
  _atom_site_label
  _atom_site_symmetry_multiplicity
  _atom_site_fract_x
  _atom_site_fract_y
  _atom_site_fract_z
  _atom_site_occupancy
  Sn  Sn1       1.0  0.41400  0.30036  0.39977  1.0000
  Sn  Sn2       1.0  0.58600  0.80036  0.10023  1.0000
  Sn  Sn3       1.0  0.58600  0.69964  0.60023  1.0000
  Sn  Sn4       1.0  0.41400  0.19964  0.89977  1.0000
  Sn  Sn5       1.0  0.38939  0.69968  0.95214  1.0000
  Sn  Sn6       1.0  0.61061  0.19968  0.54786  1.0000
  Sn  Sn7       1.0  0.61061  0.30032  0.04786  1.0000
  Sn  Sn8       1.0  0.38939  0.80032  0.45214  1.0000
  Sn  Sn9       1.0  0.09033  0.54438  0.86362  1.0000
  Sn  Sn10      1.0  0.90967  0.04438  0.63638  1.0000
  Sn  Sn11      1.0  0.90967  0.45562  0.13638  1.0000
  Sn  Sn12      1.0  0.09033  0.95562  0.36362  1.0000
  Sn  Sn13      1.0  0.10679  0.45009  0.36826  1.0000
  Sn  Sn14      1.0  0.89321  0.95009  0.13174  1.0000
  Sn  Sn15      1.0  0.89321  0.54991  0.63174  1.0000
  Sn  Sn16      1.0  0.10679  0.04991  0.86826  1.0000
  O   O1        1.0  0.28550  0.29230  0.38060  1.0000
  O   O2        1.0  0.71450  0.79230  0.11940  1.0000
  O   O3        1.0  0.71450  0.70770  0.61940  1.0000
  O   O4        1.0  0.28550  0.20770  0.88060  1.0000
  O   O5        1.0  0.38610  0.20800  0.51200  1.0000
  O   O6        1.0  0.61390  0.70800  0.98800  1.0000
  O   O7        1.0  0.61390  0.79200  0.48800  1.0000
  O   O8        1.0  0.38610  0.29200  0.01200  1.0000
  O   O9        1.0  0.39580  0.29140  0.77430  1.0000
  O   O10       1.0  0.60420  0.79140  0.72570  1.0000
  O   O11       1.0  0.60420  0.70860  0.22570  1.0000
  O   O12       1.0  0.39580  0.20860  0.27430  1.0000
  O   O13       1.0  0.39600  0.33030  0.59810  1.0000
  O   O14       1.0  0.60400  0.83030  0.90190  1.0000
  O   O15       1.0  0.60400  0.66970  0.40190  1.0000
  O   O16       1.0  0.39600  0.16970  0.09810  1.0000
  O   O17       1.0  0.35350  0.41130  0.39740  1.0000
  O   O18       1.0  0.64650  0.91130  0.10260  1.0000
  O   O19       1.0  0.64650  0.58870  0.60260  1.0000
  O   O20       1.0  0.35350  0.08870  0.89740  1.0000
  O   O21       1.0  0.38280  0.16980  0.68900  1.0000
  O   O22       1.0  0.61720  0.66980  0.81100  1.0000
  O   O23       1.0  0.61720  0.83020  0.31100  1.0000
  O   O24       1.0  0.38280  0.33020  0.18900  1.0000
  O   O25       1.0  0.26100  0.70690  0.92250  1.0000
  O   O26       1.0  0.73900  0.20690  0.57750  1.0000
  O   O27       1.0  0.73900  0.29310  0.07750  1.0000
  O   O28       1.0  0.26100  0.79310  0.42250  1.0000
  O   O29       1.0  0.37310  0.78940  0.82940  1.0000
  O   O30       1.0  0.62690  0.28940  0.67060  1.0000
  O   O31       1.0  0.62690  0.21060  0.17060  1.0000
  O   O32       1.0  0.37310  0.71060  0.32940  1.0000
  O   O33       1.0  0.35830  0.70590  0.56740  1.0000
  O   O34       1.0  0.64170  0.20590  0.93260  1.0000
  O   O35       1.0  0.64170  0.29410  0.43260  1.0000
  O   O36       1.0  0.35830  0.79410  0.06740  1.0000
  O   O37       1.0  0.33350  0.58910  0.93980  1.0000
  O   O38       1.0  0.66650  0.08910  0.56020  1.0000
  O   O39       1.0  0.66650  0.41090  0.06020  1.0000
  O   O40       1.0  0.33350  0.91090  0.43980  1.0000
  O   O41       1.0  0.36670  0.66650  0.74550  1.0000
  O   O42       1.0  0.63330  0.16650  0.75450  1.0000
  O   O43       1.0  0.63330  0.33350  0.25450  1.0000
  O   O44       1.0  0.36670  0.83350  0.24550  1.0000
  O   O45       1.0  0.35200  0.82770  0.65180  1.0000
  O   O46       1.0  0.64800  0.32770  0.84820  1.0000
  O   O47       1.0  0.64800  0.17230  0.34820  1.0000
  O   O48       1.0  0.35200  0.67230  0.15180  1.0000
  O   O49       1.0  0.21860  0.53930  0.89040  1.0000
  O   O50       1.0  0.78140  0.03930  0.60960  1.0000
  O   O51       1.0  0.78140  0.46070  0.10960  1.0000
  O   O52       1.0  0.21860  0.96070  0.39040  1.0000
  O   O53       1.0  0.11330  0.45500  0.74700  1.0000
  O   O54       1.0  0.88670  0.95500  0.75300  1.0000
  O   O55       1.0  0.88670  0.54500  0.25300  1.0000
  O   O56       1.0  0.11330  0.04500  0.24700  1.0000
  O   O57       1.0  0.11590  0.45190  0.99020  1.0000
  O   O58       1.0  0.88410  0.95190  0.50980  1.0000
  O   O59       1.0  0.88410  0.54810  0.00980  1.0000
  O   O60       1.0  0.11590  0.04810  0.49020  1.0000
  O   O61       1.0  0.14530  0.65620  0.88320  1.0000
  O   O62       1.0  0.85470  0.15620  0.61680  1.0000
  O   O63       1.0  0.85470  0.34380  0.11680  1.0000
  O   O64       1.0  0.14530  0.84380  0.38320  1.0000
  O   O65       1.0  0.12570  0.57890  0.67180  1.0000
  O   O66       1.0  0.87430  0.07890  0.82820  1.0000
  O   O67       1.0  0.87430  0.42110  0.32820  1.0000
  O   O68       1.0  0.12570  0.92110  0.17180  1.0000
  O   O69       1.0  0.12030  0.57560  0.07140  1.0000
  O   O70       1.0  0.87970  0.07560  0.42860  1.0000
  O   O71       1.0  0.87970  0.42440  0.92860  1.0000
  O   O72       1.0  0.12030  0.92440  0.57140  1.0000
  O   O73       1.0  0.23460  0.45790  0.39040  1.0000
  O   O74       1.0  0.76540  0.95790  0.10960  1.0000
  O   O75       1.0  0.76540  0.54210  0.60960  1.0000
  O   O76       1.0  0.23460  0.04210  0.89040  1.0000
  O   O77       1.0  0.12760  0.53780  0.24940  1.0000
  O   O78       1.0  0.87240  0.03780  0.25060  1.0000
  O   O79       1.0  0.87240  0.46220  0.75060  1.0000
  O   O80       1.0  0.12760  0.96220  0.74940  1.0000
  O   O81       1.0  0.12890  0.54240  0.49380  1.0000
  O   O82       1.0  0.87110  0.04240  0.00620  1.0000
  O   O83       1.0  0.87110  0.45760  0.50620  1.0000
  O   O84       1.0  0.12890  0.95760  0.99380  1.0000
  O   O85       1.0  0.12900  0.41860  0.57380  1.0000
  O   O86       1.0  0.87100  0.91860  0.92620  1.0000
  O   O87       1.0  0.87100  0.58140  0.42620  1.0000
  O   O88       1.0  0.12900  0.08140  0.07380  1.0000
  O   O89       1.0  0.16740  0.33890  0.37610  1.0000
  O   O90       1.0  0.83260  0.83890  0.12390  1.0000
  O   O91       1.0  0.83260  0.66110  0.62390  1.0000
  O   O92       1.0  0.16740  0.16110  0.87610  1.0000
  O   O93       1.0  0.13460  0.41590  0.17100  1.0000
  O   O94       1.0  0.86540  0.91590  0.32900  1.0000
  O   O95       1.0  0.86540  0.58410  0.82900  1.0000
  O   O96       1.0  0.13460  0.08410  0.67100  1.0000
  C   C1        1.0  0.36280  0.78250  0.72250  1.0000
  C   C2        1.0  0.63720  0.28250  0.77750  1.0000
  C   C3        1.0  0.63720  0.21750  0.27750  1.0000
  C   C4        1.0  0.36280  0.71750  0.22250  1.0000
  C   C5        1.0  0.12180  0.46400  0.64430  1.0000
  C   C6        1.0  0.87820  0.96400  0.85570  1.0000
  C   C7        1.0  0.87820  0.53600  0.35570  1.0000
  C   C8        1.0  0.12180  0.03600  0.14430  1.0000
  C   C9        1.0  0.12530  0.53400  0.59970  1.0000
  C   C10       1.0  0.87470  0.03400  0.90030  1.0000
  C   C11       1.0  0.87470  0.46600  0.40030  1.0000
  C   C12       1.0  0.12530  0.96600  0.09970  1.0000
  C   C13       1.0  0.26090  0.58950  0.91370  1.0000
  C   C14       1.0  0.73910  0.08950  0.58630  1.0000
  C   C15       1.0  0.73910  0.41050  0.08630  1.0000
  C   C16       1.0  0.26090  0.91050  0.41370  1.0000
  C   C17       1.0  0.12520  0.45970  0.09640  1.0000
  C   C18       1.0  0.87480  0.95970  0.40360  1.0000
  C   C19       1.0  0.87480  0.54030  0.90360  1.0000
  C   C20       1.0  0.12520  0.04030  0.59640  1.0000
  C   C21       1.0  0.39210  0.28510  0.66750  1.0000
  C   C22       1.0  0.60790  0.78510  0.83250  1.0000
  C   C23       1.0  0.60790  0.71490  0.33250  1.0000
  C   C24       1.0  0.39210  0.21490  0.16750  1.0000
  C   C25       1.0  0.21840  0.65610  0.90670  1.0000
  C   C26       1.0  0.78160  0.15610  0.59330  1.0000
  C   C27       1.0  0.78160  0.34390  0.09330  1.0000
  C   C28       1.0  0.21840  0.84390  0.40670  1.0000
  C   C29       1.0  0.38640  0.21480  0.61880  1.0000
  C   C30       1.0  0.61360  0.71480  0.88120  1.0000
  C   C31       1.0  0.61360  0.78520  0.38120  1.0000
  C   C32       1.0  0.38640  0.28520  0.11880  1.0000
  C   C33       1.0  0.36270  0.71180  0.67470  1.0000
  C   C34       1.0  0.63730  0.21180  0.82530  1.0000
  C   C35       1.0  0.63730  0.28820  0.32530  1.0000
  C   C36       1.0  0.36270  0.78820  0.17470  1.0000
  C   C37       1.0  0.27990  0.40910  0.39030  1.0000
  C   C38       1.0  0.72010  0.90910  0.10970  1.0000
  C   C39       1.0  0.72010  0.59090  0.60970  1.0000
  C   C40       1.0  0.27990  0.09090  0.89030  1.0000
  C   C41       1.0  0.24070  0.34170  0.38050  1.0000
  C   C42       1.0  0.75930  0.84170  0.11950  1.0000
  C   C43       1.0  0.75930  0.65830  0.61950  1.0000
  C   C44       1.0  0.24070  0.15830  0.88050  1.0000
  C   C45       1.0  0.12440  0.53020  0.14330  1.0000
  C   C46       1.0  0.87560  0.03020  0.35670  1.0000
  C   C47       1.0  0.87560  0.46980  0.85670  1.0000
  C   C48       1.0  0.12440  0.96980  0.64330  1.0000
