data_image0
_chemical_formula_structural       Zn4O32N8H8C8H8C8H8C16H8C24H16C8H8C12H4C20H4
_chemical_formula_sum              "Zn4 O32 N8 H64 C96"
_cell_length_a       16.1476
_cell_length_b       13.2975
_cell_length_c       13.4409
_cell_angle_alpha    90
_cell_angle_beta     101.927
_cell_angle_gamma    90

_space_group_name_H-M_alt    "P 1"
_space_group_IT_number       1

loop_
  _space_group_symop_operation_xyz
  'x, y, z'

loop_
  _atom_site_type_symbol
  _atom_site_label
  _atom_site_symmetry_multiplicity
  _atom_site_fract_x
  _atom_site_fract_y
  _atom_site_fract_z
  _atom_site_occupancy
  Zn  Zn1       1.0  0.00000  0.65757  0.75000  1.0000
  Zn  Zn2       1.0  0.50000  0.15757  0.75000  1.0000
  Zn  Zn3       1.0  0.00000  0.34243  0.25000  1.0000
  Zn  Zn4       1.0  0.50000  0.84243  0.25000  1.0000
  O   O1        1.0  0.55652  0.25210  0.66900  1.0000
  O   O2        1.0  0.44348  0.25210  0.83100  1.0000
  O   O3        1.0  0.05652  0.75210  0.66900  1.0000
  O   O4        1.0  0.94348  0.75210  0.83100  1.0000
  O   O5        1.0  0.44348  0.74790  0.33100  1.0000
  O   O6        1.0  0.55652  0.74790  0.16900  1.0000
  O   O7        1.0  0.94348  0.24790  0.33100  1.0000
  O   O8        1.0  0.05652  0.24790  0.16900  1.0000
  O   O9        1.0  0.91455  0.57009  0.66511  1.0000
  O   O10       1.0  0.08545  0.57009  0.83489  1.0000
  O   O11       1.0  0.41455  0.07009  0.66511  1.0000
  O   O12       1.0  0.58545  0.07009  0.83489  1.0000
  O   O13       1.0  0.08545  0.42991  0.33489  1.0000
  O   O14       1.0  0.91455  0.42991  0.16511  1.0000
  O   O15       1.0  0.58545  0.92991  0.33489  1.0000
  O   O16       1.0  0.41455  0.92991  0.16511  1.0000
  O   O17       1.0  0.64543  0.29348  0.81393  1.0000
  O   O18       1.0  0.35457  0.29348  0.68607  1.0000
  O   O19       1.0  0.14543  0.79348  0.81393  1.0000
  O   O20       1.0  0.85457  0.79348  0.68607  1.0000
  O   O21       1.0  0.35457  0.70652  0.18607  1.0000
  O   O22       1.0  0.64543  0.70652  0.31393  1.0000
  O   O23       1.0  0.85457  0.20652  0.18607  1.0000
  O   O24       1.0  0.14543  0.20652  0.31393  1.0000
  O   O25       1.0  0.86855  0.54592  0.80909  1.0000
  O   O26       1.0  0.13145  0.54592  0.69091  1.0000
  O   O27       1.0  0.36855  0.04592  0.80909  1.0000
  O   O28       1.0  0.63145  0.04592  0.69091  1.0000
  O   O29       1.0  0.13145  0.45408  0.19091  1.0000
  O   O30       1.0  0.86855  0.45408  0.30909  1.0000
  O   O31       1.0  0.63145  0.95408  0.19091  1.0000
  O   O32       1.0  0.36855  0.95408  0.30909  1.0000
  N   N1        1.0  0.71966  0.36657  0.40057  1.0000
  N   N2        1.0  0.28034  0.36657  0.09943  1.0000
  N   N3        1.0  0.21966  0.86657  0.40057  1.0000
  N   N4        1.0  0.78034  0.86657  0.09943  1.0000
  N   N5        1.0  0.28034  0.63343  0.59943  1.0000
  N   N6        1.0  0.71966  0.63343  0.90057  1.0000
  N   N7        1.0  0.78034  0.13343  0.59943  1.0000
  N   N8        1.0  0.21966  0.13343  0.90057  1.0000
  H   H1        1.0  0.75890  0.39380  0.37240  1.0000
  H   H2        1.0  0.24110  0.39380  0.12760  1.0000
  H   H3        1.0  0.25890  0.89380  0.37240  1.0000
  H   H4        1.0  0.74110  0.89380  0.12760  1.0000
  H   H5        1.0  0.24110  0.60620  0.62760  1.0000
  H   H6        1.0  0.75890  0.60620  0.87240  1.0000
  H   H7        1.0  0.74110  0.10620  0.62760  1.0000
  H   H8        1.0  0.25890  0.10620  0.87240  1.0000
  C   C1        1.0  0.73923  0.41777  0.71172  1.0000
  C   C2        1.0  0.26077  0.41777  0.78828  1.0000
  C   C3        1.0  0.23923  0.91777  0.71172  1.0000
  C   C4        1.0  0.76077  0.91777  0.78828  1.0000
  C   C5        1.0  0.26077  0.58223  0.28828  1.0000
  C   C6        1.0  0.73923  0.58223  0.21172  1.0000
  C   C7        1.0  0.76077  0.08223  0.28828  1.0000
  C   C8        1.0  0.23923  0.08223  0.21172  1.0000
  H   H9        1.0  0.74580  0.42710  0.78300  1.0000
  H   H10       1.0  0.25420  0.42710  0.71700  1.0000
  H   H11       1.0  0.24580  0.92710  0.78300  1.0000
  H   H12       1.0  0.75420  0.92710  0.71700  1.0000
  H   H13       1.0  0.25420  0.57290  0.21700  1.0000
  H   H14       1.0  0.74580  0.57290  0.28300  1.0000
  H   H15       1.0  0.75420  0.07290  0.21700  1.0000
  H   H16       1.0  0.24580  0.07290  0.28300  1.0000
  C   C9        1.0  0.78356  0.45186  0.55445  1.0000
  C   C10       1.0  0.21644  0.45186  0.94555  1.0000
  C   C11       1.0  0.28356  0.95186  0.55445  1.0000
  C   C12       1.0  0.71644  0.95186  0.94555  1.0000
  C   C13       1.0  0.21644  0.54814  0.44555  1.0000
  C   C14       1.0  0.78356  0.54814  0.05445  1.0000
  C   C15       1.0  0.71644  0.04814  0.44555  1.0000
  C   C16       1.0  0.28356  0.04814  0.05445  1.0000
  H   H17       1.0  0.81980  0.48640  0.51860  1.0000
  H   H18       1.0  0.18020  0.48640  0.98140  1.0000
  H   H19       1.0  0.31980  0.98640  0.51860  1.0000
  H   H20       1.0  0.68020  0.98640  0.98140  1.0000
  H   H21       1.0  0.18020  0.51360  0.48140  1.0000
  H   H22       1.0  0.81980  0.51360  0.01860  1.0000
  H   H23       1.0  0.68020  0.01360  0.48140  1.0000
  H   H24       1.0  0.31980  0.01360  0.01860  1.0000
  C   C17       1.0  0.62277  0.29630  0.71953  1.0000
  C   C18       1.0  0.37723  0.29630  0.78047  1.0000
  C   C19       1.0  0.12277  0.79630  0.71953  1.0000
  C   C20       1.0  0.87723  0.79630  0.78047  1.0000
  C   C21       1.0  0.37723  0.70370  0.28047  1.0000
  C   C22       1.0  0.62277  0.70370  0.21953  1.0000
  C   C23       1.0  0.87723  0.20370  0.28047  1.0000
  C   C24       1.0  0.12277  0.20370  0.21953  1.0000
  C   C25       1.0  0.66635  0.33960  0.55503  1.0000
  C   C26       1.0  0.33365  0.33960  0.94497  1.0000
  C   C27       1.0  0.16635  0.83960  0.55503  1.0000
  C   C28       1.0  0.83365  0.83960  0.94497  1.0000
  C   C29       1.0  0.33365  0.66040  0.44497  1.0000
  C   C30       1.0  0.66635  0.66040  0.05503  1.0000
  C   C31       1.0  0.83365  0.16040  0.44497  1.0000
  C   C32       1.0  0.16635  0.16040  0.05503  1.0000
  H   H25       1.0  0.62200  0.29800  0.52000  1.0000
  H   H26       1.0  0.37800  0.29800  0.98000  1.0000
  H   H27       1.0  0.12200  0.79800  0.52000  1.0000
  H   H28       1.0  0.87800  0.79800  0.98000  1.0000
  H   H29       1.0  0.37800  0.70200  0.48000  1.0000
  H   H30       1.0  0.62200  0.70200  0.02000  1.0000
  H   H31       1.0  0.87800  0.20200  0.48000  1.0000
  H   H32       1.0  0.12200  0.20200  0.02000  1.0000
  C   C33       1.0  0.67615  0.35442  0.65957  1.0000
  C   C34       1.0  0.32385  0.35442  0.84043  1.0000
  C   C35       1.0  0.17615  0.85442  0.65957  1.0000
  C   C36       1.0  0.82385  0.85442  0.84043  1.0000
  C   C37       1.0  0.32385  0.64558  0.34043  1.0000
  C   C38       1.0  0.67615  0.64558  0.15957  1.0000
  C   C39       1.0  0.82385  0.14558  0.34043  1.0000
  C   C40       1.0  0.17615  0.14558  0.15957  1.0000
  C   C41       1.0  0.79264  0.46740  0.65860  1.0000
  C   C42       1.0  0.20736  0.46740  0.84140  1.0000
  C   C43       1.0  0.29264  0.96740  0.65860  1.0000
  C   C44       1.0  0.70736  0.96740  0.84140  1.0000
  C   C45       1.0  0.20736  0.53260  0.34140  1.0000
  C   C46       1.0  0.79264  0.53260  0.15860  1.0000
  C   C47       1.0  0.70736  0.03260  0.34140  1.0000
  C   C48       1.0  0.29264  0.03260  0.15860  1.0000
  C   C49       1.0  0.65621  0.30367  0.33799  1.0000
  C   C50       1.0  0.34379  0.30367  0.16201  1.0000
  C   C51       1.0  0.15621  0.80367  0.33799  1.0000
  C   C52       1.0  0.84379  0.80367  0.16201  1.0000
  C   C53       1.0  0.34379  0.69633  0.66201  1.0000
  C   C54       1.0  0.65621  0.69633  0.83799  1.0000
  C   C55       1.0  0.84379  0.19633  0.66201  1.0000
  C   C56       1.0  0.15621  0.19633  0.83799  1.0000
  H   H33       1.0  0.64420  0.24580  0.37910  1.0000
  H   H34       1.0  0.35580  0.24580  0.12090  1.0000
  H   H35       1.0  0.14420  0.74580  0.37910  1.0000
  H   H36       1.0  0.85580  0.74580  0.12090  1.0000
  H   H37       1.0  0.35580  0.75420  0.62090  1.0000
  H   H38       1.0  0.64420  0.75420  0.87910  1.0000
  H   H39       1.0  0.85580  0.25420  0.62090  1.0000
  H   H40       1.0  0.14420  0.25420  0.87910  1.0000
  H   H41       1.0  0.67950  0.27690  0.28080  1.0000
  H   H42       1.0  0.32050  0.27690  0.21920  1.0000
  H   H43       1.0  0.17950  0.77690  0.28080  1.0000
  H   H44       1.0  0.82050  0.77690  0.21920  1.0000
  H   H45       1.0  0.32050  0.72310  0.71920  1.0000
  H   H46       1.0  0.67950  0.72310  0.78080  1.0000
  H   H47       1.0  0.82050  0.22310  0.71920  1.0000
  H   H48       1.0  0.17950  0.22310  0.78080  1.0000
  C   C57       1.0  0.57218  0.46272  0.29542  1.0000
  C   C58       1.0  0.42782  0.46272  0.20458  1.0000
  C   C59       1.0  0.07218  0.96272  0.29542  1.0000
  C   C60       1.0  0.92782  0.96272  0.20458  1.0000
  C   C61       1.0  0.42782  0.53728  0.70458  1.0000
  C   C62       1.0  0.57218  0.53728  0.79542  1.0000
  C   C63       1.0  0.92782  0.03728  0.70458  1.0000
  C   C64       1.0  0.07218  0.03728  0.79542  1.0000
  H   H49       1.0  0.62120  0.49910  0.32700  1.0000
  H   H50       1.0  0.37880  0.49910  0.17300  1.0000
  H   H51       1.0  0.12120  0.99910  0.32700  1.0000
  H   H52       1.0  0.87880  0.99910  0.17300  1.0000
  H   H53       1.0  0.37880  0.50090  0.67300  1.0000
  H   H54       1.0  0.62120  0.50090  0.82700  1.0000
  H   H55       1.0  0.87880  0.00090  0.67300  1.0000
  H   H56       1.0  0.12120  0.00090  0.82700  1.0000
  C   C65       1.0  0.86306  0.53288  0.71643  1.0000
  C   C66       1.0  0.13694  0.53288  0.78357  1.0000
  C   C67       1.0  0.36306  0.03288  0.71643  1.0000
  C   C68       1.0  0.63694  0.03288  0.78357  1.0000
  C   C69       1.0  0.13694  0.46712  0.28357  1.0000
  C   C70       1.0  0.86306  0.46712  0.21643  1.0000
  C   C71       1.0  0.63694  0.96712  0.28357  1.0000
  C   C72       1.0  0.36306  0.96712  0.21643  1.0000
  C   C73       1.0  0.50000  0.30610  0.25000  1.0000
  C   C74       1.0  0.00000  0.80610  0.25000  1.0000
  C   C75       1.0  0.50000  0.69390  0.75000  1.0000
  C   C76       1.0  0.00000  0.19390  0.75000  1.0000
  H   H57       1.0  0.50000  0.23460  0.25000  1.0000
  H   H58       1.0  0.00000  0.73460  0.25000  1.0000
  H   H59       1.0  0.50000  0.76540  0.75000  1.0000
  H   H60       1.0  0.00000  0.26540  0.75000  1.0000
  C   C77       1.0  0.72188  0.38607  0.50150  1.0000
  C   C78       1.0  0.27812  0.38607  0.99850  1.0000
  C   C79       1.0  0.22188  0.88607  0.50150  1.0000
  C   C80       1.0  0.77812  0.88607  0.99850  1.0000
  C   C81       1.0  0.27812  0.61393  0.49850  1.0000
  C   C82       1.0  0.72188  0.61393  0.00150  1.0000
  C   C83       1.0  0.77812  0.11393  0.49850  1.0000
  C   C84       1.0  0.22188  0.11393  0.00150  1.0000
  C   C85       1.0  0.57372  0.35790  0.29531  1.0000
  C   C86       1.0  0.42628  0.35790  0.20469  1.0000
  C   C87       1.0  0.07372  0.85790  0.29531  1.0000
  C   C88       1.0  0.92628  0.85790  0.20469  1.0000
  C   C89       1.0  0.42628  0.64210  0.70469  1.0000
  C   C90       1.0  0.57372  0.64210  0.79531  1.0000
  C   C91       1.0  0.92628  0.14210  0.70469  1.0000
  C   C92       1.0  0.07372  0.14210  0.79531  1.0000
  C   C93       1.0  0.50000  0.51400  0.25000  1.0000
  C   C94       1.0  0.00000  0.01400  0.25000  1.0000
  C   C95       1.0  0.50000  0.48600  0.75000  1.0000
  C   C96       1.0  0.00000  0.98600  0.75000  1.0000
  H   H61       1.0  0.50000  0.58540  0.25000  1.0000
  H   H62       1.0  0.00000  0.08540  0.25000  1.0000
  H   H63       1.0  0.50000  0.41460  0.75000  1.0000
  H   H64       1.0  0.00000  0.91460  0.75000  1.0000
