data_image0
_chemical_formula_structural       Co4P4H4O12H4O16C8
_chemical_formula_sum              "Co4 P4 H8 O28 C8"
_cell_length_a       9.5434
_cell_length_b       7.3028
_cell_length_c       14.2274
_cell_angle_alpha    90
_cell_angle_beta     104.395
_cell_angle_gamma    90

_space_group_name_H-M_alt    "P 1"
_space_group_IT_number       1

loop_
  _space_group_symop_operation_xyz
  'x, y, z'

loop_
  _atom_site_type_symbol
  _atom_site_label
  _atom_site_symmetry_multiplicity
  _atom_site_fract_x
  _atom_site_fract_y
  _atom_site_fract_z
  _atom_site_occupancy
  Co  Co1       1.0  0.78671  0.45349  0.59432  1.0000
  Co  Co2       1.0  0.71329  0.95349  0.90568  1.0000
  Co  Co3       1.0  0.21329  0.54651  0.40568  1.0000
  Co  Co4       1.0  0.28671  0.04651  0.09432  1.0000
  P   P1        1.0  0.85365  0.07565  0.72360  1.0000
  P   P2        1.0  0.64635  0.57565  0.77640  1.0000
  P   P3        1.0  0.14635  0.92435  0.27640  1.0000
  P   P4        1.0  0.35365  0.42435  0.22360  1.0000
  H   H1        1.0  0.97680  0.99370  0.77200  1.0000
  H   H2        1.0  0.52320  0.49370  0.72800  1.0000
  H   H3        1.0  0.02320  0.00630  0.22800  1.0000
  H   H4        1.0  0.47680  0.50630  0.27200  1.0000
  O   O1        1.0  0.89061  0.24230  0.67492  1.0000
  O   O2        1.0  0.60939  0.74230  0.82508  1.0000
  O   O3        1.0  0.10939  0.75770  0.32508  1.0000
  O   O4        1.0  0.39061  0.25770  0.17492  1.0000
  O   O5        1.0  0.76118  0.10492  0.79354  1.0000
  O   O6        1.0  0.73882  0.60492  0.70646  1.0000
  O   O7        1.0  0.23882  0.89508  0.20646  1.0000
  O   O8        1.0  0.26118  0.39508  0.29354  1.0000
  O   O9        1.0  0.78460  0.93410  0.64420  1.0000
  O   O10       1.0  0.71540  0.43410  0.85580  1.0000
  O   O11       1.0  0.21540  0.06590  0.35580  1.0000
  O   O12       1.0  0.28460  0.56590  0.14420  1.0000
  H   H5        1.0  0.78660  0.83940  0.66760  1.0000
  H   H6        1.0  0.71340  0.33940  0.83240  1.0000
  H   H7        1.0  0.21340  0.16060  0.33240  1.0000
  H   H8        1.0  0.28660  0.66060  0.16760  1.0000
  O   O13       1.0  0.35322  0.35806  0.50006  1.0000
  O   O14       1.0  0.14678  0.85806  0.99994  1.0000
  O   O15       1.0  0.64678  0.64194  0.49994  1.0000
  O   O16       1.0  0.85322  0.14194  0.00006  1.0000
  O   O17       1.0  0.58882  0.31025  0.56125  1.0000
  O   O18       1.0  0.91118  0.81025  0.93875  1.0000
  O   O19       1.0  0.41118  0.68975  0.43875  1.0000
  O   O20       1.0  0.08882  0.18975  0.06125  1.0000
  O   O21       1.0  0.97374  0.60740  0.60367  1.0000
  O   O22       1.0  0.52626  0.10740  0.89633  1.0000
  O   O23       1.0  0.02626  0.39260  0.39633  1.0000
  O   O24       1.0  0.47374  0.89260  0.10367  1.0000
  O   O25       1.0  0.14914  0.64668  0.52742  1.0000
  O   O26       1.0  0.35086  0.14668  0.97258  1.0000
  O   O27       1.0  0.85086  0.35332  0.47258  1.0000
  O   O28       1.0  0.64914  0.85332  0.02742  1.0000
  C   C1        1.0  0.48360  0.40390  0.51806  1.0000
  C   C2        1.0  0.01640  0.90390  0.98194  1.0000
  C   C3        1.0  0.51640  0.59610  0.48194  1.0000
  C   C4        1.0  0.98360  0.09610  0.01806  1.0000
  C   C5        1.0  0.03540  0.57300  0.53820  1.0000
  C   C6        1.0  0.46460  0.07300  0.96180  1.0000
  C   C7        1.0  0.96460  0.42700  0.46180  1.0000
  C   C8        1.0  0.53540  0.92700  0.03820  1.0000
