data_image0
_chemical_formula_structural       Fe4S12O12C12
_chemical_formula_sum              "Fe4 S12 O12 C12"
_cell_length_a       10.0585
_cell_length_b       10.0585
_cell_length_c       15.648
_cell_angle_alpha    90
_cell_angle_beta     90
_cell_angle_gamma    120

_space_group_name_H-M_alt    "P 1"
_space_group_IT_number       1

loop_
  _space_group_symop_operation_xyz
  'x, y, z'

loop_
  _atom_site_type_symbol
  _atom_site_label
  _atom_site_symmetry_multiplicity
  _atom_site_fract_x
  _atom_site_fract_y
  _atom_site_fract_z
  _atom_site_occupancy
  Fe  Fe1       1.0  0.33333  0.66667  0.99485  1.0000
  Fe  Fe2       1.0  0.66666  0.33333  0.49485  1.0000
  Fe  Fe3       1.0  0.00000  0.00000  0.00010  1.0000
  Fe  Fe4       1.0  0.00000  0.00000  0.50010  1.0000
  S   S1        1.0  0.17890  0.18760  0.08580  1.0000
  S   S2        1.0  0.99130  0.17890  0.58580  1.0000
  S   S3        1.0  0.81240  0.99130  0.08580  1.0000
  S   S4        1.0  0.82110  0.81240  0.58580  1.0000
  S   S5        1.0  0.00870  0.82110  0.08580  1.0000
  S   S6        1.0  0.18760  0.00870  0.58580  1.0000
  S   S7        1.0  0.00790  0.18400  0.91170  1.0000
  S   S8        1.0  0.82390  0.00790  0.41170  1.0000
  S   S9        1.0  0.81600  0.82390  0.91170  1.0000
  S   S10       1.0  0.99210  0.81600  0.41170  1.0000
  S   S11       1.0  0.17610  0.99210  0.91170  1.0000
  S   S12       1.0  0.18400  0.17610  0.41170  1.0000
  O   O1        1.0  0.31550  0.48050  0.06790  1.0000
  O   O2        1.0  0.83500  0.31550  0.56790  1.0000
  O   O3        1.0  0.51950  0.83500  0.06790  1.0000
  O   O4        1.0  0.68450  0.51950  0.56790  1.0000
  O   O5        1.0  0.16500  0.68450  0.06790  1.0000
  O   O6        1.0  0.48050  0.16500  0.56790  1.0000
  O   O7        1.0  0.16400  0.47370  0.92260  1.0000
  O   O8        1.0  0.69030  0.16400  0.42260  1.0000
  O   O9        1.0  0.52630  0.69030  0.92260  1.0000
  O   O10       1.0  0.83600  0.52630  0.42260  1.0000
  O   O11       1.0  0.30970  0.83600  0.92260  1.0000
  O   O12       1.0  0.47370  0.30970  0.42260  1.0000
  C   C1        1.0  0.21950  0.35440  0.03990  1.0000
  C   C2        1.0  0.86510  0.21950  0.53990  1.0000
  C   C3        1.0  0.64560  0.86510  0.03990  1.0000
  C   C4        1.0  0.78050  0.64560  0.53990  1.0000
  C   C5        1.0  0.13490  0.78050  0.03990  1.0000
  C   C6        1.0  0.35440  0.13490  0.53990  1.0000
  C   C7        1.0  0.13610  0.35090  0.95590  1.0000
  C   C8        1.0  0.78520  0.13610  0.45590  1.0000
  C   C9        1.0  0.64910  0.78520  0.95590  1.0000
  C   C10       1.0  0.86390  0.64910  0.45590  1.0000
  C   C11       1.0  0.21480  0.86390  0.95590  1.0000
  C   C12       1.0  0.35090  0.21480  0.45590  1.0000
