data_image0
_chemical_formula_structural       Fe4S12O12C12
_chemical_formula_sum              "Fe4 S12 O12 C12"
_cell_length_a       10.0764
_cell_length_b       10.0764
_cell_length_c       15.779
_cell_angle_alpha    90
_cell_angle_beta     90
_cell_angle_gamma    120

_space_group_name_H-M_alt    "P 1"
_space_group_IT_number       1

loop_
  _space_group_symop_operation_xyz
  'x, y, z'

loop_
  _atom_site_type_symbol
  _atom_site_label
  _atom_site_symmetry_multiplicity
  _atom_site_fract_x
  _atom_site_fract_y
  _atom_site_fract_z
  _atom_site_occupancy
  Fe  Fe1       1.0  0.33333  0.66667  0.99530  1.0000
  Fe  Fe2       1.0  0.66667  0.33333  0.49530  1.0000
  Fe  Fe3       1.0  0.00000  0.00000  0.00060  1.0000
  Fe  Fe4       1.0  0.00000  0.00000  0.50060  1.0000
  S   S1        1.0  0.17890  0.18770  0.08610  1.0000
  S   S2        1.0  0.81230  0.99120  0.08610  1.0000
  S   S3        1.0  0.00880  0.82110  0.08610  1.0000
  S   S4        1.0  0.82110  0.81230  0.58610  1.0000
  S   S5        1.0  0.18770  0.00880  0.58610  1.0000
  S   S6        1.0  0.99120  0.17890  0.58610  1.0000
  S   S7        1.0  0.00770  0.18390  0.91240  1.0000
  S   S8        1.0  0.81610  0.82380  0.91240  1.0000
  S   S9        1.0  0.17620  0.99230  0.91240  1.0000
  S   S10       1.0  0.99230  0.81610  0.41240  1.0000
  S   S11       1.0  0.18390  0.17620  0.41240  1.0000
  S   S12       1.0  0.82380  0.00770  0.41240  1.0000
  O   O1        1.0  0.31420  0.48020  0.06790  1.0000
  O   O2        1.0  0.51980  0.83400  0.06790  1.0000
  O   O3        1.0  0.16600  0.68580  0.06790  1.0000
  O   O4        1.0  0.68580  0.51980  0.56790  1.0000
  O   O5        1.0  0.48020  0.16600  0.56790  1.0000
  O   O6        1.0  0.83400  0.31420  0.56790  1.0000
  O   O7        1.0  0.16380  0.47350  0.92390  1.0000
  O   O8        1.0  0.52650  0.69030  0.92390  1.0000
  O   O9        1.0  0.30970  0.83620  0.92390  1.0000
  O   O10       1.0  0.83620  0.52650  0.42390  1.0000
  O   O11       1.0  0.47350  0.30970  0.42390  1.0000
  O   O12       1.0  0.69030  0.16380  0.42390  1.0000
  C   C1        1.0  0.21830  0.35480  0.03910  1.0000
  C   C2        1.0  0.64520  0.86350  0.03910  1.0000
  C   C3        1.0  0.13650  0.78170  0.03910  1.0000
  C   C4        1.0  0.78170  0.64520  0.53910  1.0000
  C   C5        1.0  0.35480  0.13650  0.53910  1.0000
  C   C6        1.0  0.86350  0.21830  0.53910  1.0000
  C   C7        1.0  0.13670  0.35240  0.95670  1.0000
  C   C8        1.0  0.64760  0.78430  0.95670  1.0000
  C   C9        1.0  0.21570  0.86330  0.95670  1.0000
  C   C10       1.0  0.86330  0.64760  0.45670  1.0000
  C   C11       1.0  0.35240  0.21570  0.45670  1.0000
  C   C12       1.0  0.78430  0.13670  0.45670  1.0000
