data_image0
_chemical_formula_structural       Fe4S12O12C12
_chemical_formula_sum              "Fe4 S12 O12 C12"
_cell_length_a       10.0618
_cell_length_b       10.0618
_cell_length_c       16.0424
_cell_angle_alpha    90
_cell_angle_beta     90
_cell_angle_gamma    120

_space_group_name_H-M_alt    "P 1"
_space_group_IT_number       1

loop_
  _space_group_symop_operation_xyz
  'x, y, z'

loop_
  _atom_site_type_symbol
  _atom_site_label
  _atom_site_symmetry_multiplicity
  _atom_site_fract_x
  _atom_site_fract_y
  _atom_site_fract_z
  _atom_site_occupancy
  Fe  Fe1       1.0  0.00000  0.00000  0.00140  1.0000
  Fe  Fe2       1.0  0.00000  0.00000  0.50140  1.0000
  Fe  Fe3       1.0  0.33330  0.66670  0.00350  1.0000
  Fe  Fe4       1.0  0.66670  0.33330  0.50350  1.0000
  S   S1        1.0  0.81330  0.82360  0.91530  1.0000
  S   S2        1.0  0.17640  0.98970  0.91530  1.0000
  S   S3        1.0  0.01030  0.18670  0.91530  1.0000
  S   S4        1.0  0.18670  0.17640  0.41530  1.0000
  S   S5        1.0  0.82360  0.01030  0.41530  1.0000
  S   S6        1.0  0.98970  0.81330  0.41530  1.0000
  S   S7        1.0  0.81460  0.99300  0.08160  1.0000
  S   S8        1.0  0.00700  0.82160  0.08160  1.0000
  S   S9        1.0  0.17840  0.18540  0.08160  1.0000
  S   S10       1.0  0.18540  0.00700  0.58160  1.0000
  S   S11       1.0  0.99300  0.17840  0.58160  1.0000
  S   S12       1.0  0.82160  0.81460  0.58160  1.0000
  O   O1        1.0  0.52320  0.83280  0.07130  1.0000
  O   O2        1.0  0.16720  0.69040  0.07130  1.0000
  O   O3        1.0  0.30960  0.47680  0.07130  1.0000
  O   O4        1.0  0.47680  0.16720  0.57130  1.0000
  O   O5        1.0  0.83280  0.30960  0.57130  1.0000
  O   O6        1.0  0.69040  0.52320  0.57130  1.0000
  O   O7        1.0  0.51980  0.68860  0.93120  1.0000
  O   O8        1.0  0.31140  0.83120  0.93120  1.0000
  O   O9        1.0  0.16880  0.48020  0.93120  1.0000
  O   O10       1.0  0.48020  0.31140  0.43120  1.0000
  O   O11       1.0  0.68860  0.16880  0.43120  1.0000
  O   O12       1.0  0.83120  0.51980  0.43120  1.0000
  C   C1        1.0  0.65100  0.79800  0.96510  1.0000
  C   C2        1.0  0.20200  0.85300  0.96510  1.0000
  C   C3        1.0  0.14700  0.34900  0.96510  1.0000
  C   C4        1.0  0.34900  0.20200  0.46510  1.0000
  C   C5        1.0  0.79800  0.14700  0.46510  1.0000
  C   C6        1.0  0.85300  0.65100  0.46510  1.0000
  C   C7        1.0  0.64900  0.87300  0.04540  1.0000
  C   C8        1.0  0.12700  0.77600  0.04540  1.0000
  C   C9        1.0  0.22400  0.35100  0.04540  1.0000
  C   C10       1.0  0.35100  0.12700  0.54540  1.0000
  C   C11       1.0  0.87300  0.22400  0.54540  1.0000
  C   C12       1.0  0.77600  0.64900  0.54540  1.0000
