data_image0
_chemical_formula_structural       Zn4Cl8O16N4H8C4H8C8H8C4
_chemical_formula_sum              "Zn4 Cl8 O16 N4 H24 C16"
_cell_length_a       7.3123
_cell_length_b       16.1727
_cell_length_c       8.4717
_cell_angle_alpha    90
_cell_angle_beta     107.561
_cell_angle_gamma    90

_space_group_name_H-M_alt    "P 1"
_space_group_IT_number       1

loop_
  _space_group_symop_operation_xyz
  'x, y, z'

loop_
  _atom_site_type_symbol
  _atom_site_label
  _atom_site_symmetry_multiplicity
  _atom_site_fract_x
  _atom_site_fract_y
  _atom_site_fract_z
  _atom_site_occupancy
  Zn  Zn1       1.0  0.40931  0.13229  0.73330  1.0000
  Zn  Zn2       1.0  0.09069  0.63229  0.76670  1.0000
  Zn  Zn3       1.0  0.59069  0.86771  0.26670  1.0000
  Zn  Zn4       1.0  0.90931  0.36771  0.23330  1.0000
  Cl  Cl1       1.0  0.19502  0.22430  0.77939  1.0000
  Cl  Cl2       1.0  0.30498  0.72430  0.72061  1.0000
  Cl  Cl3       1.0  0.80498  0.77570  0.22061  1.0000
  Cl  Cl4       1.0  0.69502  0.27570  0.27939  1.0000
  Cl  Cl5       1.0  0.31003  0.01034  0.80695  1.0000
  Cl  Cl6       1.0  0.18997  0.51034  0.69305  1.0000
  Cl  Cl7       1.0  0.68997  0.98966  0.19305  1.0000
  Cl  Cl8       1.0  0.81003  0.48966  0.30695  1.0000
  O   O1        1.0  0.82436  0.06323  0.84192  1.0000
  O   O2        1.0  0.67564  0.56323  0.65808  1.0000
  O   O3        1.0  0.17564  0.93677  0.15808  1.0000
  O   O4        1.0  0.32436  0.43677  0.34192  1.0000
  O   O5        1.0  0.15076  0.08287  0.40368  1.0000
  O   O6        1.0  0.34924  0.58287  0.09632  1.0000
  O   O7        1.0  0.84924  0.91713  0.59632  1.0000
  O   O8        1.0  0.65076  0.41713  0.90368  1.0000
  O   O9        1.0  0.44034  0.14011  0.50854  1.0000
  O   O10       1.0  0.05966  0.64011  0.99146  1.0000
  O   O11       1.0  0.55966  0.85989  0.49146  1.0000
  O   O12       1.0  0.94034  0.35989  0.00854  1.0000
  O   O13       1.0  0.65647  0.17345  0.87697  1.0000
  O   O14       1.0  0.84353  0.67345  0.62303  1.0000
  O   O15       1.0  0.34353  0.82655  0.12303  1.0000
  O   O16       1.0  0.15647  0.32655  0.37697  1.0000
  N   N1        1.0  0.13810  0.10441  0.08631  1.0000
  N   N2        1.0  0.36190  0.60441  0.41369  1.0000
  N   N3        1.0  0.86190  0.89559  0.91369  1.0000
  N   N4        1.0  0.63810  0.39559  0.58631  1.0000
  H   H1        1.0  0.16680  0.10130  0.98790  1.0000
  H   H2        1.0  0.33320  0.60130  0.51210  1.0000
  H   H3        1.0  0.83320  0.89870  0.01210  1.0000
  H   H4        1.0  0.66680  0.39870  0.48790  1.0000
  H   H5        1.0  0.10930  0.05180  0.11280  1.0000
  H   H6        1.0  0.39070  0.55180  0.38720  1.0000
  H   H7        1.0  0.89070  0.94820  0.88720  1.0000
  H   H8        1.0  0.60930  0.44820  0.61280  1.0000
  C   C1        1.0  0.96550  0.15730  0.06160  1.0000
  C   C2        1.0  0.53450  0.65730  0.43840  1.0000
  C   C3        1.0  0.03450  0.84270  0.93840  1.0000
  C   C4        1.0  0.46550  0.34270  0.56160  1.0000
  H   H9        1.0  0.99770  0.21520  0.04280  1.0000
  H   H10       1.0  0.50230  0.71520  0.45720  1.0000
  H   H11       1.0  0.00230  0.78480  0.95720  1.0000
  H   H12       1.0  0.49770  0.28480  0.54280  1.0000
  H   H13       1.0  0.92390  0.15590  0.16250  1.0000
  H   H14       1.0  0.57610  0.65590  0.33750  1.0000
  H   H15       1.0  0.07610  0.84410  0.83750  1.0000
  H   H16       1.0  0.42390  0.34410  0.66250  1.0000
  C   C5        1.0  0.29480  0.11691  0.38900  1.0000
  C   C6        1.0  0.20520  0.61691  0.11100  1.0000
  C   C7        1.0  0.70520  0.88309  0.61100  1.0000
  C   C8        1.0  0.79480  0.38309  0.88900  1.0000
  C   C9        1.0  0.31120  0.13385  0.21760  1.0000
  C   C10       1.0  0.18880  0.63385  0.28240  1.0000
  C   C11       1.0  0.68880  0.86615  0.78240  1.0000
  C   C12       1.0  0.81120  0.36615  0.71760  1.0000
  H   H17       1.0  0.32710  0.19400  0.20430  1.0000
  H   H18       1.0  0.17290  0.69400  0.29570  1.0000
  H   H19       1.0  0.67290  0.80600  0.79570  1.0000
  H   H20       1.0  0.82710  0.30600  0.70430  1.0000
  H   H21       1.0  0.42630  0.10560  0.20540  1.0000
  H   H22       1.0  0.07370  0.60560  0.29460  1.0000
  H   H23       1.0  0.57370  0.89440  0.79460  1.0000
  H   H24       1.0  0.92630  0.39440  0.70540  1.0000
  C   C13       1.0  0.80320  0.12748  0.91450  1.0000
  C   C14       1.0  0.69680  0.62748  0.58550  1.0000
  C   C15       1.0  0.19680  0.87252  0.08550  1.0000
  C   C16       1.0  0.30320  0.37252  0.41450  1.0000
