data_image0
_chemical_formula_structural       Mn4P4O16H4O12H8C4
_chemical_formula_sum              "Mn4 P4 O28 H12 C4"
_cell_length_a       5.56671
_cell_length_b       15.6297
_cell_length_c       9.54079
_cell_angle_alpha    90
_cell_angle_beta     91.8039
_cell_angle_gamma    90

_space_group_name_H-M_alt    "P 1"
_space_group_IT_number       1

loop_
  _space_group_symop_operation_xyz
  'x, y, z'

loop_
  _atom_site_type_symbol
  _atom_site_label
  _atom_site_symmetry_multiplicity
  _atom_site_fract_x
  _atom_site_fract_y
  _atom_site_fract_z
  _atom_site_occupancy
  Mn  Mn1       1.0  0.69614  0.66845  0.56126  1.0000
  Mn  Mn2       1.0  0.80386  0.16845  0.93874  1.0000
  Mn  Mn3       1.0  0.30386  0.33155  0.43874  1.0000
  Mn  Mn4       1.0  0.19614  0.83155  0.06126  1.0000
  P   P1        1.0  0.18503  0.69831  0.35375  1.0000
  P   P2        1.0  0.31497  0.19831  0.14625  1.0000
  P   P3        1.0  0.81497  0.30169  0.64625  1.0000
  P   P4        1.0  0.68503  0.80169  0.85375  1.0000
  O   O1        1.0  0.43620  0.72178  0.40620  1.0000
  O   O2        1.0  0.06380  0.22178  0.09380  1.0000
  O   O3        1.0  0.56380  0.27822  0.59380  1.0000
  O   O4        1.0  0.93620  0.77822  0.90620  1.0000
  O   O5        1.0  0.98980  0.72222  0.45280  1.0000
  O   O6        1.0  0.51020  0.22222  0.04720  1.0000
  O   O7        1.0  0.01020  0.27778  0.54720  1.0000
  O   O8        1.0  0.48980  0.77778  0.95280  1.0000
  O   O9        1.0  0.13560  0.73450  0.20780  1.0000
  O   O10       1.0  0.36440  0.23450  0.29220  1.0000
  O   O11       1.0  0.86440  0.26550  0.79220  1.0000
  O   O12       1.0  0.63560  0.76550  0.70780  1.0000
  O   O13       1.0  0.18280  0.59687  0.33590  1.0000
  O   O14       1.0  0.31720  0.09687  0.16410  1.0000
  O   O15       1.0  0.81720  0.40313  0.66410  1.0000
  O   O16       1.0  0.68280  0.90313  0.83590  1.0000
  H   H1        1.0  0.05450  0.57780  0.36200  1.0000
  H   H2        1.0  0.44550  0.07780  0.13800  1.0000
  H   H3        1.0  0.94550  0.42220  0.63800  1.0000
  H   H4        1.0  0.55450  0.92220  0.86200  1.0000
  O   O17       1.0  0.74390  0.55217  0.42870  1.0000
  O   O18       1.0  0.75610  0.05217  0.07130  1.0000
  O   O19       1.0  0.25610  0.44783  0.57130  1.0000
  O   O20       1.0  0.24390  0.94783  0.92870  1.0000
  O   O21       1.0  0.57610  0.42681  0.37020  1.0000
  O   O22       1.0  0.92390  0.92681  0.12980  1.0000
  O   O23       1.0  0.42390  0.57319  0.62980  1.0000
  O   O24       1.0  0.07610  0.07319  0.87020  1.0000
  O   O25       1.0  0.97740  0.62553  0.73030  1.0000
  O   O26       1.0  0.52260  0.12553  0.76970  1.0000
  O   O27       1.0  0.02260  0.37447  0.26970  1.0000
  O   O28       1.0  0.47740  0.87447  0.23030  1.0000
  H   H5        1.0  0.01760  0.66800  0.78790  1.0000
  H   H6        1.0  0.48240  0.16800  0.71210  1.0000
  H   H7        1.0  0.98240  0.33200  0.21210  1.0000
  H   H8        1.0  0.51760  0.83200  0.28790  1.0000
  H   H9        1.0  0.11050  0.60750  0.69140  1.0000
  H   H10       1.0  0.38950  0.10750  0.80860  1.0000
  H   H11       1.0  0.88950  0.39250  0.30860  1.0000
  H   H12       1.0  0.61050  0.89250  0.19140  1.0000
  C   C1        1.0  0.59260  0.49375  0.44160  1.0000
  C   C2        1.0  0.90740  0.99375  0.05840  1.0000
  C   C3        1.0  0.40740  0.50625  0.55840  1.0000
  C   C4        1.0  0.09260  0.00625  0.94160  1.0000
