data_image0
_chemical_formula_structural       Co8P8O16H8O8H8O40C16
_chemical_formula_sum              "Co8 P8 O64 H16 C16"
_cell_length_a       16.3686
_cell_length_b       8.2405
_cell_length_c       13.1615
_cell_angle_alpha    90
_cell_angle_beta     90
_cell_angle_gamma    90

_space_group_name_H-M_alt    "P 1"
_space_group_IT_number       1

loop_
  _space_group_symop_operation_xyz
  'x, y, z'

loop_
  _atom_site_type_symbol
  _atom_site_label
  _atom_site_symmetry_multiplicity
  _atom_site_fract_x
  _atom_site_fract_y
  _atom_site_fract_z
  _atom_site_occupancy
  Co  Co1       1.0  0.41738  0.20341  0.63064  1.0000
  Co  Co2       1.0  0.08262  0.29659  0.63064  1.0000
  Co  Co3       1.0  0.58262  0.70341  0.86936  1.0000
  Co  Co4       1.0  0.91738  0.79659  0.86936  1.0000
  Co  Co5       1.0  0.58262  0.79659  0.36936  1.0000
  Co  Co6       1.0  0.91738  0.70341  0.36936  1.0000
  Co  Co7       1.0  0.41738  0.29659  0.13064  1.0000
  Co  Co8       1.0  0.08262  0.20341  0.13064  1.0000
  P   P1        1.0  0.43389  0.56995  0.72291  1.0000
  P   P2        1.0  0.06611  0.93005  0.72291  1.0000
  P   P3        1.0  0.56611  0.06995  0.77709  1.0000
  P   P4        1.0  0.93389  0.43005  0.77709  1.0000
  P   P5        1.0  0.56611  0.43005  0.27709  1.0000
  P   P6        1.0  0.93389  0.06995  0.27709  1.0000
  P   P7        1.0  0.43389  0.93005  0.22291  1.0000
  P   P8        1.0  0.06611  0.56995  0.22291  1.0000
  O   O1        1.0  0.43234  0.45070  0.63740  1.0000
  O   O2        1.0  0.06766  0.04930  0.63740  1.0000
  O   O3        1.0  0.56766  0.95070  0.86260  1.0000
  O   O4        1.0  0.93234  0.54930  0.86260  1.0000
  O   O5        1.0  0.56766  0.54930  0.36260  1.0000
  O   O6        1.0  0.93234  0.95070  0.36260  1.0000
  O   O7        1.0  0.43234  0.04930  0.13740  1.0000
  O   O8        1.0  0.06766  0.45070  0.13740  1.0000
  O   O9        1.0  0.37262  0.71080  0.70250  1.0000
  O   O10       1.0  0.12738  0.78920  0.70250  1.0000
  O   O11       1.0  0.62738  0.21080  0.79750  1.0000
  O   O12       1.0  0.87262  0.28920  0.79750  1.0000
  O   O13       1.0  0.62738  0.28920  0.29750  1.0000
  O   O14       1.0  0.87262  0.21080  0.29750  1.0000
  O   O15       1.0  0.37262  0.78920  0.20250  1.0000
  O   O16       1.0  0.12738  0.71080  0.20250  1.0000
  H   H1        1.0  0.39430  0.77920  0.66620  1.0000
  H   H2        1.0  0.10570  0.72080  0.66620  1.0000
  H   H3        1.0  0.60570  0.27920  0.83380  1.0000
  H   H4        1.0  0.89430  0.22080  0.83380  1.0000
  H   H5        1.0  0.60570  0.22080  0.33380  1.0000
  H   H6        1.0  0.89430  0.27920  0.33380  1.0000
  H   H7        1.0  0.39430  0.72080  0.16620  1.0000
  H   H8        1.0  0.10570  0.77920  0.16620  1.0000
  O   O17       1.0  0.39795  0.49110  0.82289  1.0000
  O   O18       1.0  0.10205  0.00890  0.82289  1.0000
  O   O19       1.0  0.60205  0.99110  0.67711  1.0000
  O   O20       1.0  0.89795  0.50890  0.67711  1.0000
  O   O21       1.0  0.60205  0.50890  0.17711  1.0000
  O   O22       1.0  0.89795  0.99110  0.17711  1.0000
  O   O23       1.0  0.39795  0.00890  0.32289  1.0000
  O   O24       1.0  0.10205  0.49110  0.32289  1.0000
  H   H9        1.0  0.37210  0.40920  0.80810  1.0000
  H   H10       1.0  0.12790  0.09080  0.80810  1.0000
  H   H11       1.0  0.62790  0.90920  0.69190  1.0000
  H   H12       1.0  0.87210  0.59080  0.69190  1.0000
  H   H13       1.0  0.62790  0.59080  0.19190  1.0000
  H   H14       1.0  0.87210  0.90920  0.19190  1.0000
  H   H15       1.0  0.37210  0.09080  0.30810  1.0000
  H   H16       1.0  0.12790  0.40920  0.30810  1.0000
  O   O25       1.0  0.51685  0.63760  0.74449  1.0000
  O   O26       1.0  0.98315  0.86240  0.74449  1.0000
  O   O27       1.0  0.48315  0.13760  0.75551  1.0000
  O   O28       1.0  0.01685  0.36240  0.75551  1.0000
  O   O29       1.0  0.48315  0.36240  0.25551  1.0000
  O   O30       1.0  0.01685  0.13760  0.25551  1.0000
  O   O31       1.0  0.51685  0.86240  0.24449  1.0000
  O   O32       1.0  0.98315  0.63760  0.24449  1.0000
  O   O33       1.0  0.42280  0.95440  0.58671  1.0000
  O   O34       1.0  0.07720  0.54560  0.58671  1.0000
  O   O35       1.0  0.57720  0.45440  0.91329  1.0000
  O   O36       1.0  0.92280  0.04560  0.91329  1.0000
  O   O37       1.0  0.57720  0.04560  0.41329  1.0000
  O   O38       1.0  0.92280  0.45440  0.41329  1.0000
  O   O39       1.0  0.42280  0.54560  0.08671  1.0000
  O   O40       1.0  0.07720  0.95440  0.08671  1.0000
  O   O41       1.0  0.49371  0.79060  0.48428  1.0000
  O   O42       1.0  0.00629  0.70940  0.48428  1.0000
  O   O43       1.0  0.50629  0.29060  0.01572  1.0000
  O   O44       1.0  0.99371  0.20940  0.01572  1.0000
  O   O45       1.0  0.50629  0.20940  0.51572  1.0000
  O   O46       1.0  0.99371  0.29060  0.51572  1.0000
  O   O47       1.0  0.49371  0.70940  0.98428  1.0000
  O   O48       1.0  0.00629  0.79060  0.98428  1.0000
  O   O49       1.0  0.31739  0.22860  0.53163  1.0000
  O   O50       1.0  0.18261  0.27140  0.53163  1.0000
  O   O51       1.0  0.68261  0.72860  0.96837  1.0000
  O   O52       1.0  0.81739  0.77140  0.96837  1.0000
  O   O53       1.0  0.68261  0.77140  0.46837  1.0000
  O   O54       1.0  0.81739  0.72860  0.46837  1.0000
  O   O55       1.0  0.31739  0.27140  0.03163  1.0000
  O   O56       1.0  0.18261  0.22860  0.03163  1.0000
  O   O57       1.0  0.31673  0.22260  0.73561  1.0000
  O   O58       1.0  0.18327  0.27740  0.73561  1.0000
  O   O59       1.0  0.68327  0.72260  0.76439  1.0000
  O   O60       1.0  0.81673  0.77740  0.76439  1.0000
  O   O61       1.0  0.68327  0.77740  0.26439  1.0000
  O   O62       1.0  0.81673  0.72260  0.26439  1.0000
  O   O63       1.0  0.31673  0.27740  0.23561  1.0000
  O   O64       1.0  0.18327  0.22260  0.23561  1.0000
  C   C1        1.0  0.47618  0.92650  0.52060  1.0000
  C   C2        1.0  0.02382  0.57350  0.52060  1.0000
  C   C3        1.0  0.52382  0.42650  0.97940  1.0000
  C   C4        1.0  0.97618  0.07350  0.97940  1.0000
  C   C5        1.0  0.52382  0.07350  0.47940  1.0000
  C   C6        1.0  0.97618  0.42650  0.47940  1.0000
  C   C7        1.0  0.47618  0.57350  0.02060  1.0000
  C   C8        1.0  0.02382  0.92650  0.02060  1.0000
  C   C9        1.0  0.25000  0.25000  0.57460  1.0000
  C   C10       1.0  0.75000  0.75000  0.92540  1.0000
  C   C11       1.0  0.75000  0.75000  0.42540  1.0000
  C   C12       1.0  0.25000  0.25000  0.07460  1.0000
  C   C13       1.0  0.25000  0.25000  0.69220  1.0000
  C   C14       1.0  0.75000  0.75000  0.80780  1.0000
  C   C15       1.0  0.75000  0.75000  0.30780  1.0000
  C   C16       1.0  0.25000  0.25000  0.19220  1.0000
