data_image0
_chemical_formula_structural       Zn8P8O24H8O8H8O32C16
_chemical_formula_sum              "Zn8 P8 O64 H16 C16"
_cell_length_a       8.21854
_cell_length_b       16.3878
_cell_length_c       13.2772
_cell_angle_alpha    90
_cell_angle_beta     90
_cell_angle_gamma    90

_space_group_name_H-M_alt    "P 1"
_space_group_IT_number       1

loop_
  _space_group_symop_operation_xyz
  'x, y, z'

loop_
  _atom_site_type_symbol
  _atom_site_label
  _atom_site_symmetry_multiplicity
  _atom_site_fract_x
  _atom_site_fract_y
  _atom_site_fract_z
  _atom_site_occupancy
  Zn  Zn1       1.0  0.29785  0.58194  0.63227  1.0000
  Zn  Zn2       1.0  0.20215  0.91806  0.63227  1.0000
  Zn  Zn3       1.0  0.70215  0.08194  0.86773  1.0000
  Zn  Zn4       1.0  0.79785  0.41806  0.86773  1.0000
  Zn  Zn5       1.0  0.70215  0.41806  0.36773  1.0000
  Zn  Zn6       1.0  0.79785  0.08194  0.36773  1.0000
  Zn  Zn7       1.0  0.29785  0.91806  0.13227  1.0000
  Zn  Zn8       1.0  0.20215  0.58194  0.13227  1.0000
  P   P1        1.0  0.43137  0.43557  0.77770  1.0000
  P   P2        1.0  0.06863  0.06443  0.77770  1.0000
  P   P3        1.0  0.56863  0.93557  0.72230  1.0000
  P   P4        1.0  0.93137  0.56443  0.72230  1.0000
  P   P5        1.0  0.56863  0.56443  0.22230  1.0000
  P   P6        1.0  0.93137  0.93557  0.22230  1.0000
  P   P7        1.0  0.43137  0.06443  0.27770  1.0000
  P   P8        1.0  0.06863  0.43557  0.27770  1.0000
  O   O1        1.0  0.36320  0.51794  0.75580  1.0000
  O   O2        1.0  0.13680  0.98206  0.75580  1.0000
  O   O3        1.0  0.63680  0.01794  0.74420  1.0000
  O   O4        1.0  0.86320  0.48206  0.74420  1.0000
  O   O5        1.0  0.63680  0.48206  0.24420  1.0000
  O   O6        1.0  0.86320  0.01794  0.24420  1.0000
  O   O7        1.0  0.36320  0.98206  0.25580  1.0000
  O   O8        1.0  0.13680  0.51794  0.25580  1.0000
  O   O9        1.0  0.55090  0.43480  0.86220  1.0000
  O   O10       1.0  0.94910  0.06520  0.86220  1.0000
  O   O11       1.0  0.44910  0.93480  0.63780  1.0000
  O   O12       1.0  0.05090  0.56520  0.63780  1.0000
  O   O13       1.0  0.44910  0.56520  0.13780  1.0000
  O   O14       1.0  0.05090  0.93480  0.13780  1.0000
  O   O15       1.0  0.55090  0.06520  0.36220  1.0000
  O   O16       1.0  0.94910  0.43480  0.36220  1.0000
  O   O17       1.0  0.29070  0.37380  0.79870  1.0000
  O   O18       1.0  0.20930  0.12620  0.79870  1.0000
  O   O19       1.0  0.70930  0.87380  0.70130  1.0000
  O   O20       1.0  0.79070  0.62620  0.70130  1.0000
  O   O21       1.0  0.70930  0.62620  0.20130  1.0000
  O   O22       1.0  0.79070  0.87380  0.20130  1.0000
  O   O23       1.0  0.29070  0.12620  0.29870  1.0000
  O   O24       1.0  0.20930  0.37380  0.29870  1.0000
  H   H1        1.0  0.22560  0.39420  0.83810  1.0000
  H   H2        1.0  0.27440  0.10580  0.83810  1.0000
  H   H3        1.0  0.77440  0.89420  0.66190  1.0000
  H   H4        1.0  0.72560  0.60580  0.66190  1.0000
  H   H5        1.0  0.77440  0.60580  0.16190  1.0000
  H   H6        1.0  0.72560  0.89420  0.16190  1.0000
  H   H7        1.0  0.22560  0.10580  0.33810  1.0000
  H   H8        1.0  0.27440  0.39420  0.33810  1.0000
  O   O25       1.0  0.51000  0.39937  0.67853  1.0000
  O   O26       1.0  0.99000  0.10063  0.67853  1.0000
  O   O27       1.0  0.49000  0.89937  0.82147  1.0000
  O   O28       1.0  0.01000  0.60063  0.82147  1.0000
  O   O29       1.0  0.49000  0.60063  0.32147  1.0000
  O   O30       1.0  0.01000  0.89937  0.32147  1.0000
  O   O31       1.0  0.51000  0.10063  0.17853  1.0000
  O   O32       1.0  0.99000  0.39937  0.17853  1.0000
  H   H9        1.0  0.59410  0.37510  0.69280  1.0000
  H   H10       1.0  0.90590  0.12490  0.69280  1.0000
  H   H11       1.0  0.40590  0.87510  0.80720  1.0000
  H   H12       1.0  0.09410  0.62490  0.80720  1.0000
  H   H13       1.0  0.40590  0.62490  0.30720  1.0000
  H   H14       1.0  0.09410  0.87510  0.30720  1.0000
  H   H15       1.0  0.59410  0.12490  0.19280  1.0000
  H   H16       1.0  0.90590  0.37510  0.19280  1.0000
  O   O33       1.0  0.28950  0.49520  0.51500  1.0000
  O   O34       1.0  0.21050  0.00480  0.51500  1.0000
  O   O35       1.0  0.71050  0.99520  0.98500  1.0000
  O   O36       1.0  0.78950  0.50480  0.98500  1.0000
  O   O37       1.0  0.71050  0.50480  0.48500  1.0000
  O   O38       1.0  0.78950  0.99520  0.48500  1.0000
  O   O39       1.0  0.28950  0.00480  0.01500  1.0000
  O   O40       1.0  0.21050  0.49520  0.01500  1.0000
  O   O41       1.0  0.45200  0.42328  0.41380  1.0000
  O   O42       1.0  0.04800  0.07672  0.41380  1.0000
  O   O43       1.0  0.54800  0.92328  0.08620  1.0000
  O   O44       1.0  0.95200  0.57672  0.08620  1.0000
  O   O45       1.0  0.54800  0.57672  0.58620  1.0000
  O   O46       1.0  0.95200  0.92328  0.58620  1.0000
  O   O47       1.0  0.45200  0.07672  0.91380  1.0000
  O   O48       1.0  0.04800  0.42328  0.91380  1.0000
  O   O49       1.0  0.26990  0.68265  0.53460  1.0000
  O   O50       1.0  0.23010  0.81735  0.53460  1.0000
  O   O51       1.0  0.73010  0.18265  0.96540  1.0000
  O   O52       1.0  0.76990  0.31735  0.96540  1.0000
  O   O53       1.0  0.73010  0.31735  0.46540  1.0000
  O   O54       1.0  0.76990  0.18265  0.46540  1.0000
  O   O55       1.0  0.26990  0.81735  0.03460  1.0000
  O   O56       1.0  0.23010  0.68265  0.03460  1.0000
  O   O57       1.0  0.27900  0.68348  0.73660  1.0000
  O   O58       1.0  0.22100  0.81652  0.73660  1.0000
  O   O59       1.0  0.72100  0.18348  0.76340  1.0000
  O   O60       1.0  0.77900  0.31652  0.76340  1.0000
  O   O61       1.0  0.72100  0.31652  0.26340  1.0000
  O   O62       1.0  0.77900  0.18348  0.26340  1.0000
  O   O63       1.0  0.27900  0.81652  0.23660  1.0000
  O   O64       1.0  0.22100  0.68348  0.23660  1.0000
  C   C1        1.0  0.42520  0.47670  0.47930  1.0000
  C   C2        1.0  0.07480  0.02330  0.47930  1.0000
  C   C3        1.0  0.57480  0.97670  0.02070  1.0000
  C   C4        1.0  0.92520  0.52330  0.02070  1.0000
  C   C5        1.0  0.57480  0.52330  0.52070  1.0000
  C   C6        1.0  0.92520  0.97670  0.52070  1.0000
  C   C7        1.0  0.42520  0.02330  0.97930  1.0000
  C   C8        1.0  0.07480  0.47670  0.97930  1.0000
  C   C9        1.0  0.25000  0.75000  0.57700  1.0000
  C   C10       1.0  0.75000  0.25000  0.92300  1.0000
  C   C11       1.0  0.75000  0.25000  0.42300  1.0000
  C   C12       1.0  0.25000  0.75000  0.07700  1.0000
  C   C13       1.0  0.25000  0.75000  0.69450  1.0000
  C   C14       1.0  0.75000  0.25000  0.80550  1.0000
  C   C15       1.0  0.75000  0.25000  0.30550  1.0000
  C   C16       1.0  0.25000  0.75000  0.19450  1.0000
