data_image0
_chemical_formula_structural       Cd4P4O16H4O12H8C4
_chemical_formula_sum              "Cd4 P4 O28 H12 C4"
_cell_length_a       5.63389
_cell_length_b       15.9428
_cell_length_c       9.61828
_cell_angle_alpha    90
_cell_angle_beta     91.1156
_cell_angle_gamma    90

_space_group_name_H-M_alt    "P 1"
_space_group_IT_number       1

loop_
  _space_group_symop_operation_xyz
  'x, y, z'

loop_
  _atom_site_type_symbol
  _atom_site_label
  _atom_site_symmetry_multiplicity
  _atom_site_fract_x
  _atom_site_fract_y
  _atom_site_fract_z
  _atom_site_occupancy
  Cd  Cd1       1.0  0.29808  0.33175  0.93741  1.0000
  Cd  Cd2       1.0  0.20192  0.83175  0.56259  1.0000
  Cd  Cd3       1.0  0.70192  0.66825  0.06259  1.0000
  Cd  Cd4       1.0  0.79808  0.16825  0.43741  1.0000
  P   P1        1.0  0.30750  0.19603  0.65010  1.0000
  P   P2        1.0  0.19250  0.69603  0.84990  1.0000
  P   P3        1.0  0.69250  0.80397  0.34990  1.0000
  P   P4        1.0  0.80750  0.30397  0.15010  1.0000
  O   O1        1.0  0.36380  0.22620  0.79730  1.0000
  O   O2        1.0  0.13620  0.72620  0.70270  1.0000
  O   O3        1.0  0.63620  0.77380  0.20270  1.0000
  O   O4        1.0  0.86380  0.27380  0.29730  1.0000
  O   O5        1.0  0.49210  0.22440  0.54840  1.0000
  O   O6        1.0  0.00790  0.72440  0.95160  1.0000
  O   O7        1.0  0.50790  0.77560  0.45160  1.0000
  O   O8        1.0  0.99210  0.27560  0.04840  1.0000
  O   O9        1.0  0.05620  0.21960  0.60740  1.0000
  O   O10       1.0  0.44380  0.71960  0.89260  1.0000
  O   O11       1.0  0.94380  0.78040  0.39260  1.0000
  O   O12       1.0  0.55620  0.28040  0.10740  1.0000
  O   O13       1.0  0.31310  0.09630  0.65790  1.0000
  O   O14       1.0  0.18690  0.59630  0.84210  1.0000
  O   O15       1.0  0.68690  0.90370  0.34210  1.0000
  O   O16       1.0  0.81310  0.40370  0.15790  1.0000
  H   H1        1.0  0.44800  0.07960  0.64340  1.0000
  H   H2        1.0  0.05200  0.57960  0.85660  1.0000
  H   H3        1.0  0.55200  0.92040  0.35660  1.0000
  H   H4        1.0  0.94800  0.42040  0.14340  1.0000
  O   O17       1.0  0.57590  0.42880  0.86840  1.0000
  O   O18       1.0  0.92410  0.92880  0.63160  1.0000
  O   O19       1.0  0.42410  0.57120  0.13160  1.0000
  O   O20       1.0  0.07590  0.07120  0.36840  1.0000
  O   O21       1.0  0.74570  0.54970  0.92800  1.0000
  O   O22       1.0  0.75430  0.04970  0.57200  1.0000
  O   O23       1.0  0.25430  0.45030  0.07200  1.0000
  O   O24       1.0  0.24570  0.95030  0.42800  1.0000
  O   O25       1.0  0.01410  0.37260  0.76160  1.0000
  O   O26       1.0  0.48590  0.87260  0.73840  1.0000
  O   O27       1.0  0.98590  0.62740  0.23840  1.0000
  O   O28       1.0  0.51410  0.12740  0.26160  1.0000
  H   H5        1.0  0.88440  0.38640  0.79930  1.0000
  H   H6        1.0  0.61560  0.88640  0.70070  1.0000
  H   H7        1.0  0.11560  0.61360  0.20070  1.0000
  H   H8        1.0  0.38440  0.11360  0.29930  1.0000
  H   H9        1.0  0.98960  0.33170  0.70660  1.0000
  H   H10       1.0  0.51040  0.83170  0.79340  1.0000
  H   H11       1.0  0.01040  0.66830  0.29340  1.0000
  H   H12       1.0  0.48960  0.16830  0.20660  1.0000
  C   C1        1.0  0.59240  0.49390  0.94110  1.0000
  C   C2        1.0  0.90760  0.99390  0.55890  1.0000
  C   C3        1.0  0.40760  0.50610  0.05890  1.0000
  C   C4        1.0  0.09240  0.00610  0.44110  1.0000
