data_image0
_chemical_formula_structural       In2P4O8H2O6H2O2H2O4C2
_chemical_formula_sum              "In2 P4 O20 H6 C2"
_cell_length_a       7.6595
_cell_length_b       8.455
_cell_length_c       9.6469
_cell_angle_alpha    91.768
_cell_angle_beta     111.205
_cell_angle_gamma    115.495

_space_group_name_H-M_alt    "P 1"
_space_group_IT_number       1

loop_
  _space_group_symop_operation_xyz
  'x, y, z'

loop_
  _atom_site_type_symbol
  _atom_site_label
  _atom_site_symmetry_multiplicity
  _atom_site_fract_x
  _atom_site_fract_y
  _atom_site_fract_z
  _atom_site_occupancy
  In  In1       1.0  0.31418  0.52882  0.70205  1.0000
  In  In2       1.0  0.68582  0.47118  0.29795  1.0000
  P   P1        1.0  0.20679  0.76453  0.43817  1.0000
  P   P2        1.0  0.79321  0.23547  0.56183  1.0000
  P   P3        1.0  0.38903  0.64715  0.05605  1.0000
  P   P4        1.0  0.61097  0.35285  0.94395  1.0000
  O   O1        1.0  0.22460  0.70890  0.58990  1.0000
  O   O2        1.0  0.77540  0.29110  0.41010  1.0000
  O   O3        1.0  0.38670  0.77920  0.39830  1.0000
  O   O4        1.0  0.61330  0.22080  0.60170  1.0000
  O   O5        1.0  0.98990  0.64320  0.30860  1.0000
  O   O6        1.0  0.01010  0.35680  0.69140  1.0000
  O   O7        1.0  0.21950  0.95670  0.45880  1.0000
  O   O8        1.0  0.78050  0.04330  0.54120  1.0000
  H   H1        1.0  0.34420  0.03390  0.50370  1.0000
  H   H2        1.0  0.65580  0.96610  0.49630  1.0000
  O   O9        1.0  0.40720  0.69360  0.91110  1.0000
  O   O10       1.0  0.59280  0.30640  0.08890  1.0000
  O   O11       1.0  0.58000  0.64040  0.17010  1.0000
  O   O12       1.0  0.42000  0.35960  0.82990  1.0000
  O   O13       1.0  0.36180  0.79480  0.13140  1.0000
  O   O14       1.0  0.63820  0.20520  0.86860  1.0000
  H   H3        1.0  0.36870  0.78120  0.21670  1.0000
  H   H4        1.0  0.63130  0.21880  0.78330  1.0000
  O   O15       1.0  0.18660  0.46190  0.02070  1.0000
  O   O16       1.0  0.81340  0.53810  0.97930  1.0000
  H   H5        1.0  0.11000  0.43210  0.92910  1.0000
  H   H6        1.0  0.89000  0.56790  0.07090  1.0000
  O   O17       1.0  0.61260  0.65290  0.67270  1.0000
  O   O18       1.0  0.38740  0.34710  0.32730  1.0000
  O   O19       1.0  0.75360  0.63980  0.51060  1.0000
  O   O20       1.0  0.24640  0.36020  0.48940  1.0000
  C   C1        1.0  0.60490  0.58380  0.55290  1.0000
  C   C2        1.0  0.39510  0.41620  0.44710  1.0000
