data_image0
_chemical_formula_structural       U8P16O20H4O16H4O28C8H4C8H4C4H4C4H4C8H4C8H4C4H4C4H4
_chemical_formula_sum              "U8 P16 O64 H40 C48"
_cell_length_a       9.7669
_cell_length_b       19.1321
_cell_length_c       19.139
_cell_angle_alpha    90
_cell_angle_beta     90
_cell_angle_gamma    90

_space_group_name_H-M_alt    "P 1"
_space_group_IT_number       1

loop_
  _space_group_symop_operation_xyz
  'x, y, z'

loop_
  _atom_site_type_symbol
  _atom_site_label
  _atom_site_symmetry_multiplicity
  _atom_site_fract_x
  _atom_site_fract_y
  _atom_site_fract_z
  _atom_site_occupancy
  U   U1        1.0  0.98489  0.23478  0.24913  1.0000
  U   U2        1.0  0.51511  0.76522  0.74913  1.0000
  U   U3        1.0  0.01511  0.73478  0.25087  1.0000
  U   U4        1.0  0.48489  0.26522  0.75087  1.0000
  U   U5        1.0  0.28929  0.00314  0.74185  1.0000
  U   U6        1.0  0.21071  0.99686  0.24185  1.0000
  U   U7        1.0  0.71071  0.50314  0.75815  1.0000
  U   U8        1.0  0.78929  0.49686  0.25815  1.0000
  P   P1        1.0  0.07250  0.10782  0.11375  1.0000
  P   P2        1.0  0.42750  0.89218  0.61375  1.0000
  P   P3        1.0  0.92750  0.60782  0.38625  1.0000
  P   P4        1.0  0.57250  0.39218  0.88625  1.0000
  P   P5        1.0  0.37660  0.12444  0.87158  1.0000
  P   P6        1.0  0.12340  0.87556  0.37158  1.0000
  P   P7        1.0  0.62340  0.62444  0.62842  1.0000
  P   P8        1.0  0.87660  0.37556  0.12842  1.0000
  P   P9        1.0  0.41310  0.12749  0.61974  1.0000
  P   P10       1.0  0.08690  0.87251  0.11974  1.0000
  P   P11       1.0  0.58690  0.62749  0.88026  1.0000
  P   P12       1.0  0.91310  0.37251  0.38026  1.0000
  P   P13       1.0  0.11170  0.10901  0.37779  1.0000
  P   P14       1.0  0.38830  0.89099  0.87779  1.0000
  P   P15       1.0  0.88830  0.60901  0.12221  1.0000
  P   P16       1.0  0.61170  0.39099  0.62221  1.0000
  O   O1        1.0  0.98790  0.05110  0.07890  1.0000
  O   O2        1.0  0.51210  0.94890  0.57890  1.0000
  O   O3        1.0  0.01210  0.55110  0.42110  1.0000
  O   O4        1.0  0.48790  0.44890  0.92110  1.0000
  O   O5        1.0  0.19190  0.07730  0.15440  1.0000
  O   O6        1.0  0.30810  0.92270  0.65440  1.0000
  O   O7        1.0  0.80810  0.57730  0.34560  1.0000
  O   O8        1.0  0.69190  0.42270  0.84560  1.0000
  O   O9        1.0  0.98490  0.15550  0.15950  1.0000
  O   O10       1.0  0.51510  0.84450  0.65950  1.0000
  O   O11       1.0  0.01510  0.65550  0.34050  1.0000
  O   O12       1.0  0.48490  0.34450  0.84050  1.0000
  O   O13       1.0  0.45570  0.17960  0.83230  1.0000
  O   O14       1.0  0.04430  0.82040  0.33230  1.0000
  O   O15       1.0  0.54430  0.67960  0.66770  1.0000
  O   O16       1.0  0.95570  0.32040  0.16770  1.0000
  O   O17       1.0  0.47300  0.07310  0.90610  1.0000
  O   O18       1.0  0.02700  0.92690  0.40610  1.0000
  O   O19       1.0  0.52700  0.57310  0.59390  1.0000
  O   O20       1.0  0.97300  0.42690  0.09390  1.0000
  H   H1        1.0  0.44400  0.03320  0.90060  1.0000
  H   H2        1.0  0.05600  0.96680  0.40060  1.0000
  H   H3        1.0  0.55600  0.53320  0.59940  1.0000
  H   H4        1.0  0.94400  0.46680  0.09940  1.0000
  O   O21       1.0  0.26960  0.08960  0.82380  1.0000
  O   O22       1.0  0.23040  0.91040  0.32380  1.0000
  O   O23       1.0  0.73040  0.58960  0.67620  1.0000
  O   O24       1.0  0.76960  0.41040  0.17620  1.0000
  O   O25       1.0  0.48180  0.18140  0.66560  1.0000
  O   O26       1.0  0.01820  0.81860  0.16560  1.0000
  O   O27       1.0  0.51820  0.68140  0.83440  1.0000
  O   O28       1.0  0.98180  0.31860  0.33440  1.0000
  O   O29       1.0  0.30160  0.08610  0.65570  1.0000
  O   O30       1.0  0.19840  0.91390  0.15570  1.0000
  O   O31       1.0  0.69840  0.58610  0.84430  1.0000
  O   O32       1.0  0.80160  0.41390  0.34430  1.0000
  O   O33       1.0  0.52440  0.07960  0.59000  1.0000
  O   O34       1.0  0.97560  0.92040  0.09000  1.0000
  O   O35       1.0  0.47560  0.57960  0.91000  1.0000
  O   O36       1.0  0.02440  0.42040  0.41000  1.0000
  H   H5        1.0  0.50400  0.03870  0.59740  1.0000
  H   H6        1.0  0.99600  0.96130  0.09740  1.0000
  H   H7        1.0  0.49600  0.53870  0.90260  1.0000
  H   H8        1.0  0.00400  0.46130  0.40260  1.0000
  O   O37       1.0  0.21880  0.07720  0.33030  1.0000
  O   O38       1.0  0.28120  0.92280  0.83030  1.0000
  O   O39       1.0  0.78120  0.57720  0.16970  1.0000
  O   O40       1.0  0.71880  0.42280  0.66970  1.0000
  O   O41       1.0  0.01240  0.15520  0.33810  1.0000
  O   O42       1.0  0.48760  0.84480  0.83810  1.0000
  O   O43       1.0  0.98760  0.65520  0.16190  1.0000
  O   O44       1.0  0.51240  0.34480  0.66190  1.0000
  O   O45       1.0  0.03820  0.05340  0.42020  1.0000
  O   O46       1.0  0.46180  0.94660  0.92020  1.0000
  O   O47       1.0  0.96180  0.55340  0.07980  1.0000
  O   O48       1.0  0.53820  0.44660  0.57980  1.0000
  O   O49       1.0  0.80560  0.22500  0.25590  1.0000
  O   O50       1.0  0.69440  0.77500  0.75590  1.0000
  O   O51       1.0  0.19440  0.72500  0.24410  1.0000
  O   O52       1.0  0.30560  0.27500  0.74410  1.0000
  O   O53       1.0  0.16510  0.24280  0.24320  1.0000
  O   O54       1.0  0.33490  0.75720  0.74320  1.0000
  O   O55       1.0  0.83490  0.74280  0.25680  1.0000
  O   O56       1.0  0.66510  0.25720  0.75680  1.0000
  O   O57       1.0  0.10810  0.00090  0.73430  1.0000
  O   O58       1.0  0.39190  0.99910  0.23430  1.0000
  O   O59       1.0  0.89190  0.50090  0.76570  1.0000
  O   O60       1.0  0.60810  0.49910  0.26570  1.0000
  O   O61       1.0  0.47000  0.00560  0.74830  1.0000
  O   O62       1.0  0.03000  0.99440  0.24830  1.0000
  O   O63       1.0  0.53000  0.50560  0.75170  1.0000
  O   O64       1.0  0.97000  0.49440  0.25170  1.0000
  C   C1        1.0  0.14740  0.16090  0.04590  1.0000
  C   C2        1.0  0.35260  0.83910  0.54590  1.0000
  C   C3        1.0  0.85260  0.66090  0.45410  1.0000
  C   C4        1.0  0.64740  0.33910  0.95410  1.0000
  C   C5        1.0  0.21680  0.12850  0.99110  1.0000
  C   C6        1.0  0.28320  0.87150  0.49110  1.0000
  C   C7        1.0  0.78320  0.62850  0.50890  1.0000
  C   C8        1.0  0.71680  0.37150  0.00890  1.0000
  H   H9        1.0  0.21930  0.07990  0.98870  1.0000
  H   H10       1.0  0.28070  0.92010  0.48870  1.0000
  H   H11       1.0  0.78070  0.57990  0.51130  1.0000
  H   H12       1.0  0.71930  0.42010  0.01130  1.0000
  C   C9        1.0  0.28300  0.16820  0.93950  1.0000
  C   C10       1.0  0.21700  0.83180  0.43950  1.0000
  C   C11       1.0  0.71700  0.66820  0.56050  1.0000
  C   C12       1.0  0.78300  0.33180  0.06050  1.0000
  C   C13       1.0  0.27580  0.23950  0.94370  1.0000
  C   C14       1.0  0.22420  0.76050  0.44370  1.0000
  C   C15       1.0  0.72420  0.73950  0.55630  1.0000
  C   C16       1.0  0.77580  0.26050  0.05630  1.0000
  H   H13       1.0  0.31840  0.26650  0.90960  1.0000
  H   H14       1.0  0.18160  0.73350  0.40960  1.0000
  H   H15       1.0  0.68160  0.76650  0.59040  1.0000
  H   H16       1.0  0.81840  0.23350  0.09040  1.0000
  C   C17       1.0  0.20610  0.27290  0.99800  1.0000
  C   C18       1.0  0.29390  0.72710  0.49800  1.0000
  C   C19       1.0  0.79390  0.77290  0.50200  1.0000
  C   C20       1.0  0.70610  0.22710  0.00200  1.0000
  H   H17       1.0  0.20150  0.32140  0.99980  1.0000
  H   H18       1.0  0.29850  0.67860  0.49980  1.0000
  H   H19       1.0  0.79850  0.82140  0.50020  1.0000
  H   H20       1.0  0.70150  0.17860  0.00020  1.0000
  C   C21       1.0  0.14370  0.23240  0.04950  1.0000
  C   C22       1.0  0.35630  0.76760  0.54950  1.0000
  C   C23       1.0  0.85630  0.73240  0.45050  1.0000
  C   C24       1.0  0.64370  0.26760  0.95050  1.0000
  H   H21       1.0  0.09920  0.25420  0.08660  1.0000
  H   H22       1.0  0.40080  0.74580  0.58660  1.0000
  H   H23       1.0  0.90080  0.75420  0.41340  1.0000
  H   H24       1.0  0.59920  0.24580  0.91340  1.0000
  C   C25       1.0  0.33430  0.17020  0.54620  1.0000
  C   C26       1.0  0.16570  0.82980  0.04620  1.0000
  C   C27       1.0  0.66570  0.67020  0.95380  1.0000
  C   C28       1.0  0.83430  0.32980  0.45380  1.0000
  C   C29       1.0  0.26230  0.13190  0.49820  1.0000
  C   C30       1.0  0.23770  0.86810  0.99820  1.0000
  C   C31       1.0  0.73770  0.63190  0.00180  1.0000
  C   C32       1.0  0.76230  0.36810  0.50180  1.0000
  H   H25       1.0  0.25410  0.08390  0.50470  1.0000
  H   H26       1.0  0.24590  0.91610  0.00470  1.0000
  H   H27       1.0  0.74590  0.58390  0.99530  1.0000
  H   H28       1.0  0.75410  0.41610  0.49530  1.0000
  C   C33       1.0  0.20150  0.16220  0.44080  1.0000
  C   C34       1.0  0.29850  0.83780  0.94080  1.0000
  C   C35       1.0  0.79850  0.66220  0.05920  1.0000
  C   C36       1.0  0.70150  0.33780  0.55920  1.0000
  C   C37       1.0  0.21520  0.23560  0.43240  1.0000
  C   C38       1.0  0.28480  0.76440  0.93240  1.0000
  C   C39       1.0  0.78480  0.73560  0.06760  1.0000
  C   C40       1.0  0.71520  0.26440  0.56760  1.0000
  H   H29       1.0  0.17610  0.25760  0.39390  1.0000
  H   H30       1.0  0.32390  0.74240  0.89390  1.0000
  H   H31       1.0  0.82390  0.75760  0.10610  1.0000
  H   H32       1.0  0.67610  0.24240  0.60610  1.0000
  C   C41       1.0  0.28510  0.27380  0.48020  1.0000
  C   C42       1.0  0.21490  0.72620  0.98020  1.0000
  C   C43       1.0  0.71490  0.77380  0.01980  1.0000
  C   C44       1.0  0.78510  0.22620  0.51980  1.0000
  H   H33       1.0  0.29330  0.32190  0.47410  1.0000
  H   H34       1.0  0.20670  0.67810  0.97410  1.0000
  H   H35       1.0  0.70670  0.82190  0.02590  1.0000
  H   H36       1.0  0.79330  0.17810  0.52590  1.0000
  C   C45       1.0  0.34440  0.24270  0.53780  1.0000
  C   C46       1.0  0.15560  0.75730  0.03780  1.0000
  C   C47       1.0  0.65560  0.74270  0.96220  1.0000
  C   C48       1.0  0.84440  0.25730  0.46220  1.0000
  H   H37       1.0  0.39060  0.26960  0.57070  1.0000
  H   H38       1.0  0.10940  0.73040  0.07070  1.0000
  H   H39       1.0  0.60940  0.76960  0.92930  1.0000
  H   H40       1.0  0.89060  0.23040  0.42930  1.0000
