data_image0
_chemical_formula_structural       U2P4F2O6H2O6H2O4C4H2C4H2C2H2C2H2
_chemical_formula_sum              "U2 P4 F2 O16 H12 C12"
_cell_length_a       9.7194
_cell_length_b       10.3787
_cell_length_c       10.4643
_cell_angle_alpha    110.067
_cell_angle_beta     103.971
_cell_angle_gamma    105.105

_space_group_name_H-M_alt    "P 1"
_space_group_IT_number       1

loop_
  _space_group_symop_operation_xyz
  'x, y, z'

loop_
  _atom_site_type_symbol
  _atom_site_label
  _atom_site_symmetry_multiplicity
  _atom_site_fract_x
  _atom_site_fract_y
  _atom_site_fract_z
  _atom_site_occupancy
  U   U1        1.0  0.72171  0.57242  0.03623  1.0000
  U   U2        1.0  0.27829  0.42758  0.96377  1.0000
  P   P1        1.0  0.88080  0.27660  0.94440  1.0000
  P   P2        1.0  0.11920  0.72340  0.05560  1.0000
  P   P3        1.0  0.90450  0.96000  0.27830  1.0000
  P   P4        1.0  0.09550  0.04000  0.72170  1.0000
  F   F1        1.0  0.50730  0.63010  0.05260  1.0000
  F   F2        1.0  0.49270  0.36990  0.94740  1.0000
  O   O1        1.0  0.76460  0.35200  0.94710  1.0000
  O   O2        1.0  0.23540  0.64800  0.05290  1.0000
  O   O3        1.0  0.01720  0.35520  0.91390  1.0000
  O   O4        1.0  0.98280  0.64480  0.08610  1.0000
  O   O5        1.0  0.79730  0.11460  0.82220  1.0000
  O   O6        1.0  0.20270  0.88540  0.17780  1.0000
  H   H1        1.0  0.86050  0.08280  0.79840  1.0000
  H   H2        1.0  0.13950  0.91720  0.20160  1.0000
  O   O7        1.0  0.80880  0.83400  0.12800  1.0000
  O   O8        1.0  0.19120  0.16600  0.87200  1.0000
  O   O9        1.0  0.05660  0.95340  0.35190  1.0000
  O   O10       1.0  0.94340  0.04660  0.64810  1.0000
  O   O11       1.0  0.80880  0.97140  0.37820  1.0000
  O   O12       1.0  0.19120  0.02860  0.62180  1.0000
  H   H3        1.0  0.86650  0.01570  0.46410  1.0000
  H   H4        1.0  0.13350  0.98430  0.53590  1.0000
  O   O13       1.0  0.68250  0.56770  0.85740  1.0000
  O   O14       1.0  0.31750  0.43230  0.14260  1.0000
  O   O15       1.0  0.76190  0.57700  0.20800  1.0000
  O   O16       1.0  0.23810  0.42300  0.79200  1.0000
  C   C1        1.0  0.94200  0.26900  0.11500  1.0000
  C   C2        1.0  0.05800  0.73100  0.88500  1.0000
  C   C3        1.0  0.90900  0.13300  0.12400  1.0000
  C   C4        1.0  0.09100  0.86700  0.87600  1.0000
  H   H5        1.0  0.86240  0.04400  0.03990  1.0000
  H   H6        1.0  0.13760  0.95600  0.96010  1.0000
  C   C5        1.0  0.94700  0.13200  0.26200  1.0000
  C   C6        1.0  0.05300  0.86800  0.73800  1.0000
  C   C7        1.0  0.02400  0.26400  0.38400  1.0000
  C   C8        1.0  0.97600  0.73600  0.61600  1.0000
  H   H7        1.0  0.05200  0.26280  0.47540  1.0000
  H   H8        1.0  0.94800  0.73720  0.52460  1.0000
  C   C9        1.0  0.06300  0.39800  0.37600  1.0000
  C   C10       1.0  0.93700  0.60200  0.62400  1.0000
  H   H9        1.0  0.11560  0.48620  0.46090  1.0000
  H   H10       1.0  0.88440  0.51380  0.53910  1.0000
  C   C11       1.0  0.02000  0.39800  0.23900  1.0000
  C   C12       1.0  0.98000  0.60200  0.76100  1.0000
  H   H11       1.0  0.04450  0.48770  0.23180  1.0000
  H   H12       1.0  0.95550  0.51230  0.76820  1.0000
