data_image0
_chemical_formula_structural       Rb4O12H8O20H8N8H8N8H8N8C24
_chemical_formula_sum              "Rb4 O32 H32 N24 C24"
_cell_length_a       6.82
_cell_length_b       16.457
_cell_length_c       11.767
_cell_angle_alpha    90
_cell_angle_beta     90
_cell_angle_gamma    90

_space_group_name_H-M_alt    "P 1"
_space_group_IT_number       1

loop_
  _space_group_symop_operation_xyz
  'x, y, z'

loop_
  _atom_site_type_symbol
  _atom_site_label
  _atom_site_symmetry_multiplicity
  _atom_site_fract_x
  _atom_site_fract_y
  _atom_site_fract_z
  _atom_site_occupancy
  Rb  Rb1       1.0  0.81371  0.25000  0.62253  1.0000
  Rb  Rb2       1.0  0.68629  0.75000  0.12253  1.0000
  Rb  Rb3       1.0  0.31371  0.25000  0.87747  1.0000
  Rb  Rb4       1.0  0.18629  0.75000  0.37747  1.0000
  O   O1        1.0  0.14950  0.13383  0.69760  1.0000
  O   O2        1.0  0.35050  0.86617  0.19760  1.0000
  O   O3        1.0  0.64950  0.36617  0.80240  1.0000
  O   O4        1.0  0.85050  0.63383  0.30240  1.0000
  O   O5        1.0  0.85050  0.86617  0.30240  1.0000
  O   O6        1.0  0.64950  0.13383  0.80240  1.0000
  O   O7        1.0  0.35050  0.63383  0.19760  1.0000
  O   O8        1.0  0.14950  0.36617  0.69760  1.0000
  O   O9        1.0  0.39010  0.25000  0.58460  1.0000
  O   O10       1.0  0.10990  0.75000  0.08460  1.0000
  O   O11       1.0  0.89010  0.25000  0.91540  1.0000
  O   O12       1.0  0.60990  0.75000  0.41540  1.0000
  H   H1        1.0  0.31020  0.28870  0.59300  1.0000
  H   H2        1.0  0.18980  0.71130  0.09300  1.0000
  H   H3        1.0  0.81020  0.21130  0.90700  1.0000
  H   H4        1.0  0.68980  0.78870  0.40700  1.0000
  H   H5        1.0  0.68980  0.71130  0.40700  1.0000
  H   H6        1.0  0.81020  0.28870  0.90700  1.0000
  H   H7        1.0  0.18980  0.78870  0.09300  1.0000
  H   H8        1.0  0.31020  0.21130  0.59300  1.0000
  O   O13       1.0  0.28980  0.90460  0.50000  1.0000
  O   O14       1.0  0.21020  0.09540  0.00000  1.0000
  O   O15       1.0  0.78980  0.59540  0.00000  1.0000
  O   O16       1.0  0.71020  0.40460  0.50000  1.0000
  O   O17       1.0  0.71020  0.09540  0.50000  1.0000
  O   O18       1.0  0.78980  0.90460  0.00000  1.0000
  O   O19       1.0  0.21020  0.40460  0.00000  1.0000
  O   O20       1.0  0.28980  0.59540  0.50000  1.0000
  O   O21       1.0  0.29190  0.90070  0.88440  1.0000
  O   O22       1.0  0.20810  0.09930  0.38440  1.0000
  O   O23       1.0  0.79190  0.59930  0.61560  1.0000
  O   O24       1.0  0.70810  0.40070  0.11560  1.0000
  O   O25       1.0  0.70810  0.09930  0.11560  1.0000
  O   O26       1.0  0.79190  0.90070  0.61560  1.0000
  O   O27       1.0  0.20810  0.40070  0.38440  1.0000
  O   O28       1.0  0.29190  0.59930  0.88440  1.0000
  O   O29       1.0  0.99340  0.25000  0.40460  1.0000
  O   O30       1.0  0.50660  0.75000  0.90460  1.0000
  O   O31       1.0  0.49340  0.25000  0.09540  1.0000
  O   O32       1.0  0.00660  0.75000  0.59540  1.0000
  H   H9        1.0  0.07640  0.21290  0.39500  1.0000
  H   H10       1.0  0.42360  0.78710  0.89500  1.0000
  H   H11       1.0  0.57640  0.28710  0.10500  1.0000
  H   H12       1.0  0.92360  0.71290  0.60500  1.0000
  H   H13       1.0  0.92360  0.78710  0.60500  1.0000
  H   H14       1.0  0.57640  0.21290  0.10500  1.0000
  H   H15       1.0  0.42360  0.71290  0.89500  1.0000
  H   H16       1.0  0.07640  0.28710  0.39500  1.0000
  N   N1        1.0  0.21290  0.01570  0.79130  1.0000
  N   N2        1.0  0.28710  0.98430  0.29130  1.0000
  N   N3        1.0  0.71290  0.48430  0.70870  1.0000
  N   N4        1.0  0.78710  0.51570  0.20870  1.0000
  N   N5        1.0  0.78710  0.98430  0.20870  1.0000
  N   N6        1.0  0.71290  0.01570  0.70870  1.0000
  N   N7        1.0  0.28710  0.51570  0.29130  1.0000
  N   N8        1.0  0.21290  0.48430  0.79130  1.0000
  H   H17       1.0  0.20270  0.04220  0.85230  1.0000
  H   H18       1.0  0.29730  0.95780  0.35230  1.0000
  H   H19       1.0  0.70270  0.45780  0.64770  1.0000
  H   H20       1.0  0.79730  0.54220  0.14770  1.0000
  H   H21       1.0  0.79730  0.95780  0.14770  1.0000
  H   H22       1.0  0.70270  0.04220  0.64770  1.0000
  H   H23       1.0  0.29730  0.54220  0.35230  1.0000
  H   H24       1.0  0.20270  0.45780  0.85230  1.0000
  N   N9        1.0  0.21710  0.01890  0.59740  1.0000
  N   N10       1.0  0.28290  0.98110  0.09740  1.0000
  N   N11       1.0  0.71710  0.48110  0.90260  1.0000
  N   N12       1.0  0.78290  0.51890  0.40260  1.0000
  N   N13       1.0  0.78290  0.98110  0.40260  1.0000
  N   N14       1.0  0.71710  0.01890  0.90260  1.0000
  N   N15       1.0  0.28290  0.51890  0.09740  1.0000
  N   N16       1.0  0.21710  0.48110  0.59740  1.0000
  H   H25       1.0  0.20960  0.04650  0.53740  1.0000
  H   H26       1.0  0.29040  0.95350  0.03740  1.0000
  H   H27       1.0  0.70960  0.45350  0.96260  1.0000
  H   H28       1.0  0.79040  0.54650  0.46260  1.0000
  H   H29       1.0  0.79040  0.95350  0.46260  1.0000
  H   H30       1.0  0.70960  0.04650  0.96260  1.0000
  H   H31       1.0  0.29040  0.54650  0.03740  1.0000
  H   H32       1.0  0.20960  0.45350  0.53740  1.0000
  N   N17       1.0  0.29080  0.89610  0.69150  1.0000
  N   N18       1.0  0.20920  0.10390  0.19150  1.0000
  N   N19       1.0  0.79080  0.60390  0.80850  1.0000
  N   N20       1.0  0.70920  0.39610  0.30850  1.0000
  N   N21       1.0  0.70920  0.10390  0.30850  1.0000
  N   N22       1.0  0.79080  0.89610  0.80850  1.0000
  N   N23       1.0  0.20920  0.39610  0.19150  1.0000
  N   N24       1.0  0.29080  0.60390  0.69150  1.0000
  C   C1        1.0  0.19050  0.06130  0.69550  1.0000
  C   C2        1.0  0.30950  0.93870  0.19550  1.0000
  C   C3        1.0  0.69050  0.43870  0.80450  1.0000
  C   C4        1.0  0.80950  0.56130  0.30450  1.0000
  C   C5        1.0  0.80950  0.93870  0.30450  1.0000
  C   C6        1.0  0.69050  0.06130  0.80450  1.0000
  C   C7        1.0  0.30950  0.56130  0.19550  1.0000
  C   C8        1.0  0.19050  0.43870  0.69550  1.0000
  C   C9        1.0  0.26640  0.93680  0.59430  1.0000
  C   C10       1.0  0.23360  0.06320  0.09430  1.0000
  C   C11       1.0  0.76640  0.56320  0.90570  1.0000
  C   C12       1.0  0.73360  0.43680  0.40570  1.0000
  C   C13       1.0  0.73360  0.06320  0.40570  1.0000
  C   C14       1.0  0.76640  0.93680  0.90570  1.0000
  C   C15       1.0  0.23360  0.43680  0.09430  1.0000
  C   C16       1.0  0.26640  0.56320  0.59430  1.0000
  C   C17       1.0  0.26670  0.93520  0.79140  1.0000
  C   C18       1.0  0.23330  0.06480  0.29140  1.0000
  C   C19       1.0  0.76670  0.56480  0.70860  1.0000
  C   C20       1.0  0.73330  0.43520  0.20860  1.0000
  C   C21       1.0  0.73330  0.06480  0.20860  1.0000
  C   C22       1.0  0.76670  0.93520  0.70860  1.0000
  C   C23       1.0  0.23330  0.43520  0.29140  1.0000
  C   C24       1.0  0.26670  0.56480  0.79140  1.0000
