data_image0
_chemical_formula_structural       N4C4N8C4N4C24Co6N32
_chemical_formula_sum              "N48 C32 Co6"
_cell_length_a       7.358
_cell_length_b       15.994
_cell_length_c       15.249
_cell_angle_alpha    90
_cell_angle_beta     96.48
_cell_angle_gamma    90

_space_group_name_H-M_alt    "P 1"
_space_group_IT_number       1

loop_
  _space_group_symop_operation_xyz
  'x, y, z'

loop_
  _atom_site_type_symbol
  _atom_site_label
  _atom_site_symmetry_multiplicity
  _atom_site_fract_x
  _atom_site_fract_y
  _atom_site_fract_z
  _atom_site_occupancy
  N   N1        1.0  0.60200  0.27435  0.16948  1.0000
  N   N2        1.0  0.89800  0.77435  0.33052  1.0000
  N   N3        1.0  0.39800  0.72565  0.83052  1.0000
  N   N4        1.0  0.10200  0.22565  0.66948  1.0000
  C   C1        1.0  0.54600  0.31521  0.11167  1.0000
  C   C2        1.0  0.95400  0.81521  0.38833  1.0000
  C   C3        1.0  0.45400  0.68479  0.88833  1.0000
  C   C4        1.0  0.04600  0.18479  0.61167  1.0000
  N   N5        1.0  0.00660  0.73670  0.15155  1.0000
  N   N6        1.0  0.49340  0.23670  0.34845  1.0000
  N   N7        1.0  0.99340  0.26330  0.84845  1.0000
  N   N8        1.0  0.50660  0.76330  0.65155  1.0000
  N   N9        1.0  0.80490  0.41542  0.53503  1.0000
  N   N10       1.0  0.69510  0.91542  0.96497  1.0000
  N   N11       1.0  0.19510  0.58458  0.46497  1.0000
  N   N12       1.0  0.30490  0.08458  0.03503  1.0000
  C   C5        1.0  0.73410  0.36283  0.56821  1.0000
  C   C6        1.0  0.76590  0.86283  0.93179  1.0000
  C   C7        1.0  0.26590  0.63717  0.43179  1.0000
  C   C8        1.0  0.23410  0.13717  0.06821  1.0000
  N   N13       1.0  0.37550  0.90420  0.76070  1.0000
  N   N14       1.0  0.12450  0.40420  0.73930  1.0000
  N   N15       1.0  0.62450  0.09580  0.23930  1.0000
  N   N16       1.0  0.87550  0.59580  0.26070  1.0000
  C   C9        1.0  0.39120  0.96152  0.80434  1.0000
  C   C10       1.0  0.10880  0.46152  0.69566  1.0000
  C   C11       1.0  0.60880  0.03848  0.19566  1.0000
  C   C12       1.0  0.89120  0.53848  0.30434  1.0000
  C   C13       1.0  0.10100  0.75222  0.09910  1.0000
  C   C14       1.0  0.39900  0.25222  0.40090  1.0000
  C   C15       1.0  0.89900  0.24778  0.90090  1.0000
  C   C16       1.0  0.60100  0.74778  0.59910  1.0000
  C   C17       1.0  0.26640  0.83451  0.01961  1.0000
  C   C18       1.0  0.23360  0.33451  0.48039  1.0000
  C   C19       1.0  0.73360  0.16549  0.98039  1.0000
  C   C20       1.0  0.76640  0.66549  0.51961  1.0000
  C   C21       1.0  0.36870  0.09957  0.83644  1.0000
  C   C22       1.0  0.13130  0.59957  0.66356  1.0000
  C   C23       1.0  0.63130  0.90043  0.16356  1.0000
  C   C24       1.0  0.86870  0.40043  0.33644  1.0000
  C   C25       1.0  0.55480  0.30686  0.66350  1.0000
  C   C26       1.0  0.94520  0.80686  0.83650  1.0000
  C   C27       1.0  0.44520  0.69314  0.33650  1.0000
  C   C28       1.0  0.05480  0.19314  0.16350  1.0000
  C   C29       1.0  0.41490  0.34907  0.97385  1.0000
  C   C30       1.0  0.08510  0.84907  0.52615  1.0000
  C   C31       1.0  0.58510  0.65093  0.02615  1.0000
  C   C32       1.0  0.91490  0.15093  0.47385  1.0000
  Co  Co1       1.0  0.22572  0.28622  0.78409  1.0000
  Co  Co2       1.0  0.27428  0.78622  0.71591  1.0000
  Co  Co3       1.0  0.77428  0.71378  0.21591  1.0000
  Co  Co4       1.0  0.72572  0.21378  0.28409  1.0000
  Co  Co5       1.0  0.50000  0.00000  0.00000  1.0000
  Co  Co6       1.0  0.00000  0.50000  0.50000  1.0000
  N   N17       1.0  0.33070  0.16711  0.82147  1.0000
  N   N18       1.0  0.16930  0.66711  0.67853  1.0000
  N   N19       1.0  0.66930  0.83289  0.17853  1.0000
  N   N20       1.0  0.83070  0.33289  0.32147  1.0000
  N   N21       1.0  0.41940  0.02332  0.86134  1.0000
  N   N22       1.0  0.08060  0.52332  0.63866  1.0000
  N   N23       1.0  0.58060  0.97668  0.13866  1.0000
  N   N24       1.0  0.91940  0.47668  0.36134  1.0000
  N   N25       1.0  0.32320  0.89750  0.99950  1.0000
  N   N26       1.0  0.17680  0.39750  0.50050  1.0000
  N   N27       1.0  0.67680  0.10250  0.00050  1.0000
  N   N28       1.0  0.82320  0.60250  0.49950  1.0000
  N   N29       1.0  0.21020  0.76033  0.03842  1.0000
  N   N30       1.0  0.28980  0.26033  0.46158  1.0000
  N   N31       1.0  0.78980  0.23967  0.96158  1.0000
  N   N32       1.0  0.71020  0.73967  0.53842  1.0000
  N   N33       1.0  0.46140  0.30610  0.71846  1.0000
  N   N34       1.0  0.03860  0.80610  0.78154  1.0000
  N   N35       1.0  0.53860  0.69390  0.28154  1.0000
  N   N36       1.0  0.96140  0.19390  0.21846  1.0000
  N   N37       1.0  0.66020  0.29791  0.60144  1.0000
  N   N38       1.0  0.83980  0.79791  0.89856  1.0000
  N   N39       1.0  0.33980  0.70209  0.39856  1.0000
  N   N40       1.0  0.16020  0.20209  0.10144  1.0000
  N   N41       1.0  0.35190  0.33896  0.90248  1.0000
  N   N42       1.0  0.14810  0.83896  0.59752  1.0000
  N   N43       1.0  0.64810  0.66104  0.09752  1.0000
  N   N44       1.0  0.85190  0.16104  0.40248  1.0000
  N   N45       1.0  0.48610  0.37046  0.05258  1.0000
  N   N46       1.0  0.01390  0.87046  0.44742  1.0000
  N   N47       1.0  0.51390  0.62954  0.94742  1.0000
  N   N48       1.0  0.98610  0.12954  0.55258  1.0000
