data_image0
_chemical_formula_structural       C32N48Ni6
_chemical_formula_sum              "C32 N48 Ni6"
_cell_length_a       7.432
_cell_length_b       15.917
_cell_length_c       15.136
_cell_angle_alpha    90
_cell_angle_beta     96.096
_cell_angle_gamma    90

_space_group_name_H-M_alt    "P 1"
_space_group_IT_number       1

loop_
  _space_group_symop_operation_xyz
  'x, y, z'

loop_
  _atom_site_type_symbol
  _atom_site_label
  _atom_site_symmetry_multiplicity
  _atom_site_fract_x
  _atom_site_fract_y
  _atom_site_fract_z
  _atom_site_occupancy
  C   C1        1.0  0.38870  0.45920  0.80500  1.0000
  C   C2        1.0  0.11130  0.95920  0.69500  1.0000
  C   C3        1.0  0.61130  0.54080  0.19500  1.0000
  C   C4        1.0  0.88870  0.04080  0.30500  1.0000
  C   C5        1.0  0.55330  0.80530  0.66240  1.0000
  C   C6        1.0  0.94670  0.30530  0.83760  1.0000
  C   C7        1.0  0.44670  0.19470  0.33760  1.0000
  C   C8        1.0  0.05330  0.69470  0.16240  1.0000
  C   C9        1.0  0.54420  0.81530  0.11130  1.0000
  C   C10       1.0  0.95580  0.31530  0.38870  1.0000
  C   C11       1.0  0.45580  0.18470  0.88870  1.0000
  C   C12       1.0  0.04420  0.68470  0.61130  1.0000
  C   C13       1.0  0.41340  0.84750  0.97200  1.0000
  C   C14       1.0  0.08660  0.34750  0.52800  1.0000
  C   C15       1.0  0.58660  0.15250  0.02800  1.0000
  C   C16       1.0  0.91340  0.65250  0.47200  1.0000
  C   C17       1.0  0.36610  0.59890  0.83620  1.0000
  C   C18       1.0  0.13390  0.09890  0.66380  1.0000
  C   C19       1.0  0.63390  0.40110  0.16380  1.0000
  C   C20       1.0  0.86610  0.90110  0.33620  1.0000
  C   C21       1.0  0.73730  0.86340  0.56780  1.0000
  C   C22       1.0  0.76270  0.36340  0.93220  1.0000
  C   C23       1.0  0.26270  0.13660  0.43220  1.0000
  C   C24       1.0  0.23730  0.63660  0.06780  1.0000
  C   C25       1.0  0.73200  0.66380  0.97930  1.0000
  C   C26       1.0  0.76800  0.16380  0.52070  1.0000
  C   C27       1.0  0.26800  0.33620  0.02070  1.0000
  C   C28       1.0  0.23200  0.83620  0.47930  1.0000
  C   C29       1.0  0.90380  0.74690  0.90060  1.0000
  C   C30       1.0  0.59620  0.24690  0.59940  1.0000
  C   C31       1.0  0.09620  0.25310  0.09940  1.0000
  C   C32       1.0  0.40380  0.75310  0.40060  1.0000
  N   N1        1.0  0.41940  0.52246  0.86202  1.0000
  N   N2        1.0  0.08060  0.02246  0.63798  1.0000
  N   N3        1.0  0.58060  0.47754  0.13798  1.0000
  N   N4        1.0  0.91940  0.97754  0.36202  1.0000
  N   N5        1.0  0.32830  0.66655  0.82097  1.0000
  N   N6        1.0  0.17170  0.16655  0.67903  1.0000
  N   N7        1.0  0.67170  0.33345  0.17903  1.0000
  N   N8        1.0  0.82830  0.83345  0.32097  1.0000
  N   N9        1.0  0.00110  0.76262  0.84880  1.0000
  N   N10       1.0  0.49890  0.26262  0.65120  1.0000
  N   N11       1.0  0.99890  0.23738  0.15120  1.0000
  N   N12       1.0  0.50110  0.73738  0.34880  1.0000
  N   N13       1.0  0.35150  0.83657  0.90031  1.0000
  N   N14       1.0  0.14850  0.33657  0.59969  1.0000
  N   N15       1.0  0.64850  0.16343  0.09969  1.0000
  N   N16       1.0  0.85150  0.66343  0.40031  1.0000
  N   N17       1.0  0.48250  0.87031  0.05164  1.0000
  N   N18       1.0  0.01750  0.37031  0.44836  1.0000
  N   N19       1.0  0.51750  0.12969  0.94836  1.0000
  N   N20       1.0  0.98250  0.62969  0.55164  1.0000
  N   N21       1.0  0.37100  0.40065  0.76140  1.0000
  N   N22       1.0  0.12900  0.90065  0.73860  1.0000
  N   N23       1.0  0.62900  0.59935  0.23860  1.0000
  N   N24       1.0  0.87100  0.09935  0.26140  1.0000
  N   N25       1.0  0.45700  0.80380  0.71660  1.0000
  N   N26       1.0  0.04300  0.30380  0.78340  1.0000
  N   N27       1.0  0.54300  0.19620  0.28340  1.0000
  N   N28       1.0  0.95700  0.69620  0.21660  1.0000
  N   N29       1.0  0.66180  0.79720  0.60020  1.0000
  N   N30       1.0  0.83820  0.29720  0.89980  1.0000
  N   N31       1.0  0.33820  0.20280  0.39980  1.0000
  N   N32       1.0  0.16180  0.70280  0.10020  1.0000
  N   N33       1.0  0.60520  0.77438  0.17018  1.0000
  N   N34       1.0  0.89480  0.27438  0.32982  1.0000
  N   N35       1.0  0.39480  0.22562  0.82982  1.0000
  N   N36       1.0  0.10520  0.72562  0.67018  1.0000
  N   N37       1.0  0.80900  0.91668  0.53468  1.0000
  N   N38       1.0  0.69100  0.41668  0.96532  1.0000
  N   N39       1.0  0.19100  0.08332  0.46532  1.0000
  N   N40       1.0  0.30900  0.58332  0.03468  1.0000
  N   N41       1.0  0.67440  0.60059  0.99929  1.0000
  N   N42       1.0  0.82560  0.10059  0.50071  1.0000
  N   N43       1.0  0.32560  0.39941  0.00071  1.0000
  N   N44       1.0  0.17440  0.89941  0.49929  1.0000
  N   N45       1.0  0.79020  0.73885  0.96120  1.0000
  N   N46       1.0  0.70980  0.23885  0.53880  1.0000
  N   N47       1.0  0.20980  0.26115  0.03880  1.0000
  N   N48       1.0  0.29020  0.76115  0.46120  1.0000
  Ni  Ni1       1.0  0.22716  0.78446  0.78313  1.0000
  Ni  Ni2       1.0  0.27284  0.28446  0.71687  1.0000
  Ni  Ni3       1.0  0.77284  0.21554  0.21687  1.0000
  Ni  Ni4       1.0  0.72716  0.71554  0.28313  1.0000
  Ni  Ni5       1.0  0.50000  0.50000  0.00000  1.0000
  Ni  Ni6       1.0  0.00000  0.00000  0.50000  1.0000
