data_image0
_chemical_formula_structural       C4Cu4N8C16H4C8H4N8C4H4C8H4C8
_chemical_formula_sum              "C48 Cu4 N16 H16"
_cell_length_a       12.5255
_cell_length_b       8.1701
_cell_length_c       20.9474
_cell_angle_alpha    90
_cell_angle_beta     96.835
_cell_angle_gamma    90

_space_group_name_H-M_alt    "P 1"
_space_group_IT_number       1

loop_
  _space_group_symop_operation_xyz
  'x, y, z'

loop_
  _atom_site_type_symbol
  _atom_site_label
  _atom_site_symmetry_multiplicity
  _atom_site_fract_x
  _atom_site_fract_y
  _atom_site_fract_z
  _atom_site_occupancy
  C   C1        1.0  0.66530  0.57140  0.83320  1.0000
  C   C2        1.0  0.83470  0.07140  0.66680  1.0000
  C   C3        1.0  0.33470  0.42860  0.16680  1.0000
  C   C4        1.0  0.16530  0.92860  0.33320  1.0000
  Cu  Cu1       1.0  0.99885  0.14147  0.24513  1.0000
  Cu  Cu2       1.0  0.50115  0.64147  0.25487  1.0000
  Cu  Cu3       1.0  0.00115  0.85853  0.75487  1.0000
  Cu  Cu4       1.0  0.49885  0.35853  0.74513  1.0000
  N   N1        1.0  0.90310  0.74930  0.80720  1.0000
  N   N2        1.0  0.59690  0.24930  0.69280  1.0000
  N   N3        1.0  0.09690  0.25070  0.19280  1.0000
  N   N4        1.0  0.40310  0.75070  0.30720  1.0000
  N   N5        1.0  0.59460  0.50690  0.80270  1.0000
  N   N6        1.0  0.90540  0.00690  0.69730  1.0000
  N   N7        1.0  0.40540  0.49310  0.19730  1.0000
  N   N8        1.0  0.09460  0.99310  0.30270  1.0000
  C   C5        1.0  0.75020  0.65410  0.86920  1.0000
  C   C6        1.0  0.74980  0.15410  0.63080  1.0000
  C   C7        1.0  0.24980  0.34590  0.13080  1.0000
  C   C8        1.0  0.25020  0.84590  0.36920  1.0000
  C   C9        1.0  0.73870  0.79550  0.06670  1.0000
  C   C10       1.0  0.76130  0.29550  0.43330  1.0000
  C   C11       1.0  0.26130  0.20450  0.93330  1.0000
  C   C12       1.0  0.23870  0.70450  0.56670  1.0000
  C   C13       1.0  0.81210  0.94960  0.16540  1.0000
  C   C14       1.0  0.68790  0.44960  0.33460  1.0000
  C   C15       1.0  0.18790  0.05040  0.83460  1.0000
  C   C16       1.0  0.31210  0.55040  0.66540  1.0000
  C   C17       1.0  0.83020  0.79100  0.97060  1.0000
  C   C18       1.0  0.66980  0.29100  0.52940  1.0000
  C   C19       1.0  0.16980  0.20900  0.02940  1.0000
  C   C20       1.0  0.33020  0.70900  0.47060  1.0000
  H   H1        1.0  0.88940  0.82410  0.94930  1.0000
  H   H2        1.0  0.61060  0.32410  0.55070  1.0000
  H   H3        1.0  0.11060  0.17590  0.05070  1.0000
  H   H4        1.0  0.38940  0.67590  0.44930  1.0000
  C   C21       1.0  0.73240  0.84910  0.13300  1.0000
  C   C22       1.0  0.76760  0.34910  0.36700  1.0000
  C   C23       1.0  0.26760  0.15090  0.86700  1.0000
  C   C24       1.0  0.23240  0.65090  0.63300  1.0000
  C   C25       1.0  0.66190  0.64890  0.97090  1.0000
  C   C26       1.0  0.83810  0.14890  0.52910  1.0000
  C   C27       1.0  0.33810  0.35110  0.02910  1.0000
  C   C28       1.0  0.16190  0.85110  0.47090  1.0000
  H   H5        1.0  0.60550  0.58370  0.94990  1.0000
  H   H6        1.0  0.89450  0.08370  0.55010  1.0000
  H   H7        1.0  0.39450  0.41630  0.05010  1.0000
  H   H8        1.0  0.10550  0.91630  0.44990  1.0000
  N   N9        1.0  0.88070  0.02910  0.19240  1.0000
  N   N10       1.0  0.61930  0.52910  0.30760  1.0000
  N   N11       1.0  0.11930  0.97090  0.80760  1.0000
  N   N12       1.0  0.38070  0.47090  0.69240  1.0000
  N   N13       1.0  0.57310  0.78500  0.19460  1.0000
  N   N14       1.0  0.92690  0.28500  0.30540  1.0000
  N   N15       1.0  0.42690  0.21500  0.80540  1.0000
  N   N16       1.0  0.07310  0.71500  0.69460  1.0000
  C   C29       1.0  0.82560  0.83790  0.03400  1.0000
  C   C30       1.0  0.67440  0.33790  0.46600  1.0000
  C   C31       1.0  0.17440  0.16210  0.96600  1.0000
  C   C32       1.0  0.32560  0.66210  0.53400  1.0000
  H   H9        1.0  0.88300  0.90020  0.05560  1.0000
  H   H10       1.0  0.61700  0.40020  0.44440  1.0000
  H   H11       1.0  0.11700  0.09980  0.94440  1.0000
  H   H12       1.0  0.38300  0.59980  0.55560  1.0000
  C   C33       1.0  0.64560  0.81520  0.16610  1.0000
  C   C34       1.0  0.85440  0.31520  0.33390  1.0000
  C   C35       1.0  0.35440  0.18480  0.83390  1.0000
  C   C36       1.0  0.14560  0.68480  0.66610  1.0000
  C   C37       1.0  0.65780  0.69730  0.03410  1.0000
  C   C38       1.0  0.84220  0.19730  0.46590  1.0000
  C   C39       1.0  0.34220  0.30270  0.96590  1.0000
  C   C40       1.0  0.15780  0.80270  0.53410  1.0000
  H   H13       1.0  0.59910  0.66340  0.05570  1.0000
  H   H14       1.0  0.90090  0.16340  0.44430  1.0000
  H   H15       1.0  0.40090  0.33660  0.94430  1.0000
  H   H16       1.0  0.09910  0.83660  0.55570  1.0000
  C   C41       1.0  0.74790  0.69480  0.93750  1.0000
  C   C42       1.0  0.75210  0.19480  0.56250  1.0000
  C   C43       1.0  0.25210  0.30520  0.06250  1.0000
  C   C44       1.0  0.24790  0.80520  0.43750  1.0000
  C   C45       1.0  0.83260  0.70530  0.83520  1.0000
  C   C46       1.0  0.66740  0.20530  0.66480  1.0000
  C   C47       1.0  0.16740  0.29470  0.16480  1.0000
  C   C48       1.0  0.33260  0.79470  0.33520  1.0000
