data_image0
_chemical_formula_structural       Cu6F24C12N6C24N6C12N12C24
_chemical_formula_sum              "Cu6 F24 C72 N24"
_cell_length_a       13.031
_cell_length_b       13.031
_cell_length_c       20.0681
_cell_angle_alpha    90
_cell_angle_beta     90
_cell_angle_gamma    120

_space_group_name_H-M_alt    "P 1"
_space_group_IT_number       1

loop_
  _space_group_symop_operation_xyz
  'x, y, z'

loop_
  _atom_site_type_symbol
  _atom_site_label
  _atom_site_symmetry_multiplicity
  _atom_site_fract_x
  _atom_site_fract_y
  _atom_site_fract_z
  _atom_site_occupancy
  Cu  Cu1       1.0  0.55389  0.00000  0.16670  1.0000
  Cu  Cu2       1.0  1.00000  0.55389  0.83337  1.0000
  Cu  Cu3       1.0  0.44611  0.44611  0.50003  1.0000
  Cu  Cu4       1.0  0.05867  0.00000  0.16670  1.0000
  Cu  Cu5       1.0  0.00000  0.05867  0.83337  1.0000
  Cu  Cu6       1.0  0.94133  0.94133  0.50003  1.0000
  F   F1        1.0  0.68770  0.39860  0.13078  1.0000
  F   F2        1.0  0.60140  0.28910  0.79745  1.0000
  F   F3        1.0  0.39860  0.68770  0.86922  1.0000
  F   F4        1.0  0.71090  0.31230  0.46411  1.0000
  F   F5        1.0  0.31230  0.71090  0.53589  1.0000
  F   F6        1.0  0.28910  0.60140  0.20255  1.0000
  F   F7        1.0  0.33320  0.39130  0.06996  1.0000
  F   F8        1.0  0.60870  0.94190  0.73663  1.0000
  F   F9        1.0  0.39130  0.33320  0.93004  1.0000
  F   F10       1.0  0.05810  0.66680  0.40329  1.0000
  F   F11       1.0  0.66680  0.05810  0.59671  1.0000
  F   F12       1.0  0.94190  0.60870  0.26337  1.0000
  F   F13       1.0  0.45060  0.62410  0.06168  1.0000
  F   F14       1.0  0.37590  0.82650  0.72835  1.0000
  F   F15       1.0  0.62410  0.45060  0.93832  1.0000
  F   F16       1.0  0.17350  0.54940  0.39501  1.0000
  F   F17       1.0  0.54940  0.17350  0.60499  1.0000
  F   F18       1.0  0.82650  0.37590  0.27165  1.0000
  F   F19       1.0  0.80350  0.63060  0.12411  1.0000
  F   F20       1.0  0.36940  0.17290  0.79078  1.0000
  F   F21       1.0  0.63060  0.80350  0.87589  1.0000
  F   F22       1.0  0.82710  0.19650  0.45744  1.0000
  F   F23       1.0  0.19650  0.82710  0.54256  1.0000
  F   F24       1.0  0.17290  0.36940  0.20922  1.0000
  C   C1        1.0  0.45090  0.44790  0.08460  1.0000
  C   C2        1.0  0.55210  0.00300  0.75127  1.0000
  C   C3        1.0  0.44790  0.45090  0.91540  1.0000
  C   C4        1.0  0.99700  0.54910  0.41793  1.0000
  C   C5        1.0  0.54910  0.99700  0.58207  1.0000
  C   C6        1.0  0.00300  0.55210  0.24873  1.0000
  C   C7        1.0  0.63340  0.64060  0.09428  1.0000
  C   C8        1.0  0.35940  0.99280  0.76095  1.0000
  C   C9        1.0  0.64060  0.63340  0.90572  1.0000
  C   C10       1.0  0.00720  0.36660  0.42761  1.0000
  C   C11       1.0  0.36660  0.00720  0.57239  1.0000
  C   C12       1.0  0.99280  0.35940  0.23905  1.0000
  N   N1        1.0  0.59040  0.89150  0.11336  1.0000
  N   N2        1.0  0.10850  0.69890  0.78003  1.0000
  N   N3        1.0  0.89150  0.59040  0.88664  1.0000
  N   N4        1.0  0.30110  0.40960  0.44669  1.0000
  N   N5        1.0  0.40960  0.30110  0.55331  1.0000
  N   N6        1.0  0.69890  0.10850  0.21997  1.0000
  C   C13       1.0  0.50410  0.38230  0.10230  1.0000
  C   C14       1.0  0.61770  0.12180  0.76897  1.0000
  C   C15       1.0  0.38230  0.50410  0.89770  1.0000
  C   C16       1.0  0.87820  0.49590  0.43563  1.0000
  C   C17       1.0  0.49590  0.87820  0.56437  1.0000
  C   C18       1.0  0.12180  0.61770  0.23103  1.0000
  C   C19       1.0  0.51170  0.57010  0.08040  1.0000
  C   C20       1.0  0.42990  0.94160  0.74707  1.0000
  C   C21       1.0  0.57010  0.51170  0.91960  1.0000
  C   C22       1.0  0.05840  0.48830  0.41373  1.0000
  C   C23       1.0  0.48830  0.05840  0.58627  1.0000
  C   C24       1.0  0.94160  0.42990  0.25293  1.0000
  C   C25       1.0  0.63210  0.83250  0.10470  1.0000
  C   C26       1.0  0.16750  0.79960  0.77137  1.0000
  C   C27       1.0  0.83250  0.63210  0.89530  1.0000
  C   C28       1.0  0.20040  0.36790  0.43803  1.0000
  C   C29       1.0  0.36790  0.20040  0.56197  1.0000
  C   C30       1.0  0.79960  0.16750  0.22863  1.0000
  C   C31       1.0  0.81730  0.84410  0.10040  1.0000
  C   C32       1.0  0.15590  0.97320  0.76707  1.0000
  C   C33       1.0  0.84410  0.81730  0.89960  1.0000
  C   C34       1.0  0.02680  0.18270  0.43373  1.0000
  C   C35       1.0  0.18270  0.02680  0.56627  1.0000
  C   C36       1.0  0.97320  0.15590  0.23293  1.0000
  N   N7        1.0  0.52030  0.11390  0.11494  1.0000
  N   N8        1.0  0.88610  0.40640  0.78161  1.0000
  N   N9        1.0  0.11390  0.52030  0.88506  1.0000
  N   N10       1.0  0.59360  0.47970  0.44827  1.0000
  N   N11       1.0  0.47970  0.59360  0.55173  1.0000
  N   N12       1.0  0.40640  0.88610  0.21839  1.0000
  C   C37       1.0  0.62480  0.45190  0.11340  1.0000
  C   C38       1.0  0.54810  0.17290  0.78007  1.0000
  C   C39       1.0  0.45190  0.62480  0.88660  1.0000
  C   C40       1.0  0.82710  0.37520  0.44673  1.0000
  C   C41       1.0  0.37520  0.82710  0.55327  1.0000
  C   C42       1.0  0.17290  0.54810  0.21993  1.0000
  C   C43       1.0  0.43830  0.25400  0.10950  1.0000
  C   C44       1.0  0.74600  0.18430  0.77617  1.0000
  C   C45       1.0  0.25400  0.43830  0.89050  1.0000
  C   C46       1.0  0.81570  0.56170  0.44283  1.0000
  C   C47       1.0  0.56170  0.81570  0.55717  1.0000
  C   C48       1.0  0.18430  0.74600  0.22383  1.0000
  N   N13       1.0  0.21440  0.12610  0.13101  1.0000
  N   N14       1.0  0.87390  0.08830  0.79768  1.0000
  N   N15       1.0  0.12610  0.21440  0.86899  1.0000
  N   N16       1.0  0.91170  0.78560  0.46434  1.0000
  N   N17       1.0  0.78560  0.91170  0.53566  1.0000
  N   N18       1.0  0.08830  0.87390  0.20232  1.0000
  N   N19       1.0  0.91660  0.91180  0.10534  1.0000
  N   N20       1.0  0.08820  0.00480  0.77201  1.0000
  N   N21       1.0  0.91180  0.91660  0.89466  1.0000
  N   N22       1.0  0.99520  0.08340  0.43867  1.0000
  N   N23       1.0  0.08340  0.99520  0.56133  1.0000
  N   N24       1.0  0.00480  0.08820  0.22799  1.0000
  C   C49       1.0  0.48930  0.18200  0.11240  1.0000
  C   C50       1.0  0.81800  0.30730  0.77907  1.0000
  C   C51       1.0  0.18200  0.48930  0.88760  1.0000
  C   C52       1.0  0.69270  0.51070  0.44573  1.0000
  C   C53       1.0  0.51070  0.69270  0.55427  1.0000
  C   C54       1.0  0.30730  0.81800  0.22093  1.0000
  C   C55       1.0  0.31530  0.18910  0.12130  1.0000
  C   C56       1.0  0.81090  0.12620  0.78797  1.0000
  C   C57       1.0  0.18910  0.31530  0.87870  1.0000
  C   C58       1.0  0.87380  0.68470  0.45463  1.0000
  C   C59       1.0  0.68470  0.87380  0.54537  1.0000
  C   C60       1.0  0.12620  0.81090  0.21203  1.0000
  C   C61       1.0  0.69280  0.77010  0.09520  1.0000
  C   C62       1.0  0.22990  0.92270  0.76187  1.0000
  C   C63       1.0  0.77010  0.69280  0.90480  1.0000
  C   C64       1.0  0.07730  0.30720  0.42853  1.0000
  C   C65       1.0  0.30720  0.07730  0.57147  1.0000
  C   C66       1.0  0.92270  0.22990  0.23813  1.0000
  C   C67       1.0  0.68560  0.57360  0.10970  1.0000
  C   C68       1.0  0.42640  0.11200  0.77637  1.0000
  C   C69       1.0  0.57360  0.68560  0.89030  1.0000
  C   C70       1.0  0.88800  0.31440  0.44303  1.0000
  C   C71       1.0  0.31440  0.88800  0.55697  1.0000
  C   C72       1.0  0.11200  0.42640  0.22363  1.0000
