data_image0
_chemical_formula_structural       Mg4O24C12
_chemical_formula_sum              "Mg4 O24 C12"
_cell_length_a       8.292
_cell_length_b       15.688
_cell_length_c       9.38
_cell_angle_alpha    90
_cell_angle_beta     114.8
_cell_angle_gamma    90

_space_group_name_H-M_alt    "P 1"
_space_group_IT_number       1

loop_
  _space_group_symop_operation_xyz
  'x, y, z'

loop_
  _atom_site_type_symbol
  _atom_site_label
  _atom_site_symmetry_multiplicity
  _atom_site_fract_x
  _atom_site_fract_y
  _atom_site_fract_z
  _atom_site_occupancy
  Mg  Mg1       1.0  0.97088  0.16927  0.03405  1.0000
  Mg  Mg2       1.0  0.52912  0.66927  0.46595  1.0000
  Mg  Mg3       1.0  0.02912  0.83073  0.96595  1.0000
  Mg  Mg4       1.0  0.47088  0.33073  0.53405  1.0000
  O   O1        1.0  0.19840  0.31361  0.42610  1.0000
  O   O2        1.0  0.30160  0.81361  0.07390  1.0000
  O   O3        1.0  0.80160  0.68639  0.57390  1.0000
  O   O4        1.0  0.69840  0.18639  0.92610  1.0000
  O   O5        1.0  0.01000  0.91657  0.12590  1.0000
  O   O6        1.0  0.49000  0.41657  0.37410  1.0000
  O   O7        1.0  0.99000  0.08343  0.87410  1.0000
  O   O8        1.0  0.51000  0.58343  0.62590  1.0000
  O   O9        1.0  0.96320  0.05616  0.14460  1.0000
  O   O10       1.0  0.53680  0.55616  0.35540  1.0000
  O   O11       1.0  0.03680  0.94384  0.85540  1.0000
  O   O12       1.0  0.46320  0.44384  0.64460  1.0000
  O   O13       1.0  0.99270  0.24851  0.21680  1.0000
  O   O14       1.0  0.50730  0.74851  0.28320  1.0000
  O   O15       1.0  0.00730  0.75149  0.78320  1.0000
  O   O16       1.0  0.49270  0.25149  0.71680  1.0000
  O   O17       1.0  0.45380  0.23627  0.37100  1.0000
  O   O18       1.0  0.04620  0.73627  0.12900  1.0000
  O   O19       1.0  0.54620  0.76373  0.62900  1.0000
  O   O20       1.0  0.95380  0.26373  0.87100  1.0000
  O   O21       1.0  0.24600  0.17884  0.15180  1.0000
  O   O22       1.0  0.25400  0.67884  0.34820  1.0000
  O   O23       1.0  0.75400  0.82116  0.84820  1.0000
  O   O24       1.0  0.74600  0.32116  0.65180  1.0000
  C   C1        1.0  0.14810  0.26533  0.30940  1.0000
  C   C2        1.0  0.35190  0.76533  0.19060  1.0000
  C   C3        1.0  0.85190  0.73467  0.69060  1.0000
  C   C4        1.0  0.64810  0.23467  0.80940  1.0000
  C   C5        1.0  0.29710  0.22265  0.27430  1.0000
  C   C6        1.0  0.20290  0.72265  0.22570  1.0000
  C   C7        1.0  0.70290  0.77735  0.72570  1.0000
  C   C8        1.0  0.79710  0.27735  0.77430  1.0000
  C   C9        1.0  0.99230  0.99220  0.07870  1.0000
  C   C10       1.0  0.50770  0.49220  0.42130  1.0000
  C   C11       1.0  0.00770  0.00780  0.92130  1.0000
  C   C12       1.0  0.49230  0.50780  0.57870  1.0000
