data_image0
_chemical_formula_structural       Fe4O24C12
_chemical_formula_sum              "Fe4 O24 C12"
_cell_length_a       8.2586
_cell_length_b       15.8638
_cell_length_c       9.4209
_cell_angle_alpha    90
_cell_angle_beta     113.19
_cell_angle_gamma    90

_space_group_name_H-M_alt    "P 1"
_space_group_IT_number       1

loop_
  _space_group_symop_operation_xyz
  'x, y, z'

loop_
  _atom_site_type_symbol
  _atom_site_label
  _atom_site_symmetry_multiplicity
  _atom_site_fract_x
  _atom_site_fract_y
  _atom_site_fract_z
  _atom_site_occupancy
  Fe  Fe1       1.0  0.52748  0.66997  0.95803  1.0000
  Fe  Fe2       1.0  0.97252  0.16997  0.54197  1.0000
  Fe  Fe3       1.0  0.47252  0.33003  0.04197  1.0000
  Fe  Fe4       1.0  0.02748  0.83003  0.45803  1.0000
  O   O1        1.0  0.24755  0.67737  0.83600  1.0000
  O   O2        1.0  0.25245  0.17737  0.66400  1.0000
  O   O3        1.0  0.75245  0.32263  0.16400  1.0000
  O   O4        1.0  0.74755  0.82263  0.33600  1.0000
  O   O5        1.0  0.04540  0.73325  0.62135  1.0000
  O   O6        1.0  0.45460  0.23325  0.87865  1.0000
  O   O7        1.0  0.95460  0.26675  0.37865  1.0000
  O   O8        1.0  0.54540  0.76675  0.12135  1.0000
  O   O9        1.0  0.50434  0.74902  0.77290  1.0000
  O   O10       1.0  0.99566  0.24902  0.72710  1.0000
  O   O11       1.0  0.49566  0.25098  0.22710  1.0000
  O   O12       1.0  0.00434  0.75098  0.27290  1.0000
  O   O13       1.0  0.30398  0.81147  0.56562  1.0000
  O   O14       1.0  0.19602  0.31147  0.93438  1.0000
  O   O15       1.0  0.69602  0.18853  0.43438  1.0000
  O   O16       1.0  0.80398  0.68853  0.06562  1.0000
  O   O17       1.0  0.51242  0.58416  0.12307  1.0000
  O   O18       1.0  0.98758  0.08416  0.37693  1.0000
  O   O19       1.0  0.48758  0.41584  0.87693  1.0000
  O   O20       1.0  0.01242  0.91584  0.62307  1.0000
  O   O21       1.0  0.46510  0.44710  0.14821  1.0000
  O   O22       1.0  0.03490  0.94710  0.35179  1.0000
  O   O23       1.0  0.53490  0.55290  0.85179  1.0000
  O   O24       1.0  0.96510  0.05290  0.64821  1.0000
  C   C1        1.0  0.20015  0.72080  0.71591  1.0000
  C   C2        1.0  0.29985  0.22080  0.78409  1.0000
  C   C3        1.0  0.79985  0.27920  0.28409  1.0000
  C   C4        1.0  0.70015  0.77920  0.21591  1.0000
  C   C5        1.0  0.49370  0.50878  0.07898  1.0000
  C   C6        1.0  0.00630  0.00878  0.42102  1.0000
  C   C7        1.0  0.50630  0.49122  0.92102  1.0000
  C   C8        1.0  0.99370  0.99122  0.57898  1.0000
  C   C9        1.0  0.34949  0.76423  0.68109  1.0000
  C   C10       1.0  0.15051  0.26423  0.81891  1.0000
  C   C11       1.0  0.65051  0.23577  0.31891  1.0000
  C   C12       1.0  0.84949  0.73577  0.18109  1.0000
