data_image0
_chemical_formula_structural       Cu4F50O20C70Cu4F48O20C70F2
_chemical_formula_sum              "Cu8 F100 O40 C140"
_cell_length_a       12.987
_cell_length_b       17.5653
_cell_length_c       21.9475
_cell_angle_alpha    103.684
_cell_angle_beta     101.239
_cell_angle_gamma    94.621

_space_group_name_H-M_alt    "P 1"
_space_group_IT_number       1

loop_
  _space_group_symop_operation_xyz
  'x, y, z'

loop_
  _atom_site_type_symbol
  _atom_site_label
  _atom_site_symmetry_multiplicity
  _atom_site_fract_x
  _atom_site_fract_y
  _atom_site_fract_z
  _atom_site_occupancy
  Cu  Cu1       1.0  0.46746  0.06886  0.99206  1.0000
  Cu  Cu2       1.0  0.53254  0.93114  0.00794  1.0000
  Cu  Cu3       1.0  0.48205  0.42841  0.01043  1.0000
  Cu  Cu4       1.0  0.51795  0.57159  0.98957  1.0000
  F   F1        1.0  0.79510  0.28558  0.27518  1.0000
  F   F2        1.0  0.20490  0.71442  0.72482  1.0000
  F   F3        1.0  0.99640  0.25371  0.27790  1.0000
  F   F4        1.0  0.00360  0.74629  0.72210  1.0000
  F   F5        1.0  0.03730  0.13200  0.18802  1.0000
  F   F6        1.0  0.96270  0.86800  0.81198  1.0000
  F   F7        1.0  0.87761  0.04261  0.09517  1.0000
  F   F8        1.0  0.12239  0.95739  0.90483  1.0000
  F   F9        1.0  0.47590  0.04480  0.21910  1.0000
  F   F10       1.0  0.52410  0.95520  0.78090  1.0000
  F   F11       1.0  0.35540  0.03680  0.30533  1.0000
  F   F12       1.0  0.64460  0.96320  0.69467  1.0000
  F   F13       1.0  0.14470  0.99020  0.26465  1.0000
  F   F14       1.0  0.85530  0.00980  0.73535  1.0000
  F   F15       1.0  0.05470  0.94861  0.13760  1.0000
  F   F16       1.0  0.94530  0.05139  0.86240  1.0000
  F   F17       1.0  0.17537  0.95621  0.05125  1.0000
  F   F18       1.0  0.82463  0.04379  0.94875  1.0000
  F   F19       1.0  0.63500  0.19384  0.18490  1.0000
  F   F20       1.0  0.36500  0.80616  0.81510  1.0000
  F   F21       1.0  0.82810  0.58936  0.14739  1.0000
  F   F22       1.0  0.17190  0.41064  0.85261  1.0000
  F   F23       1.0  0.03020  0.56470  0.18800  1.0000
  F   F24       1.0  0.96980  0.43530  0.81200  1.0000
  F   F25       1.0  0.12170  0.46070  0.10890  1.0000
  F   F26       1.0  0.87830  0.53930  0.89110  1.0000
  F   F27       1.0  0.00940  0.37890  0.99100  1.0000
  F   F28       1.0  0.99060  0.62110  0.00900  1.0000
  F   F29       1.0  0.80780  0.40129  0.95172  1.0000
  F   F30       1.0  0.19220  0.59871  0.04828  1.0000
  F   F31       1.0  0.36130  0.51776  0.19035  1.0000
  F   F32       1.0  0.63870  0.48224  0.80965  1.0000
  F   F33       1.0  0.37440  0.59110  0.31341  1.0000
  F   F34       1.0  0.62560  0.40890  0.68659  1.0000
  F   F35       1.0  0.52930  0.71230  0.37542  1.0000
  F   F36       1.0  0.47070  0.28770  0.62458  1.0000
  F   F37       1.0  0.66880  0.76250  0.31176  1.0000
  F   F38       1.0  0.33120  0.23750  0.68824  1.0000
  F   F39       1.0  0.65710  0.69093  0.18934  1.0000
  F   F40       1.0  0.34290  0.30907  0.81066  1.0000
  F   F41       1.0  0.68454  0.28098  0.08514  1.0000
  F   F42       1.0  0.31546  0.71902  0.91486  1.0000
  F   F43       1.0  0.86610  0.26062  0.04498  1.0000
  F   F44       1.0  0.13390  0.73938  0.95502  1.0000
  F   F45       1.0  0.86210  0.21476  0.91782  1.0000
  F   F46       1.0  0.13790  0.78524  0.08218  1.0000
  F   F47       1.0  0.67560  0.18835  0.83098  1.0000
  F   F48       1.0  0.32440  0.81165  0.16902  1.0000
  F   F49       1.0  0.49410  0.20807  0.87091  1.0000
  F   F50       1.0  0.50590  0.79193  0.12909  1.0000
  O   O1        1.0  0.59890  0.10670  0.05812  1.0000
  O   O2        1.0  0.40110  0.89330  0.94188  1.0000
  O   O3        1.0  0.65545  0.99362  0.07251  1.0000
  O   O4        1.0  0.34455  0.00638  0.92749  1.0000
  O   O5        1.0  0.38980  0.05798  0.05933  1.0000
  O   O6        1.0  0.61020  0.94202  0.94067  1.0000
  O   O7        1.0  0.44850  0.94609  0.07401  1.0000
  O   O8        1.0  0.55150  0.05391  0.92599  1.0000
  O   O9        1.0  0.63768  0.44021  0.03030  1.0000
  O   O10       1.0  0.36232  0.55979  0.96970  1.0000
  O   O11       1.0  0.67060  0.56044  0.01438  1.0000
  O   O12       1.0  0.32940  0.43956  0.98562  1.0000
  O   O13       1.0  0.48610  0.48767  0.09913  1.0000
  O   O14       1.0  0.51390  0.51233  0.90087  1.0000
  O   O15       1.0  0.51580  0.60678  0.08058  1.0000
  O   O16       1.0  0.48420  0.39322  0.91942  1.0000
  O   O17       1.0  0.45044  0.31332  0.02048  1.0000
  O   O18       1.0  0.54956  0.68668  0.97952  1.0000
  O   O19       1.0  0.42677  0.18362  0.99561  1.0000
  O   O20       1.0  0.57323  0.81638  0.00439  1.0000
  C   C1        1.0  0.66080  0.06700  0.08498  1.0000
  C   C2        1.0  0.33920  0.93300  0.91502  1.0000
  C   C3        1.0  0.39540  0.00190  0.08489  1.0000
  C   C4        1.0  0.60460  0.99810  0.91511  1.0000
  C   C5        1.0  0.69700  0.49980  0.02967  1.0000
  C   C6        1.0  0.30300  0.50020  0.97033  1.0000
  C   C7        1.0  0.50230  0.56120  0.11535  1.0000
  C   C8        1.0  0.49770  0.43880  0.88465  1.0000
  C   C9        1.0  0.47990  0.24856  0.00022  1.0000
  C   C10       1.0  0.52010  0.75144  0.99978  1.0000
  C   C11       1.0  0.75150  0.11540  0.13754  1.0000
  C   C12       1.0  0.24850  0.88460  0.86246  1.0000
  C   C13       1.0  0.73230  0.17830  0.18410  1.0000
  C   C14       1.0  0.26770  0.82170  0.81590  1.0000
  C   C15       1.0  0.81410  0.22440  0.23080  1.0000
  C   C16       1.0  0.18590  0.77560  0.76920  1.0000
  C   C17       1.0  0.91510  0.20900  0.23220  1.0000
  C   C18       1.0  0.08490  0.79100  0.76780  1.0000
  C   C19       1.0  0.93710  0.14720  0.18700  1.0000
  C   C20       1.0  0.06290  0.85280  0.81300  1.0000
  C   C21       1.0  0.85500  0.10110  0.14000  1.0000
  C   C22       1.0  0.14500  0.89890  0.86000  1.0000
  C   C23       1.0  0.32820  0.00010  0.13327  1.0000
  C   C24       1.0  0.67180  0.99990  0.86673  1.0000
  C   C25       1.0  0.37160  0.02010  0.19840  1.0000
  C   C26       1.0  0.62840  0.97990  0.80160  1.0000
  C   C27       1.0  0.31060  0.01640  0.24210  1.0000
  C   C28       1.0  0.68940  0.98360  0.75790  1.0000
  C   C29       1.0  0.20410  0.99280  0.22150  1.0000
  C   C30       1.0  0.79590  0.00720  0.77850  1.0000
  C   C31       1.0  0.15800  0.97260  0.15730  1.0000
  C   C32       1.0  0.84200  0.02740  0.84270  1.0000
  C   C33       1.0  0.22100  0.97680  0.11410  1.0000
  C   C34       1.0  0.77900  0.02320  0.88590  1.0000
  C   C35       1.0  0.81348  0.49444  0.04948  1.0000
  C   C36       1.0  0.18652  0.50556  0.95052  1.0000
  C   C37       1.0  0.87140  0.53699  0.10984  1.0000
  C   C38       1.0  0.12860  0.46301  0.89016  1.0000
  C   C39       1.0  0.97580  0.52560  0.13040  1.0000
  C   C40       1.0  0.02420  0.47440  0.86960  1.0000
  C   C41       1.0  0.02237  0.47160  0.09070  1.0000
  C   C42       1.0  0.97763  0.52840  0.90930  1.0000
  C   C43       1.0  0.96450  0.42910  0.03030  1.0000
  C   C44       1.0  0.03550  0.57090  0.96970  1.0000
  C   C45       1.0  0.86000  0.44048  0.00971  1.0000
  C   C46       1.0  0.14000  0.55952  0.99029  1.0000
  C   C47       1.0  0.50880  0.60140  0.18503  1.0000
  C   C48       1.0  0.49120  0.39860  0.81497  1.0000
  C   C49       1.0  0.43930  0.57710  0.21930  1.0000
  C   C50       1.0  0.56070  0.42290  0.78070  1.0000
  C   C51       1.0  0.44520  0.61490  0.28310  1.0000
  C   C52       1.0  0.55480  0.38510  0.71690  1.0000
  C   C53       1.0  0.52230  0.67680  0.31380  1.0000
  C   C54       1.0  0.47770  0.32320  0.68620  1.0000
  C   C55       1.0  0.59190  0.70160  0.28150  1.0000
  C   C56       1.0  0.40810  0.29840  0.71850  1.0000
  C   C57       1.0  0.58570  0.66420  0.21780  1.0000
  C   C58       1.0  0.41430  0.33580  0.78220  1.0000
  C   C59       1.0  0.58410  0.24502  0.97886  1.0000
  C   C60       1.0  0.41590  0.75498  0.02114  1.0000
  C   C61       1.0  0.68000  0.25860  0.02230  1.0000
  C   C62       1.0  0.32000  0.74140  0.97770  1.0000
  C   C63       1.0  0.77360  0.24760  0.00200  1.0000
  C   C64       1.0  0.22640  0.75240  0.99800  1.0000
  C   C65       1.0  0.77160  0.22460  0.93800  1.0000
  C   C66       1.0  0.22840  0.77540  0.06200  1.0000
  C   C67       1.0  0.67940  0.21240  0.89440  1.0000
  C   C68       1.0  0.32060  0.78760  0.10560  1.0000
  C   C69       1.0  0.58540  0.22200  0.91440  1.0000
  C   C70       1.0  0.41460  0.77800  0.08560  1.0000
  Cu  Cu5       1.0  0.49133  0.42162  0.49332  1.0000
  Cu  Cu6       1.0  0.50867  0.57838  0.50668  1.0000
  Cu  Cu7       1.0  0.46834  0.06653  0.48745  1.0000
  Cu  Cu8       1.0  0.53166  0.93347  0.51255  1.0000
  F   F51       1.0  0.86460  0.45120  0.53918  1.0000
  F   F52       1.0  0.13540  0.54880  0.46082  1.0000
  F   F53       1.0  0.05460  0.47980  0.62320  1.0000
  F   F54       1.0  0.94540  0.52020  0.37680  1.0000
  F   F55       1.0  0.90460  0.62070  0.78470  1.0000
  F   F56       1.0  0.09540  0.37930  0.21530  1.0000
  F   F57       1.0  0.71510  0.59370  0.70158  1.0000
  F   F58       1.0  0.28490  0.40630  0.29842  1.0000
  F   F59       1.0  0.49040  0.34932  0.28671  1.0000
  F   F60       1.0  0.50960  0.65068  0.71329  1.0000
  F   F61       1.0  0.55130  0.33832  0.17607  1.0000
  F   F62       1.0  0.44870  0.66168  0.82393  1.0000
  F   F63       1.0  0.70670  0.44533  0.16779  1.0000
  F   F64       1.0  0.29330  0.55467  0.83221  1.0000
  F   F65       1.0  0.79180  0.56887  0.26982  1.0000
  F   F66       1.0  0.20820  0.43113  0.73018  1.0000
  F   F67       1.0  0.73190  0.58240  0.38038  1.0000
  F   F68       1.0  0.26810  0.41760  0.61962  1.0000
  F   F69       1.0  0.46660  0.08340  0.71738  1.0000
  F   F70       1.0  0.53340  0.91660  0.28262  1.0000
  F   F71       1.0  0.34600  0.08270  0.80539  1.0000
  F   F72       1.0  0.65400  0.91730  0.19461  1.0000
  F   F73       1.0  0.14100  0.02060  0.76710  1.0000
  F   F74       1.0  0.85900  0.97940  0.23290  1.0000
  F   F75       1.0  0.05510  0.95650  0.64122  1.0000
  F   F76       1.0  0.94490  0.04350  0.35878  1.0000
  F   F77       1.0  0.17550  0.95470  0.55333  1.0000
  F   F78       1.0  0.82450  0.04530  0.44667  1.0000
  F   F79       1.0  0.87620  0.05431  0.58708  1.0000
  F   F80       1.0  0.12380  0.94569  0.41292  1.0000
  F   F81       1.0  0.03840  0.14440  0.67680  1.0000
  F   F82       1.0  0.96160  0.85560  0.32320  1.0000
  F   F83       1.0  0.00080  0.26110  0.77190  1.0000
  F   F84       1.0  0.99920  0.73890  0.22810  1.0000
  F   F85       1.0  0.79810  0.29060  0.77465  1.0000
  F   F86       1.0  0.20190  0.70940  0.22535  1.0000
  F   F87       1.0  0.63660  0.20117  0.68437  1.0000
  F   F88       1.0  0.36340  0.79883  0.31563  1.0000
  F   F89       1.0  0.67600  0.28192  0.56777  1.0000
  F   F90       1.0  0.32400  0.71808  0.43223  1.0000
  F   F91       1.0  0.86450  0.26410  0.53510  1.0000
  F   F92       1.0  0.13550  0.73590  0.46490  1.0000
  F   F93       1.0  0.87130  0.20550  0.40960  1.0000
  F   F94       1.0  0.12870  0.79450  0.59040  1.0000
  F   F95       1.0  0.69140  0.16360  0.31841  1.0000
  F   F96       1.0  0.30860  0.83640  0.68159  1.0000
  F   F97       1.0  0.50410  0.18477  0.35063  1.0000
  F   F98       1.0  0.49590  0.81523  0.64937  1.0000
  O   O21       1.0  0.63490  0.44081  0.54755  1.0000
  O   O22       1.0  0.36510  0.55919  0.45245  1.0000
  O   O23       1.0  0.64760  0.57183  0.56101  1.0000
  O   O24       1.0  0.35240  0.42817  0.43899  1.0000
  O   O25       1.0  0.55260  0.41428  0.41769  1.0000
  O   O26       1.0  0.44740  0.58572  0.58231  1.0000
  O   O27       1.0  0.56320  0.54447  0.42812  1.0000
  O   O28       1.0  0.43680  0.45553  0.57188  1.0000
  O   O29       1.0  0.38840  0.06697  0.55553  1.0000
  O   O30       1.0  0.61160  0.93303  0.44447  1.0000
  O   O31       1.0  0.44440  0.95749  0.57734  1.0000
  O   O32       1.0  0.55560  0.04251  0.42266  1.0000
  O   O33       1.0  0.59740  0.11210  0.55357  1.0000
  O   O34       1.0  0.40260  0.88790  0.44643  1.0000
  O   O35       1.0  0.65410  0.00189  0.57368  1.0000
  O   O36       1.0  0.34590  0.99811  0.42632  1.0000
  O   O37       1.0  0.42323  0.17489  0.47320  1.0000
  O   O38       1.0  0.57677  0.82511  0.52680  1.0000
  O   O39       1.0  0.44360  0.30306  0.48577  1.0000
  O   O40       1.0  0.55640  0.69694  0.51423  1.0000
  C   C71       1.0  0.67980  0.50990  0.57090  1.0000
  C   C72       1.0  0.32020  0.49010  0.42910  1.0000
  C   C73       1.0  0.78537  0.52172  0.61878  1.0000
  C   C74       1.0  0.21463  0.47828  0.38122  1.0000
  C   C75       1.0  0.87250  0.49190  0.59861  1.0000
  C   C76       1.0  0.12750  0.50810  0.40139  1.0000
  C   C77       1.0  0.97020  0.50580  0.64150  1.0000
  C   C78       1.0  0.02980  0.49420  0.35850  1.0000
  C   C79       1.0  0.98070  0.54950  0.70460  1.0000
  C   C80       1.0  0.01930  0.45050  0.29540  1.0000
  C   C81       1.0  0.89360  0.57930  0.72482  1.0000
  C   C82       1.0  0.10640  0.42070  0.27518  1.0000
  C   C83       1.0  0.79590  0.56538  0.68189  1.0000
  C   C84       1.0  0.20410  0.43462  0.31811  1.0000
  C   C85       1.0  0.57230  0.47560  0.40050  1.0000
  C   C86       1.0  0.42770  0.52440  0.59950  1.0000
  C   C87       1.0  0.60870  0.46620  0.33837  1.0000
  C   C88       1.0  0.39130  0.53380  0.66163  1.0000
  C   C89       1.0  0.56650  0.40430  0.28490  1.0000
  C   C90       1.0  0.43350  0.59570  0.71510  1.0000
  C   C91       1.0  0.59720  0.39810  0.22710  1.0000
  C   C92       1.0  0.40280  0.60190  0.77290  1.0000
  C   C93       1.0  0.67400  0.45250  0.22270  1.0000
  C   C94       1.0  0.32600  0.54750  0.77730  1.0000
  C   C95       1.0  0.71750  0.51470  0.27450  1.0000
  C   C96       1.0  0.28250  0.48530  0.72550  1.0000
  C   C97       1.0  0.68540  0.52090  0.33130  1.0000
  C   C98       1.0  0.31460  0.47910  0.66870  1.0000
  C   C99       1.0  0.39180  0.01390  0.58429  1.0000
  C   C100      1.0  0.60820  0.98610  0.41571  1.0000
  C   C101      1.0  0.32430  0.01810  0.63380  1.0000
  C   C102      1.0  0.67570  0.98190  0.36620  1.0000
  C   C103      1.0  0.36520  0.05070  0.69780  1.0000
  C   C104      1.0  0.63480  0.94930  0.30220  1.0000
  C   C105      1.0  0.30480  0.05170  0.74300  1.0000
  C   C106      1.0  0.69520  0.94830  0.25700  1.0000
  C   C107      1.0  0.20130  0.01960  0.72380  1.0000
  C   C108      1.0  0.79870  0.98040  0.27620  1.0000
  C   C109      1.0  0.15780  0.98760  0.65990  1.0000
  C   C110      1.0  0.84220  0.01240  0.34010  1.0000
  C   C111      1.0  0.21950  0.98700  0.61610  1.0000
  C   C112      1.0  0.78050  0.01300  0.38390  1.0000
  C   C113      1.0  0.66000  0.07470  0.58277  1.0000
  C   C114      1.0  0.34000  0.92530  0.41723  1.0000
  C   C115      1.0  0.75170  0.12500  0.63310  1.0000
  C   C116      1.0  0.24830  0.87500  0.36690  1.0000
  C   C117      1.0  0.85470  0.11220  0.63320  1.0000
  C   C118      1.0  0.14530  0.88780  0.36680  1.0000
  C   C119      1.0  0.93820  0.15740  0.67840  1.0000
  C   C120      1.0  0.06180  0.84260  0.32160  1.0000
  C   C121      1.0  0.91990  0.21720  0.72610  1.0000
  C   C122      1.0  0.08010  0.78280  0.27390  1.0000
  C   C123      1.0  0.81750  0.23250  0.72820  1.0000
  C   C124      1.0  0.18250  0.76750  0.27180  1.0000
  C   C125      1.0  0.73520  0.18560  0.68130  1.0000
  C   C126      1.0  0.26480  0.81440  0.31870  1.0000
  C   C127      1.0  0.47700  0.23806  0.47535  1.0000
  C   C128      1.0  0.52300  0.76194  0.52465  1.0000
  C   C129      1.0  0.58550  0.23430  0.46090  1.0000
  C   C130      1.0  0.41450  0.76570  0.53910  1.0000
  C   C131      1.0  0.67740  0.25450  0.50580  1.0000
  C   C132      1.0  0.32260  0.74550  0.49420  1.0000
  C   C133      1.0  0.77580  0.24580  0.48930  1.0000
  C   C134      1.0  0.22420  0.75420  0.51070  1.0000
  C   C135      1.0  0.77720  0.21630  0.42540  1.0000
  C   C136      1.0  0.22280  0.78370  0.57460  1.0000
  C   C137      1.0  0.68760  0.19540  0.38000  1.0000
  C   C138      1.0  0.31240  0.80460  0.62000  1.0000
  C   C139      1.0  0.59190  0.20520  0.39650  1.0000
  C   C140      1.0  0.40810  0.79480  0.60350  1.0000
  F   F99       1.0  0.07370  0.56480  0.74640  1.0000
  F   F100      1.0  0.92630  0.43520  0.25360  1.0000
