data_image0
_chemical_formula_structural       H18Mn6O36C18
_chemical_formula_sum              "H18 Mn6 O36 C18"
_cell_length_a       8.3544
_cell_length_b       8.3544
_cell_length_c       22.8701
_cell_angle_alpha    90
_cell_angle_beta     90
_cell_angle_gamma    120

_space_group_name_H-M_alt    "P 1"
_space_group_IT_number       1

loop_
  _space_group_symop_operation_xyz
  'x, y, z'

loop_
  _atom_site_type_symbol
  _atom_site_label
  _atom_site_symmetry_multiplicity
  _atom_site_fract_x
  _atom_site_fract_y
  _atom_site_fract_z
  _atom_site_occupancy
  H   H1        1.0  0.10700  0.33330  0.08330  1.0000
  H   H2        1.0  0.66670  0.77370  0.08330  1.0000
  H   H3        1.0  0.22630  0.89300  0.08330  1.0000
  H   H4        1.0  0.33330  0.10700  0.41670  1.0000
  H   H5        1.0  0.77370  0.66670  0.41670  1.0000
  H   H6        1.0  0.89300  0.22630  0.41670  1.0000
  H   H7        1.0  0.99997  0.44033  0.75003  1.0000
  H   H8        1.0  0.44037  0.00003  0.75003  1.0000
  H   H9        1.0  0.55967  0.55963  0.75003  1.0000
  H   H10       1.0  0.89300  0.66670  0.91670  1.0000
  H   H11       1.0  0.33330  0.22630  0.91670  1.0000
  H   H12       1.0  0.77370  0.10700  0.91670  1.0000
  H   H13       1.0  0.66670  0.89300  0.58330  1.0000
  H   H14       1.0  0.22630  0.33330  0.58330  1.0000
  H   H15       1.0  0.10700  0.77370  0.58330  1.0000
  H   H16       1.0  0.00003  0.55967  0.24997  1.0000
  H   H17       1.0  0.55963  0.99997  0.24997  1.0000
  H   H18       1.0  0.44033  0.44037  0.24997  1.0000
  Mn  Mn1       1.0  0.00000  0.00000  0.00000  1.0000
  Mn  Mn2       1.0  0.00000  0.00000  0.50000  1.0000
  Mn  Mn3       1.0  0.66667  0.33333  0.33333  1.0000
  Mn  Mn4       1.0  0.66667  0.33333  0.83333  1.0000
  Mn  Mn5       1.0  0.33333  0.66667  0.66667  1.0000
  Mn  Mn6       1.0  0.33333  0.66667  0.16667  1.0000
  O   O1        1.0  0.22230  0.20890  0.05463  1.0000
  O   O2        1.0  0.79110  0.01340  0.05463  1.0000
  O   O3        1.0  0.98660  0.77770  0.05463  1.0000
  O   O4        1.0  0.20890  0.22230  0.44537  1.0000
  O   O5        1.0  0.01340  0.79110  0.44537  1.0000
  O   O6        1.0  0.77770  0.98660  0.44537  1.0000
  O   O7        1.0  0.88897  0.54223  0.38796  1.0000
  O   O8        1.0  0.45777  0.34673  0.38796  1.0000
  O   O9        1.0  0.65327  0.11103  0.38796  1.0000
  O   O10       1.0  0.87557  0.55563  0.77870  1.0000
  O   O11       1.0  0.68007  0.12443  0.77870  1.0000
  O   O12       1.0  0.44437  0.31993  0.77870  1.0000
  O   O13       1.0  0.55563  0.87557  0.72130  1.0000
  O   O14       1.0  0.12443  0.68007  0.72130  1.0000
  O   O15       1.0  0.31993  0.44437  0.72130  1.0000
  O   O16       1.0  0.54223  0.88897  0.11204  1.0000
  O   O17       1.0  0.34673  0.45777  0.11204  1.0000
  O   O18       1.0  0.11103  0.65327  0.11204  1.0000
  O   O19       1.0  0.77770  0.79110  0.94537  1.0000
  O   O20       1.0  0.20890  0.98660  0.94537  1.0000
  O   O21       1.0  0.01340  0.22230  0.94537  1.0000
  O   O22       1.0  0.79110  0.77770  0.55463  1.0000
  O   O23       1.0  0.98660  0.20890  0.55463  1.0000
  O   O24       1.0  0.22230  0.01340  0.55463  1.0000
  O   O25       1.0  0.11103  0.45777  0.61204  1.0000
  O   O26       1.0  0.54223  0.65327  0.61204  1.0000
  O   O27       1.0  0.34673  0.88897  0.61204  1.0000
  O   O28       1.0  0.12443  0.44437  0.22130  1.0000
  O   O29       1.0  0.31993  0.87557  0.22130  1.0000
  O   O30       1.0  0.55563  0.68007  0.22130  1.0000
  O   O31       1.0  0.44437  0.12443  0.27870  1.0000
  O   O32       1.0  0.87557  0.31993  0.27870  1.0000
  O   O33       1.0  0.68007  0.55563  0.27870  1.0000
  O   O34       1.0  0.45777  0.11103  0.88796  1.0000
  O   O35       1.0  0.65327  0.54223  0.88796  1.0000
  O   O36       1.0  0.88897  0.34673  0.88796  1.0000
  C   C1        1.0  0.21690  0.33330  0.08330  1.0000
  C   C2        1.0  0.66670  0.88360  0.08330  1.0000
  C   C3        1.0  0.11640  0.78310  0.08330  1.0000
  C   C4        1.0  0.33330  0.21690  0.41670  1.0000
  C   C5        1.0  0.88360  0.66670  0.41670  1.0000
  C   C6        1.0  0.78310  0.11640  0.41670  1.0000
  C   C7        1.0  0.99997  0.55023  0.75003  1.0000
  C   C8        1.0  0.55027  0.00003  0.75003  1.0000
  C   C9        1.0  0.44977  0.44973  0.75003  1.0000
  C   C10       1.0  0.78310  0.66670  0.91670  1.0000
  C   C11       1.0  0.33330  0.11640  0.91670  1.0000
  C   C12       1.0  0.88360  0.21690  0.91670  1.0000
  C   C13       1.0  0.66670  0.78310  0.58330  1.0000
  C   C14       1.0  0.11640  0.33330  0.58330  1.0000
  C   C15       1.0  0.21690  0.88360  0.58330  1.0000
  C   C16       1.0  0.00003  0.44977  0.24997  1.0000
  C   C17       1.0  0.44973  0.99997  0.24997  1.0000
  C   C18       1.0  0.55023  0.55027  0.24997  1.0000
