data_image0
_chemical_formula_structural       Ni6C18O36H18
_chemical_formula_sum              "Ni6 C18 O36 H18"
_cell_length_a       8.0016
_cell_length_b       8.0016
_cell_length_c       21.563
_cell_angle_alpha    90
_cell_angle_beta     90
_cell_angle_gamma    120

_space_group_name_H-M_alt    "P 1"
_space_group_IT_number       1

loop_
  _space_group_symop_operation_xyz
  'x, y, z'

loop_
  _atom_site_type_symbol
  _atom_site_label
  _atom_site_symmetry_multiplicity
  _atom_site_fract_x
  _atom_site_fract_y
  _atom_site_fract_z
  _atom_site_occupancy
  Ni  Ni1       1.0  0.00000  0.00000  0.00000  1.0000
  Ni  Ni2       1.0  0.00000  0.00000  0.50000  1.0000
  Ni  Ni3       1.0  0.66667  0.33333  0.33333  1.0000
  Ni  Ni4       1.0  0.66667  0.33333  0.83333  1.0000
  Ni  Ni5       1.0  0.33333  0.66667  0.66667  1.0000
  Ni  Ni6       1.0  0.33333  0.66667  0.16667  1.0000
  C   C1        1.0  0.12290  0.78960  0.08330  1.0000
  C   C2        1.0  0.21040  0.33330  0.08330  1.0000
  C   C3        1.0  0.66670  0.87710  0.08330  1.0000
  C   C4        1.0  0.33330  0.21040  0.41670  1.0000
  C   C5        1.0  0.87710  0.66670  0.41670  1.0000
  C   C6        1.0  0.78960  0.12290  0.41670  1.0000
  C   C7        1.0  0.99997  0.54373  0.75003  1.0000
  C   C8        1.0  0.54377  0.00003  0.75003  1.0000
  C   C9        1.0  0.45627  0.45623  0.75003  1.0000
  C   C10       1.0  0.87710  0.21040  0.91670  1.0000
  C   C11       1.0  0.78960  0.66670  0.91670  1.0000
  C   C12       1.0  0.33330  0.12290  0.91670  1.0000
  C   C13       1.0  0.66670  0.78960  0.58330  1.0000
  C   C14       1.0  0.12290  0.33330  0.58330  1.0000
  C   C15       1.0  0.21040  0.87710  0.58330  1.0000
  C   C16       1.0  0.00003  0.45627  0.24997  1.0000
  C   C17       1.0  0.45623  0.99997  0.24997  1.0000
  C   C18       1.0  0.54373  0.54377  0.24997  1.0000
  O   O1        1.0  0.98580  0.78130  0.05384  1.0000
  O   O2        1.0  0.21870  0.20450  0.05384  1.0000
  O   O3        1.0  0.79550  0.01420  0.05384  1.0000
  O   O4        1.0  0.20450  0.21870  0.44616  1.0000
  O   O5        1.0  0.01420  0.79550  0.44616  1.0000
  O   O6        1.0  0.78130  0.98580  0.44616  1.0000
  O   O7        1.0  0.65247  0.11463  0.38717  1.0000
  O   O8        1.0  0.88537  0.53783  0.38717  1.0000
  O   O9        1.0  0.46217  0.34753  0.38717  1.0000
  O   O10       1.0  0.87117  0.55203  0.77949  1.0000
  O   O11       1.0  0.68087  0.12883  0.77949  1.0000
  O   O12       1.0  0.44797  0.31913  0.77949  1.0000
  O   O13       1.0  0.31913  0.44797  0.72051  1.0000
  O   O14       1.0  0.55203  0.87117  0.72051  1.0000
  O   O15       1.0  0.12883  0.68087  0.72051  1.0000
  O   O16       1.0  0.53783  0.88537  0.11283  1.0000
  O   O17       1.0  0.34753  0.46217  0.11283  1.0000
  O   O18       1.0  0.11463  0.65247  0.11283  1.0000
  O   O19       1.0  0.01420  0.21870  0.94616  1.0000
  O   O20       1.0  0.78130  0.79550  0.94616  1.0000
  O   O21       1.0  0.20450  0.98580  0.94616  1.0000
  O   O22       1.0  0.79550  0.78130  0.55384  1.0000
  O   O23       1.0  0.98580  0.20450  0.55384  1.0000
  O   O24       1.0  0.21870  0.01420  0.55384  1.0000
  O   O25       1.0  0.34753  0.88537  0.61283  1.0000
  O   O26       1.0  0.11463  0.46217  0.61283  1.0000
  O   O27       1.0  0.53783  0.65247  0.61283  1.0000
  O   O28       1.0  0.12883  0.44797  0.22051  1.0000
  O   O29       1.0  0.31913  0.87117  0.22051  1.0000
  O   O30       1.0  0.55203  0.68087  0.22051  1.0000
  O   O31       1.0  0.68087  0.55203  0.27949  1.0000
  O   O32       1.0  0.44797  0.12883  0.27949  1.0000
  O   O33       1.0  0.87117  0.31913  0.27949  1.0000
  O   O34       1.0  0.46217  0.11463  0.88717  1.0000
  O   O35       1.0  0.65247  0.53783  0.88717  1.0000
  O   O36       1.0  0.88537  0.34753  0.88717  1.0000
  H   H1        1.0  0.24300  0.91000  0.08330  1.0000
  H   H2        1.0  0.09000  0.33300  0.08330  1.0000
  H   H3        1.0  0.66700  0.75700  0.08330  1.0000
  H   H4        1.0  0.33300  0.09000  0.41670  1.0000
  H   H5        1.0  0.75700  0.66700  0.41670  1.0000
  H   H6        1.0  0.91000  0.24300  0.41670  1.0000
  H   H7        1.0  0.99967  0.42333  0.75003  1.0000
  H   H8        1.0  0.42367  0.00033  0.75003  1.0000
  H   H9        1.0  0.57667  0.57633  0.75003  1.0000
  H   H10       1.0  0.75700  0.09000  0.91670  1.0000
  H   H11       1.0  0.91000  0.66700  0.91670  1.0000
  H   H12       1.0  0.33300  0.24300  0.91670  1.0000
  H   H13       1.0  0.66700  0.91000  0.58330  1.0000
  H   H14       1.0  0.24300  0.33300  0.58330  1.0000
  H   H15       1.0  0.09000  0.75700  0.58330  1.0000
  H   H16       1.0  0.00033  0.57667  0.24997  1.0000
  H   H17       1.0  0.57633  0.99967  0.24997  1.0000
  H   H18       1.0  0.42333  0.42367  0.24997  1.0000
