data_image0
_chemical_formula_structural       CuH4O8N4C12
_chemical_formula_sum              "Cu1 H4 O8 N4 C12"
_cell_length_a       6.4779
_cell_length_b       8.0458
_cell_length_c       11.314
_cell_angle_alpha    93.19
_cell_angle_beta     91.06
_cell_angle_gamma    95.47

_space_group_name_H-M_alt    "P 1"
_space_group_IT_number       1

loop_
  _space_group_symop_operation_xyz
  'x, y, z'

loop_
  _atom_site_type_symbol
  _atom_site_label
  _atom_site_symmetry_multiplicity
  _atom_site_fract_x
  _atom_site_fract_y
  _atom_site_fract_z
  _atom_site_occupancy
  Cu  Cu1       1.0  0.00000  0.00000  0.00000  1.0000
  H   H1        1.0  0.64100  0.49700  0.89900  1.0000
  H   H2        1.0  0.35900  0.50300  0.10100  1.0000
  H   H3        1.0  0.89800  0.36100  0.98800  1.0000
  H   H4        1.0  0.10200  0.63900  0.01200  1.0000
  O   O1        1.0  0.80250  0.81910  0.93350  1.0000
  O   O2        1.0  0.19750  0.18090  0.06650  1.0000
  O   O3        1.0  0.51940  0.77300  0.81780  1.0000
  O   O4        1.0  0.48060  0.22700  0.18220  1.0000
  O   O5        1.0  0.14940  0.98330  0.80580  1.0000
  O   O6        1.0  0.85060  0.01670  0.19420  1.0000
  O   O7        1.0  0.32290  0.03020  0.64210  1.0000
  O   O8        1.0  0.67710  0.96980  0.35790  1.0000
  N   N1        1.0  0.79620  0.14300  0.93750  1.0000
  N   N2        1.0  0.20380  0.85700  0.06250  1.0000
  N   N3        1.0  0.48630  0.29930  0.82980  1.0000
  N   N4        1.0  0.51370  0.70070  0.17020  1.0000
  C   C1        1.0  0.63890  0.05300  0.87720  1.0000
  C   C2        1.0  0.36110  0.94700  0.12280  1.0000
  C   C3        1.0  0.48410  0.13110  0.82350  1.0000
  C   C4        1.0  0.51590  0.86890  0.17650  1.0000
  C   C5        1.0  0.64300  0.38520  0.89150  1.0000
  C   C6        1.0  0.35700  0.61480  0.10850  1.0000
  C   C7        1.0  0.79660  0.30860  0.94560  1.0000
  C   C8        1.0  0.20340  0.69140  0.05440  1.0000
  C   C9        1.0  0.65170  0.86510  0.87430  1.0000
  C   C10       1.0  0.34830  0.13490  0.12570  1.0000
  C   C11       1.0  0.30380  0.03850  0.75200  1.0000
  C   C12       1.0  0.69620  0.96150  0.24800  1.0000
