data_image0
_chemical_formula_structural       Bi4C20O22F30
_chemical_formula_sum              "Bi4 C20 O22 F30"
_cell_length_a       9.429
_cell_length_b       13.001
_cell_length_c       13.971
_cell_angle_alpha    113.359
_cell_angle_beta     96.626
_cell_angle_gamma    96.678

_space_group_name_H-M_alt    "P 1"
_space_group_IT_number       1

loop_
  _space_group_symop_operation_xyz
  'x, y, z'

loop_
  _atom_site_type_symbol
  _atom_site_label
  _atom_site_symmetry_multiplicity
  _atom_site_fract_x
  _atom_site_fract_y
  _atom_site_fract_z
  _atom_site_occupancy
  Bi  Bi1       1.0  0.82518  0.55736  0.44038  1.0000
  Bi  Bi2       1.0  0.17482  0.44264  0.55962  1.0000
  Bi  Bi3       1.0  0.43695  0.39579  0.36930  1.0000
  Bi  Bi4       1.0  0.56305  0.60421  0.63070  1.0000
  C   C1        1.0  0.77360  0.29990  0.43680  1.0000
  C   C2        1.0  0.22640  0.70010  0.56320  1.0000
  C   C3        1.0  0.82030  0.20460  0.46680  1.0000
  C   C4        1.0  0.17970  0.79540  0.53320  1.0000
  C   C5        1.0  0.68790  0.78840  0.51770  1.0000
  C   C6        1.0  0.31210  0.21160  0.48230  1.0000
  C   C7        1.0  0.69630  0.90680  0.51580  1.0000
  C   C8        1.0  0.30370  0.09320  0.48420  1.0000
  C   C9        1.0  0.95250  0.65700  0.70300  1.0000
  C   C10       1.0  0.04750  0.34300  0.29700  1.0000
  C   C11       1.0  0.99780  0.77000  0.80100  1.0000
  C   C12       1.0  0.00220  0.23000  0.19900  1.0000
  C   C13       1.0  0.30770  0.51160  0.25040  1.0000
  C   C14       1.0  0.69230  0.48840  0.74960  1.0000
  C   C15       1.0  0.26870  0.60350  0.21480  1.0000
  C   C16       1.0  0.73130  0.39650  0.78520  1.0000
  C   C17       1.0  0.71770  0.48090  0.21500  1.0000
  C   C18       1.0  0.28230  0.51910  0.78500  1.0000
  C   C19       1.0  0.65220  0.40580  0.09900  1.0000
  C   C20       1.0  0.34780  0.59420  0.90100  1.0000
  O   O1        1.0  0.86280  0.39180  0.47650  1.0000
  O   O2        1.0  0.13720  0.60820  0.52350  1.0000
  O   O3        1.0  0.65920  0.27520  0.37630  1.0000
  O   O4        1.0  0.34080  0.72480  0.62370  1.0000
  O   O5        1.0  0.75160  0.72370  0.44930  1.0000
  O   O6        1.0  0.24840  0.27630  0.55070  1.0000
  O   O7        1.0  0.62330  0.77200  0.58160  1.0000
  O   O8        1.0  0.37670  0.22800  0.41840  1.0000
  O   O9        1.0  0.84780  0.65300  0.63440  1.0000
  O   O10       1.0  0.15220  0.34700  0.36560  1.0000
  O   O11       1.0  0.02530  0.58450  0.69920  1.0000
  O   O12       1.0  0.97470  0.41550  0.30080  1.0000
  O   O13       1.0  0.37460  0.55000  0.34590  1.0000
  O   O14       1.0  0.62540  0.45000  0.65410  1.0000
  O   O15       1.0  0.27790  0.41300  0.18670  1.0000
  O   O16       1.0  0.72210  0.58700  0.81330  1.0000
  O   O17       1.0  0.66820  0.45090  0.28230  1.0000
  O   O18       1.0  0.33180  0.54910  0.71770  1.0000
  O   O19       1.0  0.81120  0.56370  0.23530  1.0000
  O   O20       1.0  0.18880  0.43630  0.76470  1.0000
  O   O21       1.0  0.62250  0.51860  0.47890  1.0000
  O   O22       1.0  0.37750  0.48140  0.52110  1.0000
  F   F1        1.0  0.85080  0.12500  0.38540  1.0000
  F   F2        1.0  0.14920  0.87500  0.61460  1.0000
  F   F3        1.0  0.71090  0.15680  0.49520  1.0000
  F   F4        1.0  0.28910  0.84320  0.50480  1.0000
  F   F5        1.0  0.92670  0.23880  0.54560  1.0000
  F   F6        1.0  0.07330  0.76120  0.45440  1.0000
  F   F7        1.0  0.63890  0.97550  0.58730  1.0000
  F   F8        1.0  0.36110  0.02450  0.41270  1.0000
  F   F9        1.0  0.82990  0.95200  0.52030  1.0000
  F   F10       1.0  0.17010  0.04800  0.47970  1.0000
  F   F11       1.0  0.62680  0.89950  0.42560  1.0000
  F   F12       1.0  0.37320  0.10050  0.57440  1.0000
  F   F13       1.0  0.90880  0.83800  0.81090  1.0000
  F   F14       1.0  0.09120  0.16200  0.18910  1.0000
  F   F15       1.0  0.01690  0.75620  0.88810  1.0000
  F   F16       1.0  0.98310  0.24380  0.11190  1.0000
  F   F17       1.0  0.12410  0.82100  0.79870  1.0000
  F   F18       1.0  0.87590  0.17900  0.20130  1.0000
  F   F19       1.0  0.17790  0.56160  0.12510  1.0000
  F   F20       1.0  0.82210  0.43840  0.87490  1.0000
  F   F21       1.0  0.21440  0.67800  0.28120  1.0000
  F   F22       1.0  0.78560  0.32200  0.71880  1.0000
  F   F23       1.0  0.38190  0.65410  0.19540  1.0000
  F   F24       1.0  0.61810  0.34590  0.80460  1.0000
  F   F25       1.0  0.55410  0.32030  0.08610  1.0000
  F   F26       1.0  0.44590  0.67970  0.91390  1.0000
  F   F27       1.0  0.74860  0.36070  0.04570  1.0000
  F   F28       1.0  0.25140  0.63930  0.95430  1.0000
  F   F29       1.0  0.59590  0.46360  0.05290  1.0000
  F   F30       1.0  0.40410  0.53640  0.94710  1.0000
