data_image0
_chemical_formula_structural       Nd8O60H8O4H8O4H8C28
_chemical_formula_sum              "Nd8 O68 H24 C28"
_cell_length_a       10.035
_cell_length_b       21.204
_cell_length_c       11.115
_cell_angle_alpha    90
_cell_angle_beta     92.453
_cell_angle_gamma    90

_space_group_name_H-M_alt    "P 1"
_space_group_IT_number       1

loop_
  _space_group_symop_operation_xyz
  'x, y, z'

loop_
  _atom_site_type_symbol
  _atom_site_label
  _atom_site_symmetry_multiplicity
  _atom_site_fract_x
  _atom_site_fract_y
  _atom_site_fract_z
  _atom_site_occupancy
  Nd  Nd1       1.0  0.56769  0.09546  0.94023  1.0000
  Nd  Nd2       1.0  0.93231  0.59546  0.55977  1.0000
  Nd  Nd3       1.0  0.43231  0.90454  0.05977  1.0000
  Nd  Nd4       1.0  0.06769  0.40454  0.44023  1.0000
  Nd  Nd5       1.0  0.07836  0.10515  0.30640  1.0000
  Nd  Nd6       1.0  0.42164  0.60515  0.19360  1.0000
  Nd  Nd7       1.0  0.92164  0.89485  0.69360  1.0000
  Nd  Nd8       1.0  0.57836  0.39485  0.80640  1.0000
  O   O1        1.0  0.40390  0.15374  0.05050  1.0000
  O   O2        1.0  0.09610  0.65374  0.44950  1.0000
  O   O3        1.0  0.59610  0.84626  0.94950  1.0000
  O   O4        1.0  0.90390  0.34626  0.55050  1.0000
  O   O5        1.0  0.25430  0.15910  0.19260  1.0000
  O   O6        1.0  0.24570  0.65910  0.30740  1.0000
  O   O7        1.0  0.74570  0.84090  0.80740  1.0000
  O   O8        1.0  0.75430  0.34090  0.69260  1.0000
  O   O9        1.0  0.39830  0.02598  0.06390  1.0000
  O   O10       1.0  0.10170  0.52598  0.43610  1.0000
  O   O11       1.0  0.60170  0.97402  0.93610  1.0000
  O   O12       1.0  0.89830  0.47402  0.56390  1.0000
  O   O13       1.0  0.22790  0.03429  0.18810  1.0000
  O   O14       1.0  0.27210  0.53429  0.31190  1.0000
  O   O15       1.0  0.77210  0.96571  0.81190  1.0000
  O   O16       1.0  0.72790  0.46571  0.68810  1.0000
  O   O17       1.0  0.81480  0.08851  0.96680  1.0000
  O   O18       1.0  0.68520  0.58851  0.53320  1.0000
  O   O19       1.0  0.18520  0.91149  0.03320  1.0000
  O   O20       1.0  0.31480  0.41149  0.46680  1.0000
  O   O21       1.0  0.99260  0.09633  0.09310  1.0000
  O   O22       1.0  0.50740  0.59633  0.40690  1.0000
  O   O23       1.0  0.00740  0.90367  0.90690  1.0000
  O   O24       1.0  0.49260  0.40367  0.59310  1.0000
  O   O25       1.0  0.65440  0.08652  0.15180  1.0000
  O   O26       1.0  0.84560  0.58652  0.34820  1.0000
  O   O27       1.0  0.34560  0.91348  0.84820  1.0000
  O   O28       1.0  0.15440  0.41348  0.65180  1.0000
  O   O29       1.0  0.83230  0.09244  0.28040  1.0000
  O   O30       1.0  0.66770  0.59244  0.21960  1.0000
  O   O31       1.0  0.16770  0.90756  0.71960  1.0000
  O   O32       1.0  0.33230  0.40756  0.78040  1.0000
  O   O33       1.0  0.66360  0.20315  0.98270  1.0000
  O   O34       1.0  0.83640  0.70315  0.51730  1.0000
  O   O35       1.0  0.33640  0.79685  0.01730  1.0000
  O   O36       1.0  0.16360  0.29685  0.48270  1.0000
  O   O37       1.0  0.64910  0.30740  0.94890  1.0000
  O   O38       1.0  0.85090  0.80740  0.55110  1.0000
  O   O39       1.0  0.35090  0.69260  0.05110  1.0000
  O   O40       1.0  0.14910  0.19260  0.44890  1.0000
  O   O41       1.0  0.49430  0.18258  0.79460  1.0000
  O   O42       1.0  0.00570  0.68258  0.70540  1.0000
  O   O43       1.0  0.50570  0.81742  0.20540  1.0000
  O   O44       1.0  0.99430  0.31742  0.29460  1.0000
  O   O45       1.0  0.48160  0.28672  0.75990  1.0000
  O   O46       1.0  0.01840  0.78672  0.74010  1.0000
  O   O47       1.0  0.51840  0.71328  0.24010  1.0000
  O   O48       1.0  0.98160  0.21328  0.25990  1.0000
  O   O49       1.0  0.03570  0.99111  0.34840  1.0000
  O   O50       1.0  0.46430  0.49111  0.15160  1.0000
  O   O51       1.0  0.96430  0.00889  0.65160  1.0000
  O   O52       1.0  0.53570  0.50889  0.84840  1.0000
  O   O53       1.0  0.00410  0.91751  0.48860  1.0000
  O   O54       1.0  0.49590  0.41751  0.01140  1.0000
  O   O55       1.0  0.99590  0.08249  0.51140  1.0000
  O   O56       1.0  0.50410  0.58249  0.98860  1.0000
  O   O57       1.0  0.36660  0.06223  0.81210  1.0000
  O   O58       1.0  0.13340  0.56223  0.68790  1.0000
  O   O59       1.0  0.63340  0.93777  0.18790  1.0000
  O   O60       1.0  0.86660  0.43777  0.31210  1.0000
  H   H1        1.0  0.29260  0.05230  0.85710  1.0000
  H   H2        1.0  0.20740  0.55230  0.64290  1.0000
  H   H3        1.0  0.70740  0.94770  0.14290  1.0000
  H   H4        1.0  0.79260  0.44770  0.35710  1.0000
  H   H5        1.0  0.34300  0.09170  0.74880  1.0000
  H   H6        1.0  0.15700  0.59170  0.75120  1.0000
  H   H7        1.0  0.65700  0.90830  0.25120  1.0000
  H   H8        1.0  0.84300  0.40830  0.24880  1.0000
  O   O61       1.0  0.66180  0.07688  0.74370  1.0000
  O   O62       1.0  0.83820  0.57688  0.75630  1.0000
  O   O63       1.0  0.33820  0.92312  0.25630  1.0000
  O   O64       1.0  0.16180  0.42312  0.24370  1.0000
  H   H9        1.0  0.66480  0.10110  0.67980  1.0000
  H   H10       1.0  0.83520  0.60110  0.82020  1.0000
  H   H11       1.0  0.33520  0.89890  0.32020  1.0000
  H   H12       1.0  0.16480  0.39890  0.17980  1.0000
  H   H13       1.0  0.73600  0.05170  0.74820  1.0000
  H   H14       1.0  0.76400  0.55170  0.75180  1.0000
  H   H15       1.0  0.26400  0.94830  0.25180  1.0000
  H   H16       1.0  0.23600  0.44830  0.24820  1.0000
  O   O65       1.0  0.27970  0.06873  0.43280  1.0000
  O   O66       1.0  0.22030  0.56873  0.06720  1.0000
  O   O67       1.0  0.72030  0.93127  0.56720  1.0000
  O   O68       1.0  0.77970  0.43127  0.93280  1.0000
  H   H17       1.0  0.35950  0.06220  0.40600  1.0000
  H   H18       1.0  0.14050  0.56220  0.09400  1.0000
  H   H19       1.0  0.64050  0.93780  0.59400  1.0000
  H   H20       1.0  0.85950  0.43780  0.90600  1.0000
  H   H21       1.0  0.30580  0.09070  0.49930  1.0000
  H   H22       1.0  0.19420  0.59070  0.00070  1.0000
  H   H23       1.0  0.69420  0.90930  0.50070  1.0000
  H   H24       1.0  0.80580  0.40930  0.99930  1.0000
  C   C1        1.0  0.32610  0.12950  0.12270  1.0000
  C   C2        1.0  0.17390  0.62950  0.37730  1.0000
  C   C3        1.0  0.67390  0.87050  0.87730  1.0000
  C   C4        1.0  0.82610  0.37050  0.62270  1.0000
  C   C5        1.0  0.31510  0.05661  0.12500  1.0000
  C   C6        1.0  0.18490  0.55661  0.37500  1.0000
  C   C7        1.0  0.68490  0.94339  0.87500  1.0000
  C   C8        1.0  0.81510  0.44339  0.62500  1.0000
  C   C9        1.0  0.86910  0.09162  0.06920  1.0000
  C   C10       1.0  0.63090  0.59162  0.43080  1.0000
  C   C11       1.0  0.13090  0.90838  0.93080  1.0000
  C   C12       1.0  0.36910  0.40838  0.56920  1.0000
  C   C13       1.0  0.77720  0.09027  0.17680  1.0000
  C   C14       1.0  0.72280  0.59027  0.32320  1.0000
  C   C15       1.0  0.22280  0.90973  0.82320  1.0000
  C   C16       1.0  0.27720  0.40973  0.67680  1.0000
  C   C17       1.0  0.61990  0.25057  0.92600  1.0000
  C   C18       1.0  0.88010  0.75057  0.57400  1.0000
  C   C19       1.0  0.38010  0.74943  0.07400  1.0000
  C   C20       1.0  0.11990  0.24943  0.42600  1.0000
  C   C21       1.0  0.52350  0.23937  0.81640  1.0000
  C   C22       1.0  0.97650  0.73937  0.68360  1.0000
  C   C23       1.0  0.47650  0.76063  0.18360  1.0000
  C   C24       1.0  0.02350  0.26063  0.31640  1.0000
  C   C25       1.0  0.01130  0.97338  0.45240  1.0000
  C   C26       1.0  0.48870  0.47338  0.04760  1.0000
  C   C27       1.0  0.98870  0.02662  0.54760  1.0000
  C   C28       1.0  0.51130  0.52662  0.95240  1.0000
