data_image0
_chemical_formula_structural       Nd8O72H16C32
_chemical_formula_sum              "Nd8 O72 H16 C32"
_cell_length_a       14.184
_cell_length_b       11.515
_cell_length_c       15.619
_cell_angle_alpha    90
_cell_angle_beta     106.633
_cell_angle_gamma    90

_space_group_name_H-M_alt    "P 1"
_space_group_IT_number       1

loop_
  _space_group_symop_operation_xyz
  'x, y, z'

loop_
  _atom_site_type_symbol
  _atom_site_label
  _atom_site_symmetry_multiplicity
  _atom_site_fract_x
  _atom_site_fract_y
  _atom_site_fract_z
  _atom_site_occupancy
  Nd  Nd1       1.0  0.32455  0.35717  0.33983  1.0000
  Nd  Nd2       1.0  0.82455  0.85717  0.33983  1.0000
  Nd  Nd3       1.0  0.67545  0.35717  0.16017  1.0000
  Nd  Nd4       1.0  0.17545  0.85717  0.16017  1.0000
  Nd  Nd5       1.0  0.67545  0.64283  0.66017  1.0000
  Nd  Nd6       1.0  0.17545  0.14283  0.66017  1.0000
  Nd  Nd7       1.0  0.32455  0.64283  0.83983  1.0000
  Nd  Nd8       1.0  0.82455  0.14283  0.83983  1.0000
  O   O1        1.0  0.19515  0.23982  0.23600  1.0000
  O   O2        1.0  0.69515  0.73982  0.23600  1.0000
  O   O3        1.0  0.80485  0.23982  0.26400  1.0000
  O   O4        1.0  0.30485  0.73982  0.26400  1.0000
  O   O5        1.0  0.80485  0.76018  0.76400  1.0000
  O   O6        1.0  0.30485  0.26018  0.76400  1.0000
  O   O7        1.0  0.19515  0.76018  0.73600  1.0000
  O   O8        1.0  0.69515  0.26018  0.73600  1.0000
  O   O9        1.0  0.14289  0.06677  0.17652  1.0000
  O   O10       1.0  0.64289  0.56677  0.17652  1.0000
  O   O11       1.0  0.85711  0.06677  0.32348  1.0000
  O   O12       1.0  0.35711  0.56677  0.32348  1.0000
  O   O13       1.0  0.85711  0.93323  0.82348  1.0000
  O   O14       1.0  0.35711  0.43323  0.82348  1.0000
  O   O15       1.0  0.14289  0.93323  0.67652  1.0000
  O   O16       1.0  0.64289  0.43323  0.67652  1.0000
  O   O17       1.0  0.32172  0.97795  0.24562  1.0000
  O   O18       1.0  0.82172  0.47795  0.24562  1.0000
  O   O19       1.0  0.67828  0.97795  0.25438  1.0000
  O   O20       1.0  0.17828  0.47795  0.25438  1.0000
  O   O21       1.0  0.67828  0.02205  0.75438  1.0000
  O   O22       1.0  0.17828  0.52205  0.75438  1.0000
  O   O23       1.0  0.32172  0.02205  0.74562  1.0000
  O   O24       1.0  0.82172  0.52205  0.74562  1.0000
  O   O25       1.0  0.37653  0.15073  0.30694  1.0000
  O   O26       1.0  0.87653  0.65073  0.30694  1.0000
  O   O27       1.0  0.62347  0.15073  0.19306  1.0000
  O   O28       1.0  0.12347  0.65073  0.19306  1.0000
  O   O29       1.0  0.62347  0.84927  0.69306  1.0000
  O   O30       1.0  0.12347  0.34927  0.69306  1.0000
  O   O31       1.0  0.37653  0.84927  0.80694  1.0000
  O   O32       1.0  0.87653  0.34927  0.80694  1.0000
  O   O33       1.0  0.35674  0.22068  0.46863  1.0000
  O   O34       1.0  0.85674  0.72068  0.46863  1.0000
  O   O35       1.0  0.64326  0.22068  0.03137  1.0000
  O   O36       1.0  0.14326  0.72068  0.03137  1.0000
  O   O37       1.0  0.64326  0.77932  0.53137  1.0000
  O   O38       1.0  0.14326  0.27932  0.53137  1.0000
  O   O39       1.0  0.35674  0.77932  0.96863  1.0000
  O   O40       1.0  0.85674  0.27932  0.96863  1.0000
  O   O41       1.0  0.30542  0.14609  0.58019  1.0000
  O   O42       1.0  0.80542  0.64609  0.58019  1.0000
  O   O43       1.0  0.69458  0.14609  0.91981  1.0000
  O   O44       1.0  0.19458  0.64609  0.91981  1.0000
  O   O45       1.0  0.69458  0.85391  0.41981  1.0000
  O   O46       1.0  0.19458  0.35391  0.41981  1.0000
  O   O47       1.0  0.30542  0.85391  0.08019  1.0000
  O   O48       1.0  0.80542  0.35391  0.08019  1.0000
  O   O49       1.0  0.50347  0.36481  0.36326  1.0000
  O   O50       1.0  0.00347  0.86481  0.36326  1.0000
  O   O51       1.0  0.49653  0.36481  0.13674  1.0000
  O   O52       1.0  0.99653  0.86481  0.13674  1.0000
  O   O53       1.0  0.49653  0.63519  0.63674  1.0000
  O   O54       1.0  0.99653  0.13519  0.63674  1.0000
  O   O55       1.0  0.50347  0.63519  0.86326  1.0000
  O   O56       1.0  0.00347  0.13519  0.86326  1.0000
  O   O57       1.0  0.62757  0.36599  0.30023  1.0000
  O   O58       1.0  0.12757  0.86599  0.30023  1.0000
  O   O59       1.0  0.37243  0.36599  0.19977  1.0000
  O   O60       1.0  0.87243  0.86599  0.19977  1.0000
  O   O61       1.0  0.37243  0.63401  0.69977  1.0000
  O   O62       1.0  0.87243  0.13401  0.69977  1.0000
  O   O63       1.0  0.62757  0.63401  0.80023  1.0000
  O   O64       1.0  0.12757  0.13401  0.80023  1.0000
  O   O65       1.0  0.38781  0.46519  0.48983  1.0000
  O   O66       1.0  0.88781  0.96519  0.48983  1.0000
  O   O67       1.0  0.61219  0.46519  0.01017  1.0000
  O   O68       1.0  0.11219  0.96519  0.01017  1.0000
  O   O69       1.0  0.61219  0.53481  0.51017  1.0000
  O   O70       1.0  0.11219  0.03481  0.51017  1.0000
  O   O71       1.0  0.38781  0.53481  0.98983  1.0000
  O   O72       1.0  0.88781  0.03481  0.98983  1.0000
  H   H1        1.0  0.41800  0.53410  0.50220  1.0000
  H   H2        1.0  0.91800  0.03410  0.50220  1.0000
  H   H3        1.0  0.58200  0.53410  0.99780  1.0000
  H   H4        1.0  0.08200  0.03410  0.99780  1.0000
  H   H5        1.0  0.58200  0.46590  0.49780  1.0000
  H   H6        1.0  0.08200  0.96590  0.49780  1.0000
  H   H7        1.0  0.41800  0.46590  0.00220  1.0000
  H   H8        1.0  0.91800  0.96590  0.00220  1.0000
  H   H9        1.0  0.40900  0.41630  0.54080  1.0000
  H   H10       1.0  0.90900  0.91630  0.54080  1.0000
  H   H11       1.0  0.59100  0.41630  0.95920  1.0000
  H   H12       1.0  0.09100  0.91630  0.95920  1.0000
  H   H13       1.0  0.59100  0.58370  0.45920  1.0000
  H   H14       1.0  0.09100  0.08370  0.45920  1.0000
  H   H15       1.0  0.40900  0.58370  0.04080  1.0000
  H   H16       1.0  0.90900  0.08370  0.04080  1.0000
  C   C1        1.0  0.20745  0.13440  0.22188  1.0000
  C   C2        1.0  0.70745  0.63440  0.22188  1.0000
  C   C3        1.0  0.79255  0.13440  0.27812  1.0000
  C   C4        1.0  0.29255  0.63440  0.27812  1.0000
  C   C5        1.0  0.79255  0.86560  0.77812  1.0000
  C   C6        1.0  0.29255  0.36560  0.77812  1.0000
  C   C7        1.0  0.20745  0.86560  0.72188  1.0000
  C   C8        1.0  0.70745  0.36560  0.72188  1.0000
  C   C9        1.0  0.31186  0.08370  0.26203  1.0000
  C   C10       1.0  0.81186  0.58370  0.26203  1.0000
  C   C11       1.0  0.68814  0.08370  0.23797  1.0000
  C   C12       1.0  0.18814  0.58370  0.23797  1.0000
  C   C13       1.0  0.68814  0.91630  0.73797  1.0000
  C   C14       1.0  0.18814  0.41630  0.73797  1.0000
  C   C15       1.0  0.31186  0.91630  0.76203  1.0000
  C   C16       1.0  0.81186  0.41630  0.76203  1.0000
  C   C17       1.0  0.29729  0.21120  0.51424  1.0000
  C   C18       1.0  0.79729  0.71120  0.51424  1.0000
  C   C19       1.0  0.70271  0.21120  0.98576  1.0000
  C   C20       1.0  0.20271  0.71120  0.98576  1.0000
  C   C21       1.0  0.70271  0.78880  0.48576  1.0000
  C   C22       1.0  0.20271  0.28880  0.48576  1.0000
  C   C23       1.0  0.29729  0.78880  0.01424  1.0000
  C   C24       1.0  0.79729  0.28880  0.01424  1.0000
  C   C25       1.0  0.53795  0.36480  0.29778  1.0000
  C   C26       1.0  0.03795  0.86480  0.29778  1.0000
  C   C27       1.0  0.46205  0.36480  0.20222  1.0000
  C   C28       1.0  0.96205  0.86480  0.20222  1.0000
  C   C29       1.0  0.46205  0.63520  0.70222  1.0000
  C   C30       1.0  0.96205  0.13520  0.70222  1.0000
  C   C31       1.0  0.53795  0.63520  0.79778  1.0000
  C   C32       1.0  0.03795  0.13520  0.79778  1.0000
