data_image0
_chemical_formula_structural       Yb4O32C16
_chemical_formula_sum              "Yb4 O32 C16"
_cell_length_a       8.441
_cell_length_b       8.441
_cell_length_c       17.5
_cell_angle_alpha    90
_cell_angle_beta     90
_cell_angle_gamma    90

_space_group_name_H-M_alt    "P 1"
_space_group_IT_number       1

loop_
  _space_group_symop_operation_xyz
  'x, y, z'

loop_
  _atom_site_type_symbol
  _atom_site_label
  _atom_site_symmetry_multiplicity
  _atom_site_fract_x
  _atom_site_fract_y
  _atom_site_fract_z
  _atom_site_occupancy
  Yb  Yb1       1.0  0.00000  0.25000  0.12500  1.0000
  Yb  Yb2       1.0  0.50000  0.25000  0.37500  1.0000
  Yb  Yb3       1.0  0.50000  0.75000  0.62500  1.0000
  Yb  Yb4       1.0  0.00000  0.75000  0.87500  1.0000
  O   O1        1.0  0.13860  0.14790  0.01736  1.0000
  O   O2        1.0  0.60210  0.38860  0.26736  1.0000
  O   O3        1.0  0.39790  0.11140  0.26736  1.0000
  O   O4        1.0  0.63860  0.64790  0.51736  1.0000
  O   O5        1.0  0.10210  0.88860  0.76736  1.0000
  O   O6        1.0  0.86140  0.35210  0.01736  1.0000
  O   O7        1.0  0.36140  0.85210  0.51736  1.0000
  O   O8        1.0  0.89790  0.61140  0.76736  1.0000
  O   O9        1.0  0.86140  0.85210  0.98264  1.0000
  O   O10       1.0  0.39790  0.61140  0.73264  1.0000
  O   O11       1.0  0.60210  0.88860  0.73264  1.0000
  O   O12       1.0  0.36140  0.35210  0.48264  1.0000
  O   O13       1.0  0.89790  0.11140  0.23264  1.0000
  O   O14       1.0  0.13860  0.64790  0.98264  1.0000
  O   O15       1.0  0.63860  0.14790  0.48264  1.0000
  O   O16       1.0  0.10210  0.38860  0.23264  1.0000
  O   O17       1.0  0.12650  0.97030  0.92263  1.0000
  O   O18       1.0  0.77970  0.37650  0.17263  1.0000
  O   O19       1.0  0.22030  0.12350  0.17263  1.0000
  O   O20       1.0  0.62650  0.47030  0.42263  1.0000
  O   O21       1.0  0.27970  0.87650  0.67263  1.0000
  O   O22       1.0  0.87350  0.52970  0.92263  1.0000
  O   O23       1.0  0.37350  0.02970  0.42263  1.0000
  O   O24       1.0  0.72030  0.62350  0.67263  1.0000
  O   O25       1.0  0.87350  0.02970  0.07737  1.0000
  O   O26       1.0  0.22030  0.62350  0.82737  1.0000
  O   O27       1.0  0.77970  0.87650  0.82737  1.0000
  O   O28       1.0  0.37350  0.52970  0.57737  1.0000
  O   O29       1.0  0.72030  0.12350  0.32737  1.0000
  O   O30       1.0  0.12650  0.47030  0.07737  1.0000
  O   O31       1.0  0.62650  0.97030  0.57737  1.0000
  O   O32       1.0  0.27970  0.37650  0.32737  1.0000
  C   C1        1.0  0.07720  0.03410  0.98288  1.0000
  C   C2        1.0  0.71590  0.32720  0.23288  1.0000
  C   C3        1.0  0.28410  0.17280  0.23288  1.0000
  C   C4        1.0  0.57720  0.53410  0.48288  1.0000
  C   C5        1.0  0.21590  0.82720  0.73288  1.0000
  C   C6        1.0  0.92280  0.46590  0.98288  1.0000
  C   C7        1.0  0.42280  0.96590  0.48288  1.0000
  C   C8        1.0  0.78410  0.67280  0.73288  1.0000
  C   C9        1.0  0.92280  0.96590  0.01712  1.0000
  C   C10       1.0  0.28410  0.67280  0.76712  1.0000
  C   C11       1.0  0.71590  0.82720  0.76712  1.0000
  C   C12       1.0  0.42280  0.46590  0.51712  1.0000
  C   C13       1.0  0.78410  0.17280  0.26712  1.0000
  C   C14       1.0  0.07720  0.53410  0.01712  1.0000
  C   C15       1.0  0.57720  0.03410  0.51712  1.0000
  C   C16       1.0  0.21590  0.32720  0.26712  1.0000
