data_image0
_chemical_formula_structural       Pr4O8C8F12O8C8F12O8C8F12O8C8F12
_chemical_formula_sum              "Pr4 O32 C32 F48"
_cell_length_a       9.124
_cell_length_b       31.607
_cell_length_c       13.006
_cell_angle_alpha    90
_cell_angle_beta     99.55
_cell_angle_gamma    90

_space_group_name_H-M_alt    "P 1"
_space_group_IT_number       1

loop_
  _space_group_symop_operation_xyz
  'x, y, z'

loop_
  _atom_site_type_symbol
  _atom_site_label
  _atom_site_symmetry_multiplicity
  _atom_site_fract_x
  _atom_site_fract_y
  _atom_site_fract_z
  _atom_site_occupancy
  Pr  Pr1       1.0  0.68210  0.99771  0.40738  1.0000
  Pr  Pr2       1.0  0.31790  0.49771  0.59262  1.0000
  Pr  Pr3       1.0  0.31790  0.00229  0.59262  1.0000
  Pr  Pr4       1.0  0.68210  0.50229  0.40738  1.0000
  O   O1        1.0  0.88600  0.04270  0.46000  1.0000
  O   O2        1.0  0.11400  0.54270  0.54000  1.0000
  O   O3        1.0  0.11400  0.95730  0.54000  1.0000
  O   O4        1.0  0.88600  0.45730  0.46000  1.0000
  O   O5        1.0  0.87800  0.94860  0.47100  1.0000
  O   O6        1.0  0.12200  0.44860  0.52900  1.0000
  O   O7        1.0  0.12200  0.05140  0.52900  1.0000
  O   O8        1.0  0.87800  0.55140  0.47100  1.0000
  C   C1        1.0  0.99800  0.06160  0.47900  1.0000
  C   C2        1.0  0.00200  0.56160  0.52100  1.0000
  C   C3        1.0  0.00200  0.93840  0.52100  1.0000
  C   C4        1.0  0.99800  0.43840  0.47900  1.0000
  C   C5        1.0  0.99900  0.10700  0.43300  1.0000
  C   C6        1.0  0.00100  0.60700  0.56700  1.0000
  C   C7        1.0  0.00100  0.89300  0.56700  1.0000
  C   C8        1.0  0.99900  0.39300  0.43300  1.0000
  F   F1        1.0  0.00900  0.13510  0.50200  1.0000
  F   F2        1.0  0.99100  0.63510  0.49800  1.0000
  F   F3        1.0  0.99100  0.86490  0.49800  1.0000
  F   F4        1.0  0.00900  0.36490  0.50200  1.0000
  F   F5        1.0  0.11700  0.11500  0.39500  1.0000
  F   F6        1.0  0.88300  0.61500  0.60500  1.0000
  F   F7        1.0  0.88300  0.88500  0.60500  1.0000
  F   F8        1.0  0.11700  0.38500  0.39500  1.0000
  F   F9        1.0  0.90000  0.11450  0.35700  1.0000
  F   F10       1.0  0.10000  0.61450  0.64300  1.0000
  F   F11       1.0  0.10000  0.88550  0.64300  1.0000
  F   F12       1.0  0.90000  0.38550  0.35700  1.0000
  O   O9        1.0  0.44600  0.99280  0.27200  1.0000
  O   O10       1.0  0.55400  0.49280  0.72800  1.0000
  O   O11       1.0  0.55400  0.00720  0.72800  1.0000
  O   O12       1.0  0.44600  0.50720  0.27200  1.0000
  O   O13       1.0  0.66700  0.00090  0.58300  1.0000
  O   O14       1.0  0.33300  0.50090  0.41700  1.0000
  O   O15       1.0  0.33300  0.99910  0.41700  1.0000
  O   O16       1.0  0.66700  0.49910  0.58300  1.0000
  C   C9        1.0  0.34400  0.99200  0.31800  1.0000
  C   C10       1.0  0.65600  0.49200  0.68200  1.0000
  C   C11       1.0  0.65600  0.00800  0.68200  1.0000
  C   C12       1.0  0.34400  0.50800  0.31800  1.0000
  C   C13       1.0  0.20100  0.98200  0.25300  1.0000
  C   C14       1.0  0.79900  0.48200  0.74700  1.0000
  C   C15       1.0  0.79900  0.01800  0.74700  1.0000
  C   C16       1.0  0.20100  0.51800  0.25300  1.0000
  F   F13       1.0  0.18500  0.98700  0.15900  1.0000
  F   F14       1.0  0.81500  0.48700  0.84100  1.0000
  F   F15       1.0  0.81500  0.01300  0.84100  1.0000
  F   F16       1.0  0.18500  0.51300  0.15900  1.0000
  F   F17       1.0  0.08600  0.99900  0.28200  1.0000
  F   F18       1.0  0.91400  0.49900  0.71800  1.0000
  F   F19       1.0  0.91400  0.00100  0.71800  1.0000
  F   F20       1.0  0.08600  0.50100  0.28200  1.0000
  F   F21       1.0  0.16000  0.94300  0.25900  1.0000
  F   F22       1.0  0.84000  0.44300  0.74100  1.0000
  F   F23       1.0  0.84000  0.05700  0.74100  1.0000
  F   F24       1.0  0.16000  0.55700  0.25900  1.0000
  O   O17       1.0  0.56200  0.06640  0.42900  1.0000
  O   O18       1.0  0.43800  0.56640  0.57100  1.0000
  O   O19       1.0  0.43800  0.93360  0.57100  1.0000
  O   O20       1.0  0.56200  0.43360  0.42900  1.0000
  O   O21       1.0  0.55900  0.93000  0.43600  1.0000
  O   O22       1.0  0.44100  0.43000  0.56400  1.0000
  O   O23       1.0  0.44100  0.07000  0.56400  1.0000
  O   O24       1.0  0.55900  0.57000  0.43600  1.0000
  C   C17       1.0  0.50700  0.08460  0.49700  1.0000
  C   C18       1.0  0.49300  0.58460  0.50300  1.0000
  C   C19       1.0  0.49300  0.91540  0.50300  1.0000
  C   C20       1.0  0.50700  0.41540  0.49700  1.0000
  C   C21       1.0  0.53200  0.13250  0.50200  1.0000
  C   C22       1.0  0.46800  0.63250  0.49800  1.0000
  C   C23       1.0  0.46800  0.86750  0.49800  1.0000
  C   C24       1.0  0.53200  0.36750  0.50200  1.0000
  F   F25       1.0  0.42700  0.15350  0.53500  1.0000
  F   F26       1.0  0.57300  0.65350  0.46500  1.0000
  F   F27       1.0  0.57300  0.84650  0.46500  1.0000
  F   F28       1.0  0.42700  0.34650  0.53500  1.0000
  F   F29       1.0  0.55200  0.14960  0.41500  1.0000
  F   F30       1.0  0.44800  0.64960  0.58500  1.0000
  F   F31       1.0  0.44800  0.85040  0.58500  1.0000
  F   F32       1.0  0.55200  0.35040  0.41500  1.0000
  F   F33       1.0  0.64500  0.14230  0.57100  1.0000
  F   F34       1.0  0.35500  0.64230  0.42900  1.0000
  F   F35       1.0  0.35500  0.85770  0.42900  1.0000
  F   F36       1.0  0.64500  0.35770  0.57100  1.0000
  O   O25       1.0  0.75000  0.96080  0.24600  1.0000
  O   O26       1.0  0.25000  0.46080  0.75400  1.0000
  O   O27       1.0  0.25000  0.03920  0.75400  1.0000
  O   O28       1.0  0.75000  0.53920  0.24600  1.0000
  O   O29       1.0  0.73800  0.02980  0.23800  1.0000
  O   O30       1.0  0.26200  0.52980  0.76200  1.0000
  O   O31       1.0  0.26200  0.97020  0.76200  1.0000
  O   O32       1.0  0.73800  0.47020  0.23800  1.0000
  C   C25       1.0  0.75400  0.99490  0.20200  1.0000
  C   C26       1.0  0.24600  0.49490  0.79800  1.0000
  C   C27       1.0  0.24600  0.00510  0.79800  1.0000
  C   C28       1.0  0.75400  0.50510  0.20200  1.0000
  C   C29       1.0  0.79200  0.99340  0.09000  1.0000
  C   C30       1.0  0.20800  0.49340  0.91000  1.0000
  C   C31       1.0  0.20800  0.00660  0.91000  1.0000
  C   C32       1.0  0.79200  0.50660  0.09000  1.0000
  F   F37       1.0  0.86800  0.02560  0.06500  1.0000
  F   F38       1.0  0.13200  0.52560  0.93500  1.0000
  F   F39       1.0  0.13200  0.97440  0.93500  1.0000
  F   F40       1.0  0.86800  0.47440  0.06500  1.0000
  F   F41       1.0  0.85800  0.95940  0.06900  1.0000
  F   F42       1.0  0.14200  0.45940  0.93100  1.0000
  F   F43       1.0  0.14200  0.04060  0.93100  1.0000
  F   F44       1.0  0.85800  0.54060  0.06900  1.0000
  F   F45       1.0  0.66200  0.99470  0.02500  1.0000
  F   F46       1.0  0.33800  0.49470  0.97500  1.0000
  F   F47       1.0  0.33800  0.00530  0.97500  1.0000
  F   F48       1.0  0.66200  0.50530  0.02500  1.0000
