data_image0
_chemical_formula_structural       Bi2S20C12Bi2S20C12
_chemical_formula_sum              "Bi4 S40 C24"
_cell_length_a       7.503
_cell_length_b       17.799
_cell_length_c       21.18
_cell_angle_alpha    77.75
_cell_angle_beta     80.09
_cell_angle_gamma    78.55

_space_group_name_H-M_alt    "P 1"
_space_group_IT_number       1

loop_
  _space_group_symop_operation_xyz
  'x, y, z'

loop_
  _atom_site_type_symbol
  _atom_site_label
  _atom_site_symmetry_multiplicity
  _atom_site_fract_x
  _atom_site_fract_y
  _atom_site_fract_z
  _atom_site_occupancy
  Bi  Bi1       1.0  0.23591  0.02037  0.00433  1.0000
  Bi  Bi2       1.0  0.76409  0.97963  0.99567  1.0000
  S   S1        1.0  0.49200  0.10100  0.91480  1.0000
  S   S2        1.0  0.50800  0.89900  0.08520  1.0000
  S   S3        1.0  0.35910  0.09810  0.07750  1.0000
  S   S4        1.0  0.64090  0.90190  0.92250  1.0000
  S   S5        1.0  0.49180  0.27100  0.90820  1.0000
  S   S6        1.0  0.50820  0.72900  0.09180  1.0000
  S   S7        1.0  0.35840  0.26970  0.04240  1.0000
  S   S8        1.0  0.64160  0.73030  0.95760  1.0000
  S   S9        1.0  0.43130  0.41990  0.95780  1.0000
  S   S10       1.0  0.56870  0.58010  0.04220  1.0000
  S   S11       1.0  0.99360  0.14740  0.96730  1.0000
  S   S12       1.0  0.00640  0.85260  0.03270  1.0000
  S   S13       1.0  0.94360  0.01170  0.10850  1.0000
  S   S14       1.0  0.05640  0.98830  0.89150  1.0000
  S   S15       1.0  0.82150  0.26270  0.05200  1.0000
  S   S16       1.0  0.17850  0.73730  0.94800  1.0000
  S   S17       1.0  0.75470  0.15060  0.16800  1.0000
  S   S18       1.0  0.24530  0.84940  0.83200  1.0000
  S   S19       1.0  0.61970  0.32030  0.17000  1.0000
  S   S20       1.0  0.38030  0.67970  0.83000  1.0000
  C   C1        1.0  0.45740  0.18040  0.95430  1.0000
  C   C2        1.0  0.54260  0.81960  0.04570  1.0000
  C   C3        1.0  0.40080  0.17810  0.01900  1.0000
  C   C4        1.0  0.59920  0.82190  0.98100  1.0000
  C   C5        1.0  0.42650  0.32610  0.96880  1.0000
  C   C6        1.0  0.57350  0.67390  0.03120  1.0000
  C   C7        1.0  0.89440  0.16450  0.04480  1.0000
  C   C8        1.0  0.10560  0.83550  0.95520  1.0000
  C   C9        1.0  0.86790  0.11240  0.09880  1.0000
  C   C10       1.0  0.13210  0.88760  0.90120  1.0000
  C   C11       1.0  0.72430  0.24950  0.13200  1.0000
  C   C12       1.0  0.27570  0.75050  0.86800  1.0000
  Bi  Bi3       1.0  0.23861  0.52151  0.50240  1.0000
  Bi  Bi4       1.0  0.76139  0.47849  0.49760  1.0000
  S   S21       1.0  0.44090  0.51720  0.60520  1.0000
  S   S22       1.0  0.55910  0.48280  0.39480  1.0000
  S   S23       1.0  0.39150  0.64910  0.46350  1.0000
  S   S24       1.0  0.60850  0.35090  0.53650  1.0000
  S   S25       1.0  0.43010  0.65790  0.66280  1.0000
  S   S26       1.0  0.56990  0.34210  0.33720  1.0000
  S   S27       1.0  0.36100  0.76770  0.54670  1.0000
  S   S28       1.0  0.63900  0.23230  0.45330  1.0000
  S   S29       1.0  0.38410  0.82850  0.66390  1.0000
  S   S30       1.0  0.61590  0.17150  0.33610  1.0000
  S   S31       1.0  0.99480  0.59850  0.41340  1.0000
  S   S32       1.0  0.00520  0.40150  0.58660  1.0000
  S   S33       1.0  0.96970  0.59970  0.57510  1.0000
  S   S34       1.0  0.03030  0.40030  0.42490  1.0000
  S   S35       1.0  0.82840  0.76810  0.40430  1.0000
  S   S36       1.0  0.17160  0.23190  0.59570  1.0000
  S   S37       1.0  0.82840  0.76950  0.53860  1.0000
  S   S38       1.0  0.17160  0.23050  0.46140  1.0000
  S   S39       1.0  0.68830  0.91720  0.45270  1.0000
  S   S40       1.0  0.31170  0.08280  0.54730  1.0000
  C   C13       1.0  0.42410  0.61800  0.59500  1.0000
  C   C14       1.0  0.57590  0.38200  0.40500  1.0000
  C   C15       1.0  0.39760  0.67010  0.53900  1.0000
  C   C16       1.0  0.60240  0.32990  0.46100  1.0000
  C   C17       1.0  0.38680  0.75550  0.62650  1.0000
  C   C18       1.0  0.61320  0.24450  0.37350  1.0000
  C   C19       1.0  0.90820  0.67940  0.45150  1.0000
  C   C20       1.0  0.09180  0.32060  0.54850  1.0000
  C   C21       1.0  0.90450  0.67820  0.51610  1.0000
  C   C22       1.0  0.09550  0.32180  0.48390  1.0000
  C   C23       1.0  0.77740  0.82250  0.46480  1.0000
  C   C24       1.0  0.22260  0.17750  0.53520  1.0000
