data_image0
_chemical_formula_structural       Bi4S40C24
_chemical_formula_sum              "Bi4 S40 C24"
_cell_length_a       8.106
_cell_length_b       20.495
_cell_length_c       14.886
_cell_angle_alpha    90
_cell_angle_beta     90
_cell_angle_gamma    90

_space_group_name_H-M_alt    "P 1"
_space_group_IT_number       1

loop_
  _space_group_symop_operation_xyz
  'x, y, z'

loop_
  _atom_site_type_symbol
  _atom_site_label
  _atom_site_symmetry_multiplicity
  _atom_site_fract_x
  _atom_site_fract_y
  _atom_site_fract_z
  _atom_site_occupancy
  Bi  Bi1       1.0  0.79450  0.77661  0.64780  1.0000
  Bi  Bi2       1.0  0.20550  0.22339  0.14780  1.0000
  Bi  Bi3       1.0  0.29450  0.72339  0.64780  1.0000
  Bi  Bi4       1.0  0.70550  0.27661  0.14780  1.0000
  S   S1        1.0  0.84000  0.89060  0.56540  1.0000
  S   S2        1.0  0.16000  0.10940  0.06540  1.0000
  S   S3        1.0  0.34000  0.60940  0.56540  1.0000
  S   S4        1.0  0.66000  0.39060  0.06540  1.0000
  S   S5        1.0  0.56000  0.76780  0.51030  1.0000
  S   S6        1.0  0.44000  0.23220  0.01030  1.0000
  S   S7        1.0  0.06000  0.73220  0.51030  1.0000
  S   S8        1.0  0.94000  0.26780  0.01030  1.0000
  S   S9        1.0  0.33000  0.87800  0.47400  1.0000
  S   S10       1.0  0.67000  0.12200  0.97400  1.0000
  S   S11       1.0  0.83000  0.62200  0.47400  1.0000
  S   S12       1.0  0.17000  0.37800  0.97400  1.0000
  S   S13       1.0  0.56500  0.97910  0.51200  1.0000
  S   S14       1.0  0.43500  0.02090  0.01200  1.0000
  S   S15       1.0  0.06500  0.52090  0.51200  1.0000
  S   S16       1.0  0.93500  0.47910  0.01200  1.0000
  S   S17       1.0  0.23300  0.01670  0.45000  1.0000
  S   S18       1.0  0.76700  0.98330  0.95000  1.0000
  S   S19       1.0  0.73300  0.48330  0.45000  1.0000
  S   S20       1.0  0.26700  0.51670  0.95000  1.0000
  S   S21       1.0  0.59400  0.84880  0.74900  1.0000
  S   S22       1.0  0.40600  0.15120  0.24900  1.0000
  S   S23       1.0  0.09400  0.65120  0.74900  1.0000
  S   S24       1.0  0.90600  0.34880  0.24900  1.0000
  S   S25       1.0  0.57300  0.68040  0.75100  1.0000
  S   S26       1.0  0.42700  0.31960  0.25100  1.0000
  S   S27       1.0  0.07300  0.81960  0.75100  1.0000
  S   S28       1.0  0.92700  0.18040  0.25100  1.0000
  S   S29       1.0  0.44000  0.84050  0.92700  1.0000
  S   S30       1.0  0.56000  0.15950  0.42700  1.0000
  S   S31       1.0  0.94000  0.65950  0.92700  1.0000
  S   S32       1.0  0.06000  0.34050  0.42700  1.0000
  S   S33       1.0  0.41800  0.70260  0.93200  1.0000
  S   S34       1.0  0.58200  0.29740  0.43200  1.0000
  S   S35       1.0  0.91800  0.79740  0.93200  1.0000
  S   S36       1.0  0.08200  0.20260  0.43200  1.0000
  S   S37       1.0  0.28600  0.77840  0.08600  1.0000
  S   S38       1.0  0.71400  0.22160  0.58600  1.0000
  S   S39       1.0  0.78600  0.72160  0.08600  1.0000
  S   S40       1.0  0.21400  0.27840  0.58600  1.0000
  C   C1        1.0  0.63900  0.89600  0.52700  1.0000
  C   C2        1.0  0.36100  0.10400  0.02700  1.0000
  C   C3        1.0  0.13900  0.60400  0.52700  1.0000
  C   C4        1.0  0.86100  0.39600  0.02700  1.0000
  C   C5        1.0  0.53000  0.85300  0.50600  1.0000
  C   C6        1.0  0.47000  0.14700  0.00600  1.0000
  C   C7        1.0  0.03000  0.64700  0.50600  1.0000
  C   C8        1.0  0.97000  0.35300  0.00600  1.0000
  C   C9        1.0  0.36500  0.96000  0.48000  1.0000
  C   C10       1.0  0.63500  0.04000  0.98000  1.0000
  C   C11       1.0  0.86500  0.54000  0.48000  1.0000
  C   C12       1.0  0.13500  0.46000  0.98000  1.0000
  C   C13       1.0  0.52000  0.80200  0.83900  1.0000
  C   C14       1.0  0.48000  0.19800  0.33900  1.0000
  C   C15       1.0  0.02000  0.69800  0.83900  1.0000
  C   C16       1.0  0.98000  0.30200  0.33900  1.0000
  C   C17       1.0  0.51000  0.73200  0.83100  1.0000
  C   C18       1.0  0.49000  0.26800  0.33100  1.0000
  C   C19       1.0  0.01000  0.76800  0.83100  1.0000
  C   C20       1.0  0.99000  0.23200  0.33100  1.0000
  C   C21       1.0  0.38100  0.77100  0.98900  1.0000
  C   C22       1.0  0.61900  0.22900  0.48900  1.0000
  C   C23       1.0  0.88100  0.72900  0.98900  1.0000
  C   C24       1.0  0.11900  0.27100  0.48900  1.0000
