data_image0
_chemical_formula_structural       Ag32S120C72
_chemical_formula_sum              "Ag32 S120 C72"
_cell_length_a       32.078
_cell_length_b       11.791
_cell_length_c       29.409
_cell_angle_alpha    90
_cell_angle_beta     124.14
_cell_angle_gamma    90

_space_group_name_H-M_alt    "P 1"
_space_group_IT_number       1

loop_
  _space_group_symop_operation_xyz
  'x, y, z'

loop_
  _atom_site_type_symbol
  _atom_site_label
  _atom_site_symmetry_multiplicity
  _atom_site_fract_x
  _atom_site_fract_y
  _atom_site_fract_z
  _atom_site_occupancy
  Ag  Ag1       1.0  0.30585  0.59603  0.14487  1.0000
  Ag  Ag2       1.0  0.69415  0.59603  0.35513  1.0000
  Ag  Ag3       1.0  0.80585  0.09603  0.14487  1.0000
  Ag  Ag4       1.0  0.19415  0.09603  0.35513  1.0000
  Ag  Ag5       1.0  0.69415  0.40397  0.85513  1.0000
  Ag  Ag6       1.0  0.30585  0.40397  0.64487  1.0000
  Ag  Ag7       1.0  0.19415  0.90397  0.85513  1.0000
  Ag  Ag8       1.0  0.80585  0.90397  0.64487  1.0000
  Ag  Ag9       1.0  0.39256  0.58830  0.26473  1.0000
  Ag  Ag10      1.0  0.60744  0.58830  0.23527  1.0000
  Ag  Ag11      1.0  0.89256  0.08830  0.26473  1.0000
  Ag  Ag12      1.0  0.10744  0.08830  0.23527  1.0000
  Ag  Ag13      1.0  0.60744  0.41170  0.73527  1.0000
  Ag  Ag14      1.0  0.39256  0.41170  0.76473  1.0000
  Ag  Ag15      1.0  0.10744  0.91170  0.73527  1.0000
  Ag  Ag16      1.0  0.89256  0.91170  0.76473  1.0000
  Ag  Ag17      1.0  0.42176  0.68440  0.19523  1.0000
  Ag  Ag18      1.0  0.57824  0.68440  0.30477  1.0000
  Ag  Ag19      1.0  0.92176  0.18440  0.19523  1.0000
  Ag  Ag20      1.0  0.07824  0.18440  0.30477  1.0000
  Ag  Ag21      1.0  0.57824  0.31560  0.80477  1.0000
  Ag  Ag22      1.0  0.42176  0.31560  0.69523  1.0000
  Ag  Ag23      1.0  0.07824  0.81560  0.80477  1.0000
  Ag  Ag24      1.0  0.92176  0.81560  0.69523  1.0000
  Ag  Ag25      1.0  0.34770  0.82130  0.21694  1.0000
  Ag  Ag26      1.0  0.65230  0.82130  0.28306  1.0000
  Ag  Ag27      1.0  0.84770  0.32130  0.21694  1.0000
  Ag  Ag28      1.0  0.15230  0.32130  0.28306  1.0000
  Ag  Ag29      1.0  0.65230  0.17870  0.78306  1.0000
  Ag  Ag30      1.0  0.34770  0.17870  0.71694  1.0000
  Ag  Ag31      1.0  0.15230  0.67870  0.78306  1.0000
  Ag  Ag32      1.0  0.84770  0.67870  0.71694  1.0000
  S   S1        1.0  0.31837  0.46100  0.21710  1.0000
  S   S2        1.0  0.68163  0.46100  0.28290  1.0000
  S   S3        1.0  0.81837  0.96100  0.21710  1.0000
  S   S4        1.0  0.18163  0.96100  0.28290  1.0000
  S   S5        1.0  0.68163  0.53900  0.78290  1.0000
  S   S6        1.0  0.31837  0.53900  0.71710  1.0000
  S   S7        1.0  0.18163  0.03900  0.78290  1.0000
  S   S8        1.0  0.81837  0.03900  0.71710  1.0000
  S   S9        1.0  0.34640  0.71350  0.29360  1.0000
  S   S10       1.0  0.65360  0.71350  0.20640  1.0000
  S   S11       1.0  0.84640  0.21350  0.29360  1.0000
  S   S12       1.0  0.15360  0.21350  0.20640  1.0000
  S   S13       1.0  0.65360  0.28650  0.70640  1.0000
  S   S14       1.0  0.34640  0.28650  0.79360  1.0000
  S   S15       1.0  0.15360  0.78650  0.70640  1.0000
  S   S16       1.0  0.84640  0.78650  0.79360  1.0000
  S   S17       1.0  0.22940  0.45590  0.22280  1.0000
  S   S18       1.0  0.77060  0.45590  0.27720  1.0000
  S   S19       1.0  0.72940  0.95590  0.22280  1.0000
  S   S20       1.0  0.27060  0.95590  0.27720  1.0000
  S   S21       1.0  0.77060  0.54410  0.77720  1.0000
  S   S22       1.0  0.22940  0.54410  0.72280  1.0000
  S   S23       1.0  0.27060  0.04410  0.77720  1.0000
  S   S24       1.0  0.72940  0.04410  0.72280  1.0000
  S   S25       1.0  0.25060  0.66140  0.28290  1.0000
  S   S26       1.0  0.74940  0.66140  0.21710  1.0000
  S   S27       1.0  0.75060  0.16140  0.28290  1.0000
  S   S28       1.0  0.24940  0.16140  0.21710  1.0000
  S   S29       1.0  0.74940  0.33860  0.71710  1.0000
  S   S30       1.0  0.25060  0.33860  0.78290  1.0000
  S   S31       1.0  0.24940  0.83860  0.71710  1.0000
  S   S32       1.0  0.75060  0.83860  0.78290  1.0000
  S   S33       1.0  0.15760  0.53460  0.25020  1.0000
  S   S34       1.0  0.84240  0.53460  0.24980  1.0000
  S   S35       1.0  0.65760  0.03460  0.25020  1.0000
  S   S36       1.0  0.34240  0.03460  0.24980  1.0000
  S   S37       1.0  0.84240  0.46540  0.74980  1.0000
  S   S38       1.0  0.15760  0.46540  0.75020  1.0000
  S   S39       1.0  0.34240  0.96540  0.74980  1.0000
  S   S40       1.0  0.65760  0.96540  0.75020  1.0000
  S   S41       1.0  0.35530  0.63270  0.10120  1.0000
  S   S42       1.0  0.64470  0.63270  0.39880  1.0000
  S   S43       1.0  0.85530  0.13270  0.10120  1.0000
  S   S44       1.0  0.14470  0.13270  0.39880  1.0000
  S   S45       1.0  0.64470  0.36730  0.89880  1.0000
  S   S46       1.0  0.35530  0.36730  0.60120  1.0000
  S   S47       1.0  0.14470  0.86730  0.89880  1.0000
  S   S48       1.0  0.85530  0.86730  0.60120  1.0000
  S   S49       1.0  0.27270  0.79930  0.11940  1.0000
  S   S50       1.0  0.72730  0.79930  0.38060  1.0000
  S   S51       1.0  0.77270  0.29930  0.11940  1.0000
  S   S52       1.0  0.22730  0.29930  0.38060  1.0000
  S   S53       1.0  0.72730  0.20070  0.88060  1.0000
  S   S54       1.0  0.27270  0.20070  0.61940  1.0000
  S   S55       1.0  0.22730  0.70070  0.88060  1.0000
  S   S56       1.0  0.77270  0.70070  0.61940  1.0000
  S   S57       1.0  0.33180  0.80880  0.01850  1.0000
  S   S58       1.0  0.66820  0.80880  0.48150  1.0000
  S   S59       1.0  0.83180  0.30880  0.01850  1.0000
  S   S60       1.0  0.16820  0.30880  0.48150  1.0000
  S   S61       1.0  0.66820  0.19120  0.98150  1.0000
  S   S62       1.0  0.33180  0.19120  0.51850  1.0000
  S   S63       1.0  0.16820  0.69120  0.98150  1.0000
  S   S64       1.0  0.83180  0.69120  0.51850  1.0000
  S   S65       1.0  0.26530  0.93780  0.03250  1.0000
  S   S66       1.0  0.73470  0.93780  0.46750  1.0000
  S   S67       1.0  0.76530  0.43780  0.03250  1.0000
  S   S68       1.0  0.23470  0.43780  0.46750  1.0000
  S   S69       1.0  0.73470  0.06220  0.96750  1.0000
  S   S70       1.0  0.26530  0.06220  0.53250  1.0000
  S   S71       1.0  0.23470  0.56220  0.96750  1.0000
  S   S72       1.0  0.76530  0.56220  0.53250  1.0000
  S   S73       1.0  0.27940  0.00700  0.94490  1.0000
  S   S74       1.0  0.72060  0.00700  0.55510  1.0000
  S   S75       1.0  0.77940  0.50700  0.94490  1.0000
  S   S76       1.0  0.22060  0.50700  0.55510  1.0000
  S   S77       1.0  0.72060  0.99300  0.05510  1.0000
  S   S78       1.0  0.27940  0.99300  0.44490  1.0000
  S   S79       1.0  0.22060  0.49300  0.05510  1.0000
  S   S80       1.0  0.77940  0.49300  0.44490  1.0000
  S   S81       1.0  0.47950  0.61780  0.29680  1.0000
  S   S82       1.0  0.52050  0.61780  0.20320  1.0000
  S   S83       1.0  0.97950  0.11780  0.29680  1.0000
  S   S84       1.0  0.02050  0.11780  0.20320  1.0000
  S   S85       1.0  0.52050  0.38220  0.70320  1.0000
  S   S86       1.0  0.47950  0.38220  0.79680  1.0000
  S   S87       1.0  0.02050  0.88220  0.70320  1.0000
  S   S88       1.0  0.97950  0.88220  0.79680  1.0000
  S   S89       1.0  0.43180  0.88370  0.23170  1.0000
  S   S90       1.0  0.56820  0.88370  0.26830  1.0000
  S   S91       1.0  0.93180  0.38370  0.23170  1.0000
  S   S92       1.0  0.06820  0.38370  0.26830  1.0000
  S   S93       1.0  0.56820  0.11630  0.76830  1.0000
  S   S94       1.0  0.43180  0.11630  0.73170  1.0000
  S   S95       1.0  0.06820  0.61630  0.76830  1.0000
  S   S96       1.0  0.93180  0.61630  0.73170  1.0000
  S   S97       1.0  0.53080  0.75720  0.39760  1.0000
  S   S98       1.0  0.46920  0.75720  0.10240  1.0000
  S   S99       1.0  0.03080  0.25720  0.39760  1.0000
  S   S100      1.0  0.96920  0.25720  0.10240  1.0000
  S   S101      1.0  0.46920  0.24280  0.60240  1.0000
  S   S102      1.0  0.53080  0.24280  0.89760  1.0000
  S   S103      1.0  0.96920  0.74280  0.60240  1.0000
  S   S104      1.0  0.03080  0.74280  0.89760  1.0000
  S   S105      1.0  0.49410  0.97020  0.34500  1.0000
  S   S106      1.0  0.50590  0.97020  0.15500  1.0000
  S   S107      1.0  0.99410  0.47020  0.34500  1.0000
  S   S108      1.0  0.00590  0.47020  0.15500  1.0000
  S   S109      1.0  0.50590  0.02980  0.65500  1.0000
  S   S110      1.0  0.49410  0.02980  0.84500  1.0000
  S   S111      1.0  0.00590  0.52980  0.65500  1.0000
  S   S112      1.0  0.99410  0.52980  0.84500  1.0000
  S   S113      1.0  0.56320  0.96590  0.46620  1.0000
  S   S114      1.0  0.43680  0.96590  0.03380  1.0000
  S   S115      1.0  0.06320  0.46590  0.46620  1.0000
  S   S116      1.0  0.93680  0.46590  0.03380  1.0000
  S   S117      1.0  0.43680  0.03410  0.53380  1.0000
  S   S118      1.0  0.56320  0.03410  0.96620  1.0000
  S   S119      1.0  0.93680  0.53410  0.53380  1.0000
  S   S120      1.0  0.06320  0.53410  0.96620  1.0000
  C   C1        1.0  0.28390  0.52600  0.23910  1.0000
  C   C2        1.0  0.71610  0.52600  0.26090  1.0000
  C   C3        1.0  0.78390  0.02600  0.23910  1.0000
  C   C4        1.0  0.21610  0.02600  0.26090  1.0000
  C   C5        1.0  0.71610  0.47400  0.76090  1.0000
  C   C6        1.0  0.28390  0.47400  0.73910  1.0000
  C   C7        1.0  0.21610  0.97400  0.76090  1.0000
  C   C8        1.0  0.78390  0.97400  0.73910  1.0000
  C   C9        1.0  0.29510  0.62500  0.26810  1.0000
  C   C10       1.0  0.70490  0.62500  0.23190  1.0000
  C   C11       1.0  0.79510  0.12500  0.26810  1.0000
  C   C12       1.0  0.20490  0.12500  0.23190  1.0000
  C   C13       1.0  0.70490  0.37500  0.73190  1.0000
  C   C14       1.0  0.29510  0.37500  0.76810  1.0000
  C   C15       1.0  0.20490  0.87500  0.73190  1.0000
  C   C16       1.0  0.79510  0.87500  0.76810  1.0000
  C   C17       1.0  0.21010  0.54800  0.25290  1.0000
  C   C18       1.0  0.78990  0.54800  0.24710  1.0000
  C   C19       1.0  0.71010  0.04800  0.25290  1.0000
  C   C20       1.0  0.28990  0.04800  0.24710  1.0000
  C   C21       1.0  0.78990  0.45200  0.74710  1.0000
  C   C22       1.0  0.21010  0.45200  0.75290  1.0000
  C   C23       1.0  0.28990  0.95200  0.74710  1.0000
  C   C24       1.0  0.71010  0.95200  0.75290  1.0000
  C   C25       1.0  0.32400  0.76100  0.07000  1.0000
  C   C26       1.0  0.67600  0.76100  0.43000  1.0000
  C   C27       1.0  0.82400  0.26100  0.07000  1.0000
  C   C28       1.0  0.17600  0.26100  0.43000  1.0000
  C   C29       1.0  0.67600  0.23900  0.93000  1.0000
  C   C30       1.0  0.32400  0.23900  0.57000  1.0000
  C   C31       1.0  0.17600  0.73900  0.93000  1.0000
  C   C32       1.0  0.82400  0.73900  0.57000  1.0000
  C   C33       1.0  0.29290  0.82100  0.07650  1.0000
  C   C34       1.0  0.70710  0.82100  0.42350  1.0000
  C   C35       1.0  0.79290  0.32100  0.07650  1.0000
  C   C36       1.0  0.20710  0.32100  0.42350  1.0000
  C   C37       1.0  0.70710  0.17900  0.92350  1.0000
  C   C38       1.0  0.29290  0.17900  0.57650  1.0000
  C   C39       1.0  0.20710  0.67900  0.92350  1.0000
  C   C40       1.0  0.79290  0.67900  0.57650  1.0000
  C   C41       1.0  0.29190  0.92200  0.99670  1.0000
  C   C42       1.0  0.70810  0.92200  0.50330  1.0000
  C   C43       1.0  0.79190  0.42200  0.99670  1.0000
  C   C44       1.0  0.20810  0.42200  0.50330  1.0000
  C   C45       1.0  0.70810  0.07800  0.00330  1.0000
  C   C46       1.0  0.29190  0.07800  0.49670  1.0000
  C   C47       1.0  0.20810  0.57800  0.00330  1.0000
  C   C48       1.0  0.79190  0.57800  0.49670  1.0000
  C   C49       1.0  0.49040  0.75100  0.32560  1.0000
  C   C50       1.0  0.50960  0.75100  0.17440  1.0000
  C   C51       1.0  0.99040  0.25100  0.32560  1.0000
  C   C52       1.0  0.00960  0.25100  0.17440  1.0000
  C   C53       1.0  0.50960  0.24900  0.67440  1.0000
  C   C54       1.0  0.49040  0.24900  0.82560  1.0000
  C   C55       1.0  0.00960  0.74900  0.67440  1.0000
  C   C56       1.0  0.99040  0.74900  0.82560  1.0000
  C   C57       1.0  0.47250  0.85300  0.30110  1.0000
  C   C58       1.0  0.52750  0.85300  0.19890  1.0000
  C   C59       1.0  0.97250  0.35300  0.30110  1.0000
  C   C60       1.0  0.02750  0.35300  0.19890  1.0000
  C   C61       1.0  0.52750  0.14700  0.69890  1.0000
  C   C62       1.0  0.47250  0.14700  0.80110  1.0000
  C   C63       1.0  0.02750  0.64700  0.69890  1.0000
  C   C64       1.0  0.97250  0.64700  0.80110  1.0000
  C   C65       1.0  0.53120  0.90100  0.40550  1.0000
  C   C66       1.0  0.46880  0.90100  0.09450  1.0000
  C   C67       1.0  0.03120  0.40100  0.40550  1.0000
  C   C68       1.0  0.96880  0.40100  0.09450  1.0000
  C   C69       1.0  0.46880  0.09900  0.59450  1.0000
  C   C70       1.0  0.53120  0.09900  0.90550  1.0000
  C   C71       1.0  0.96880  0.59900  0.59450  1.0000
  C   C72       1.0  0.03120  0.59900  0.90550  1.0000
