data_image0
_chemical_formula_structural       Cd4O28H8C8H4C4H8C4H4C4H8C4H4C4H8C8
_chemical_formula_sum              "Cd4 O28 H44 C36"
_cell_length_a       10.1355
_cell_length_b       15.4673
_cell_length_c       9.174
_cell_angle_alpha    90
_cell_angle_beta     107.93
_cell_angle_gamma    90

_space_group_name_H-M_alt    "P 1"
_space_group_IT_number       1

loop_
  _space_group_symop_operation_xyz
  'x, y, z'

loop_
  _atom_site_type_symbol
  _atom_site_label
  _atom_site_symmetry_multiplicity
  _atom_site_fract_x
  _atom_site_fract_y
  _atom_site_fract_z
  _atom_site_occupancy
  Cd  Cd1       1.0  0.76271  0.21080  0.89414  1.0000
  Cd  Cd2       1.0  0.23729  0.71080  0.60586  1.0000
  Cd  Cd3       1.0  0.23729  0.78920  0.10586  1.0000
  Cd  Cd4       1.0  0.76271  0.28920  0.39414  1.0000
  O   O1        1.0  0.72380  0.05928  0.85960  1.0000
  O   O2        1.0  0.27620  0.55928  0.64040  1.0000
  O   O3        1.0  0.27620  0.94072  0.14040  1.0000
  O   O4        1.0  0.72380  0.44072  0.35960  1.0000
  O   O5        1.0  0.85010  0.09772  0.08980  1.0000
  O   O6        1.0  0.14990  0.59772  0.41020  1.0000
  O   O7        1.0  0.14990  0.90228  0.91020  1.0000
  O   O8        1.0  0.85010  0.40228  0.58980  1.0000
  O   O9        1.0  0.17124  0.80259  0.32190  1.0000
  O   O10       1.0  0.82876  0.30259  0.17810  1.0000
  O   O11       1.0  0.82876  0.19741  0.67810  1.0000
  O   O12       1.0  0.17124  0.69741  0.82190  1.0000
  O   O13       1.0  0.04720  0.78660  0.47920  1.0000
  O   O14       1.0  0.95280  0.28660  0.02080  1.0000
  O   O15       1.0  0.95280  0.21340  0.52080  1.0000
  O   O16       1.0  0.04720  0.71340  0.97920  1.0000
  O   O17       1.0  0.51792  0.81984  0.27693  1.0000
  O   O18       1.0  0.48208  0.31984  0.22307  1.0000
  O   O19       1.0  0.48208  0.18016  0.72307  1.0000
  O   O20       1.0  0.51792  0.68016  0.77693  1.0000
  O   O21       1.0  0.43090  0.78047  0.03610  1.0000
  O   O22       1.0  0.56910  0.28047  0.46390  1.0000
  O   O23       1.0  0.56910  0.21953  0.96390  1.0000
  O   O24       1.0  0.43090  0.71953  0.53610  1.0000
  O   O25       1.0  0.66916  0.34348  0.76032  1.0000
  O   O26       1.0  0.33084  0.84348  0.73968  1.0000
  O   O27       1.0  0.33084  0.65652  0.23968  1.0000
  O   O28       1.0  0.66916  0.15652  0.26032  1.0000
  H   H1        1.0  0.63040  0.39310  0.75820  1.0000
  H   H2        1.0  0.36960  0.89310  0.74180  1.0000
  H   H3        1.0  0.36960  0.60690  0.24180  1.0000
  H   H4        1.0  0.63040  0.10690  0.25820  1.0000
  H   H5        1.0  0.70050  0.34220  0.68410  1.0000
  H   H6        1.0  0.29950  0.84220  0.81590  1.0000
  H   H7        1.0  0.29950  0.65780  0.31590  1.0000
  H   H8        1.0  0.70050  0.15780  0.18410  1.0000
  C   C1        1.0  0.79270  0.04048  0.99460  1.0000
  C   C2        1.0  0.20730  0.54048  0.50540  1.0000
  C   C3        1.0  0.20730  0.95952  0.00540  1.0000
  C   C4        1.0  0.79270  0.45952  0.49460  1.0000
  C   C5        1.0  0.80250  0.94586  0.04110  1.0000
  C   C6        1.0  0.19750  0.44586  0.45890  1.0000
  C   C7        1.0  0.19750  0.05414  0.95890  1.0000
  C   C8        1.0  0.80250  0.55414  0.54110  1.0000
  H   H9        1.0  0.81250  0.91140  0.95550  1.0000
  H   H10       1.0  0.18750  0.41140  0.54450  1.0000
  H   H11       1.0  0.18750  0.08860  0.04450  1.0000
  H   H12       1.0  0.81250  0.58860  0.45550  1.0000
  C   C9        1.0  0.92580  0.92607  0.18250  1.0000
  C   C10       1.0  0.07420  0.42607  0.31750  1.0000
  C   C11       1.0  0.07420  0.07393  0.81750  1.0000
  C   C12       1.0  0.92580  0.57393  0.68250  1.0000
  H   H13       1.0  0.91910  0.96010  0.26880  1.0000
  H   H14       1.0  0.08090  0.46010  0.23120  1.0000
  H   H15       1.0  0.08090  0.03990  0.73120  1.0000
  H   H16       1.0  0.91910  0.53990  0.76880  1.0000
  H   H17       1.0  0.01160  0.94120  0.16280  1.0000
  H   H18       1.0  0.98840  0.44120  0.33720  1.0000
  H   H19       1.0  0.98840  0.05880  0.83720  1.0000
  H   H20       1.0  0.01160  0.55880  0.66280  1.0000
  C   C13       1.0  0.92570  0.82947  0.22020  1.0000
  C   C14       1.0  0.07430  0.32947  0.27980  1.0000
  C   C15       1.0  0.07430  0.17053  0.77980  1.0000
  C   C16       1.0  0.92570  0.67053  0.72020  1.0000
  H   H21       1.0  0.92640  0.79730  0.12840  1.0000
  H   H22       1.0  0.07360  0.29730  0.37160  1.0000
  H   H23       1.0  0.07360  0.20270  0.87160  1.0000
  H   H24       1.0  0.92640  0.70270  0.62840  1.0000
  C   C17       1.0  0.79180  0.80587  0.25480  1.0000
  C   C18       1.0  0.20820  0.30587  0.24520  1.0000
  C   C19       1.0  0.20820  0.19413  0.74520  1.0000
  C   C20       1.0  0.79180  0.69413  0.75480  1.0000
  H   H25       1.0  0.79320  0.74500  0.28070  1.0000
  H   H26       1.0  0.20680  0.24500  0.21930  1.0000
  H   H27       1.0  0.20680  0.25500  0.71930  1.0000
  H   H28       1.0  0.79320  0.75500  0.78070  1.0000
  H   H29       1.0  0.78540  0.83900  0.34220  1.0000
  H   H30       1.0  0.21460  0.33900  0.15780  1.0000
  H   H31       1.0  0.21460  0.16100  0.65780  1.0000
  H   H32       1.0  0.78540  0.66100  0.84220  1.0000
  C   C21       1.0  0.66640  0.82465  0.11690  1.0000
  C   C22       1.0  0.33360  0.32465  0.38310  1.0000
  C   C23       1.0  0.33360  0.17535  0.88310  1.0000
  C   C24       1.0  0.66640  0.67535  0.61690  1.0000
  H   H33       1.0  0.67120  0.78800  0.03150  1.0000
  H   H34       1.0  0.32880  0.28800  0.46850  1.0000
  H   H35       1.0  0.32880  0.21200  0.96850  1.0000
  H   H36       1.0  0.67120  0.71200  0.53150  1.0000
  C   C25       1.0  0.66540  0.92017  0.06840  1.0000
  C   C26       1.0  0.33460  0.42017  0.43160  1.0000
  C   C27       1.0  0.33460  0.07983  0.93160  1.0000
  C   C28       1.0  0.66540  0.57983  0.56840  1.0000
  H   H37       1.0  0.58940  0.92950  0.97520  1.0000
  H   H38       1.0  0.41060  0.42950  0.52480  1.0000
  H   H39       1.0  0.41060  0.07050  0.02480  1.0000
  H   H40       1.0  0.58940  0.57050  0.47520  1.0000
  H   H41       1.0  0.65030  0.95670  0.14770  1.0000
  H   H42       1.0  0.34970  0.45670  0.35230  1.0000
  H   H43       1.0  0.34970  0.04330  0.85230  1.0000
  H   H44       1.0  0.65030  0.54330  0.64770  1.0000
  C   C29       1.0  0.05600  0.80505  0.34740  1.0000
  C   C30       1.0  0.94400  0.30505  0.15260  1.0000
  C   C31       1.0  0.94400  0.19495  0.65260  1.0000
  C   C32       1.0  0.05600  0.69495  0.84740  1.0000
  C   C33       1.0  0.52980  0.80751  0.14760  1.0000
  C   C34       1.0  0.47020  0.30751  0.35240  1.0000
  C   C35       1.0  0.47020  0.19249  0.85240  1.0000
  C   C36       1.0  0.52980  0.69249  0.64760  1.0000
