data_image0
_chemical_formula_structural       Fe4Cl8O16C8
_chemical_formula_sum              "Fe4 Cl8 O16 C8"
_cell_length_a       8.858
_cell_length_b       11.012
_cell_length_c       14.932
_cell_angle_alpha    90
_cell_angle_beta     103.393
_cell_angle_gamma    90

_space_group_name_H-M_alt    "P 1"
_space_group_IT_number       1

loop_
  _space_group_symop_operation_xyz
  'x, y, z'

loop_
  _atom_site_type_symbol
  _atom_site_label
  _atom_site_symmetry_multiplicity
  _atom_site_fract_x
  _atom_site_fract_y
  _atom_site_fract_z
  _atom_site_occupancy
  Fe  Fe1       1.0  0.79129  0.02638  0.10902  1.0000
  Fe  Fe2       1.0  0.20871  0.52638  0.39098  1.0000
  Fe  Fe3       1.0  0.20871  0.97362  0.89098  1.0000
  Fe  Fe4       1.0  0.79129  0.47362  0.60902  1.0000
  Cl  Cl1       1.0  0.91113  0.18452  0.19297  1.0000
  Cl  Cl2       1.0  0.08887  0.68452  0.30703  1.0000
  Cl  Cl3       1.0  0.08887  0.81548  0.80703  1.0000
  Cl  Cl4       1.0  0.91113  0.31548  0.69297  1.0000
  Cl  Cl5       1.0  0.74612  0.90672  0.22285  1.0000
  Cl  Cl6       1.0  0.25388  0.40672  0.27715  1.0000
  Cl  Cl7       1.0  0.25388  0.09328  0.77715  1.0000
  Cl  Cl8       1.0  0.74612  0.59328  0.72285  1.0000
  O   O1        1.0  0.84750  0.10230  0.98910  1.0000
  O   O2        1.0  0.15250  0.60230  0.51090  1.0000
  O   O3        1.0  0.15250  0.89770  0.01090  1.0000
  O   O4        1.0  0.84750  0.39770  0.48910  1.0000
  O   O5        1.0  0.58130  0.11370  0.07720  1.0000
  O   O6        1.0  0.41870  0.61370  0.42280  1.0000
  O   O7        1.0  0.41870  0.88630  0.92280  1.0000
  O   O8        1.0  0.58130  0.38630  0.57720  1.0000
  O   O9        1.0  0.01930  0.07640  0.90140  1.0000
  O   O10       1.0  0.98070  0.57640  0.59860  1.0000
  O   O11       1.0  0.98070  0.92360  0.09860  1.0000
  O   O12       1.0  0.01930  0.42360  0.40140  1.0000
  O   O13       1.0  0.33690  0.09050  0.99290  1.0000
  O   O14       1.0  0.66310  0.59050  0.50710  1.0000
  O   O15       1.0  0.66310  0.90950  0.00710  1.0000
  O   O16       1.0  0.33690  0.40950  0.49290  1.0000
  C   C1        1.0  0.96150  0.05210  0.96890  1.0000
  C   C2        1.0  0.03850  0.55210  0.53110  1.0000
  C   C3        1.0  0.03850  0.94790  0.03110  1.0000
  C   C4        1.0  0.96150  0.44790  0.46890  1.0000
  C   C5        1.0  0.47590  0.05810  0.01990  1.0000
  C   C6        1.0  0.52410  0.55810  0.48010  1.0000
  C   C7        1.0  0.52410  0.94190  0.98010  1.0000
  C   C8        1.0  0.47590  0.44190  0.51990  1.0000
