data_image0
_chemical_formula_structural       Tb4Sr4O4C4N8O4C4H4O4N4C4H4O4C4H4O4C4O4C4O4C8O8C4H4C4H4O4C4H4O4C4O4C4O4H8C4O4H8C4O4H8O4H8C4H4O4H8C4H4C4H4C12
_chemical_formula_sum              "Tb4 Sr4 O68 C84 N12 H76"
_cell_length_a       15.814
_cell_length_b       9.9086
_cell_length_c       20.5
_cell_angle_alpha    90
_cell_angle_beta     106.963
_cell_angle_gamma    90

_space_group_name_H-M_alt    "P 1"
_space_group_IT_number       1

loop_
  _space_group_symop_operation_xyz
  'x, y, z'

loop_
  _atom_site_type_symbol
  _atom_site_label
  _atom_site_symmetry_multiplicity
  _atom_site_fract_x
  _atom_site_fract_y
  _atom_site_fract_z
  _atom_site_occupancy
  Tb  Tb1       1.0  0.24549  0.36152  0.00556  1.0000
  Tb  Tb2       1.0  0.25451  0.86152  0.49444  1.0000
  Tb  Tb3       1.0  0.75451  0.63848  0.99444  1.0000
  Tb  Tb4       1.0  0.74549  0.13848  0.50556  1.0000
  Sr  Sr1       1.0  0.10448  0.62673  0.21749  1.0000
  Sr  Sr2       1.0  0.39552  0.12673  0.28251  1.0000
  Sr  Sr3       1.0  0.89552  0.37327  0.78251  1.0000
  Sr  Sr4       1.0  0.60448  0.87327  0.71749  1.0000
  O   O1        1.0  0.18147  0.19230  0.91999  1.0000
  O   O2        1.0  0.31853  0.69230  0.58001  1.0000
  O   O3        1.0  0.81853  0.80770  0.08001  1.0000
  O   O4        1.0  0.68147  0.30770  0.41999  1.0000
  C   C1        1.0  0.32340  0.14830  0.90870  1.0000
  C   C2        1.0  0.17660  0.64830  0.59130  1.0000
  C   C3        1.0  0.67660  0.85170  0.09130  1.0000
  C   C4        1.0  0.82340  0.35170  0.40870  1.0000
  N   N1        1.0  0.35230  0.22920  0.96209  1.0000
  N   N2        1.0  0.14770  0.72920  0.53791  1.0000
  N   N3        1.0  0.64770  0.77080  0.03791  1.0000
  N   N4        1.0  0.85230  0.27080  0.46209  1.0000
  N   N5        1.0  0.25668  0.61150  0.00812  1.0000
  N   N6        1.0  0.24332  0.11150  0.49188  1.0000
  N   N7        1.0  0.74332  0.38850  0.99188  1.0000
  N   N8        1.0  0.75668  0.88850  0.50812  1.0000
  O   O5        1.0  0.18960  0.07560  0.82931  1.0000
  O   O6        1.0  0.31040  0.57560  0.67069  1.0000
  O   O7        1.0  0.81040  0.92440  0.17069  1.0000
  O   O8        1.0  0.68960  0.42440  0.32931  1.0000
  C   C5        1.0  0.37930  0.08400  0.87770  1.0000
  C   C6        1.0  0.12070  0.58400  0.62230  1.0000
  C   C7        1.0  0.62070  0.91600  0.12230  1.0000
  C   C8        1.0  0.87930  0.41600  0.37770  1.0000
  H   H1        1.0  0.35730  0.02650  0.84070  1.0000
  H   H2        1.0  0.14270  0.52650  0.65930  1.0000
  H   H3        1.0  0.64270  0.97350  0.15930  1.0000
  H   H4        1.0  0.85730  0.47350  0.34070  1.0000
  O   O9        1.0  0.39967  0.40600  0.06083  1.0000
  O   O10       1.0  0.10033  0.90600  0.43917  1.0000
  O   O11       1.0  0.60033  0.59400  0.93917  1.0000
  O   O12       1.0  0.89967  0.09400  0.56083  1.0000
  N   N9        1.0  0.87866  0.74830  0.96101  1.0000
  N   N10       1.0  0.62134  0.24830  0.53899  1.0000
  N   N11       1.0  0.12134  0.25170  0.03899  1.0000
  N   N12       1.0  0.37866  0.75170  0.46101  1.0000
  C   C9        1.0  0.46860  0.10830  0.90360  1.0000
  C   C10       1.0  0.03140  0.60830  0.59640  1.0000
  C   C11       1.0  0.53140  0.89170  0.09640  1.0000
  C   C12       1.0  0.96860  0.39170  0.40360  1.0000
  H   H5        1.0  0.50840  0.06660  0.88440  1.0000
  H   H6        1.0  0.99160  0.56660  0.61560  1.0000
  H   H7        1.0  0.49160  0.93340  0.11560  1.0000
  H   H8        1.0  0.00840  0.43340  0.38440  1.0000
  O   O13       1.0  0.54330  0.37520  0.07206  1.0000
  O   O14       1.0  0.95670  0.87520  0.42794  1.0000
  O   O15       1.0  0.45670  0.62480  0.92794  1.0000
  O   O16       1.0  0.04330  0.12480  0.57206  1.0000
  C   C13       1.0  0.49890  0.19480  0.95820  1.0000
  C   C14       1.0  0.00110  0.69480  0.54180  1.0000
  C   C15       1.0  0.50110  0.80520  0.04180  1.0000
  C   C16       1.0  0.99890  0.30520  0.45820  1.0000
  H   H9        1.0  0.55900  0.21230  0.97610  1.0000
  H   H10       1.0  0.94100  0.71230  0.52390  1.0000
  H   H11       1.0  0.44100  0.78770  0.02390  1.0000
  H   H12       1.0  0.05900  0.28770  0.47610  1.0000
  O   O17       1.0  0.25720  0.46420  0.90228  1.0000
  O   O18       1.0  0.24280  0.96420  0.59772  1.0000
  O   O19       1.0  0.74280  0.53580  0.09772  1.0000
  O   O20       1.0  0.75720  0.03580  0.40228  1.0000
  C   C17       1.0  0.43890  0.25480  0.98590  1.0000
  C   C18       1.0  0.06110  0.75480  0.51410  1.0000
  C   C19       1.0  0.56110  0.74520  0.01410  1.0000
  C   C20       1.0  0.93890  0.24520  0.48590  1.0000
  O   O21       1.0  0.25140  0.64400  0.83575  1.0000
  O   O22       1.0  0.24860  0.14400  0.66425  1.0000
  O   O23       1.0  0.74860  0.35600  0.16425  1.0000
  O   O24       1.0  0.75140  0.85600  0.33575  1.0000
  C   C21       1.0  0.22340  0.13620  0.88310  1.0000
  C   C22       1.0  0.27660  0.63620  0.61690  1.0000
  C   C23       1.0  0.77660  0.86380  0.11690  1.0000
  C   C24       1.0  0.72340  0.36380  0.38310  1.0000
  O   O25       1.0  0.24547  0.46950  0.11254  1.0000
  O   O26       1.0  0.25453  0.96950  0.38746  1.0000
  O   O27       1.0  0.75453  0.53050  0.88746  1.0000
  O   O28       1.0  0.74547  0.03050  0.61254  1.0000
  C   C25       1.0  0.46410  0.35400  0.04510  1.0000
  C   C26       1.0  0.03590  0.85400  0.45490  1.0000
  C   C27       1.0  0.53590  0.64600  0.95490  1.0000
  C   C28       1.0  0.96410  0.14600  0.54510  1.0000
  C   C29       1.0  0.25870  0.67930  0.95201  1.0000
  C   C30       1.0  0.24130  0.17930  0.54799  1.0000
  C   C31       1.0  0.74130  0.32070  0.04799  1.0000
  C   C32       1.0  0.75870  0.82070  0.45201  1.0000
  O   O29       1.0  0.24314  0.65310  0.17499  1.0000
  O   O30       1.0  0.25686  0.15310  0.32501  1.0000
  O   O31       1.0  0.75686  0.34690  0.82501  1.0000
  O   O32       1.0  0.74314  0.84690  0.67499  1.0000
  O   O33       1.0  0.04827  0.58950  0.08801  1.0000
  O   O34       1.0  0.45173  0.08950  0.41199  1.0000
  O   O35       1.0  0.95173  0.41050  0.91199  1.0000
  O   O36       1.0  0.54827  0.91050  0.58801  1.0000
  C   C33       1.0  0.26420  0.81690  0.95050  1.0000
  C   C34       1.0  0.23580  0.31690  0.54950  1.0000
  C   C35       1.0  0.73580  0.18310  0.04950  1.0000
  C   C36       1.0  0.76420  0.68310  0.45050  1.0000
  H   H13       1.0  0.26470  0.86120  0.91070  1.0000
  H   H14       1.0  0.23530  0.36120  0.58930  1.0000
  H   H15       1.0  0.73530  0.13880  0.08930  1.0000
  H   H16       1.0  0.76470  0.63880  0.41070  1.0000
  C   C37       1.0  0.26900  0.88980  0.00970  1.0000
  C   C38       1.0  0.23100  0.38980  0.49030  1.0000
  C   C39       1.0  0.73100  0.11020  0.99030  1.0000
  C   C40       1.0  0.76900  0.61020  0.50970  1.0000
  H   H17       1.0  0.27360  0.98340  0.01030  1.0000
  H   H18       1.0  0.22640  0.48340  0.48970  1.0000
  H   H19       1.0  0.72640  0.01660  0.98970  1.0000
  H   H20       1.0  0.77360  0.51660  0.51030  1.0000
  O   O37       1.0  0.90194  0.55570  0.05216  1.0000
  O   O38       1.0  0.59806  0.05570  0.44784  1.0000
  O   O39       1.0  0.09806  0.44430  0.94784  1.0000
  O   O40       1.0  0.40194  0.94430  0.55216  1.0000
  C   C41       1.0  0.26670  0.81920  0.06760  1.0000
  C   C42       1.0  0.23330  0.31920  0.43240  1.0000
  C   C43       1.0  0.73330  0.18080  0.93240  1.0000
  C   C44       1.0  0.76670  0.68080  0.56760  1.0000
  H   H21       1.0  0.27030  0.86490  0.10790  1.0000
  H   H22       1.0  0.22970  0.36490  0.39210  1.0000
  H   H23       1.0  0.72970  0.13510  0.89210  1.0000
  H   H24       1.0  0.77030  0.63510  0.60790  1.0000
  O   O41       1.0  0.71307  0.81260  0.90783  1.0000
  O   O42       1.0  0.78693  0.31260  0.59217  1.0000
  O   O43       1.0  0.28693  0.18740  0.09217  1.0000
  O   O44       1.0  0.21307  0.68740  0.40783  1.0000
  C   C45       1.0  0.25910  0.68120  0.06457  1.0000
  C   C46       1.0  0.24090  0.18120  0.43543  1.0000
  C   C47       1.0  0.74090  0.31880  0.93543  1.0000
  C   C48       1.0  0.75910  0.81880  0.56457  1.0000
  O   O45       1.0  0.74181  0.92850  0.82356  1.0000
  O   O46       1.0  0.75819  0.42850  0.67644  1.0000
  O   O47       1.0  0.25819  0.07150  0.17644  1.0000
  O   O48       1.0  0.24181  0.57150  0.32356  1.0000
  C   C49       1.0  0.25560  0.58930  0.89138  1.0000
  C   C50       1.0  0.24440  0.08930  0.60862  1.0000
  C   C51       1.0  0.74440  0.41070  0.10862  1.0000
  C   C52       1.0  0.75560  0.91070  0.39138  1.0000
  O   O49       1.0  0.99110  0.81990  0.16843  1.0000
  O   O50       1.0  0.50890  0.31990  0.33157  1.0000
  O   O51       1.0  0.00890  0.18010  0.83157  1.0000
  O   O52       1.0  0.49110  0.68010  0.66843  1.0000
  H   H25       1.0  0.95690  0.88190  0.17440  1.0000
  H   H26       1.0  0.54310  0.38190  0.32560  1.0000
  H   H27       1.0  0.04310  0.11810  0.82560  1.0000
  H   H28       1.0  0.45690  0.61810  0.67440  1.0000
  H   H29       1.0  0.96400  0.78090  0.13130  1.0000
  H   H30       1.0  0.53600  0.28090  0.36870  1.0000
  H   H31       1.0  0.03600  0.21910  0.86870  1.0000
  H   H32       1.0  0.46400  0.71910  0.63130  1.0000
  C   C53       1.0  0.24840  0.59610  0.12260  1.0000
  C   C54       1.0  0.25160  0.09610  0.37740  1.0000
  C   C55       1.0  0.75160  0.40390  0.87740  1.0000
  C   C56       1.0  0.74840  0.90390  0.62260  1.0000
  O   O53       1.0  0.94830  0.51010  0.19311  1.0000
  O   O54       1.0  0.55170  0.01010  0.30689  1.0000
  O   O55       1.0  0.05170  0.48990  0.80689  1.0000
  O   O56       1.0  0.44830  0.98990  0.69311  1.0000
  H   H33       1.0  0.91450  0.50160  0.15260  1.0000
  H   H34       1.0  0.58550  0.00160  0.34740  1.0000
  H   H35       1.0  0.08550  0.49840  0.84740  1.0000
  H   H36       1.0  0.41450  0.99840  0.65260  1.0000
  H   H37       1.0  0.90320  0.52290  0.20690  1.0000
  H   H38       1.0  0.59680  0.02290  0.29310  1.0000
  H   H39       1.0  0.09680  0.47710  0.79310  1.0000
  H   H40       1.0  0.40320  0.97710  0.70690  1.0000
  C   C57       1.0  0.96230  0.71740  0.99434  1.0000
  C   C58       1.0  0.53770  0.21740  0.50566  1.0000
  C   C59       1.0  0.03770  0.28260  0.00566  1.0000
  C   C60       1.0  0.46230  0.78260  0.49434  1.0000
  O   O57       1.0  0.04660  0.65840  0.31923  1.0000
  O   O58       1.0  0.45340  0.15840  0.18077  1.0000
  O   O59       1.0  0.95340  0.34160  0.68077  1.0000
  O   O60       1.0  0.54660  0.84160  0.81923  1.0000
  H   H41       1.0  0.99370  0.67310  0.31930  1.0000
  H   H42       1.0  0.50630  0.17310  0.18070  1.0000
  H   H43       1.0  0.00630  0.32690  0.68070  1.0000
  H   H44       1.0  0.49370  0.82690  0.81930  1.0000
  H   H45       1.0  0.09050  0.68230  0.35230  1.0000
  H   H46       1.0  0.40950  0.18230  0.14770  1.0000
  H   H47       1.0  0.90950  0.31770  0.64770  1.0000
  H   H48       1.0  0.59050  0.81770  0.85230  1.0000
  O   O61       1.0  0.16980  0.86980  0.25555  1.0000
  O   O62       1.0  0.33020  0.36980  0.24445  1.0000
  O   O63       1.0  0.83020  0.13020  0.74445  1.0000
  O   O64       1.0  0.66980  0.63020  0.75555  1.0000
  H   H49       1.0  0.18930  0.93420  0.23660  1.0000
  H   H50       1.0  0.31070  0.43420  0.26340  1.0000
  H   H51       1.0  0.81070  0.06580  0.76340  1.0000
  H   H52       1.0  0.68930  0.56580  0.73660  1.0000
  H   H53       1.0  0.18650  0.89650  0.29670  1.0000
  H   H54       1.0  0.31350  0.39650  0.20330  1.0000
  H   H55       1.0  0.81350  0.10350  0.70330  1.0000
  H   H56       1.0  0.68650  0.60350  0.79670  1.0000
  C   C61       1.0  0.03260  0.78150  0.97990  1.0000
  C   C62       1.0  0.46740  0.28150  0.52010  1.0000
  C   C63       1.0  0.96740  0.21850  0.02010  1.0000
  C   C64       1.0  0.53260  0.71850  0.47990  1.0000
  H   H57       1.0  0.09040  0.75820  0.00340  1.0000
  H   H58       1.0  0.40960  0.25820  0.49660  1.0000
  H   H59       1.0  0.90960  0.24180  0.99660  1.0000
  H   H60       1.0  0.59040  0.74180  0.50340  1.0000
  O   O65       1.0  0.13230  0.36490  0.21640  1.0000
  O   O66       1.0  0.36770  0.86490  0.28360  1.0000
  O   O67       1.0  0.86770  0.63510  0.78360  1.0000
  O   O68       1.0  0.63230  0.13510  0.71640  1.0000
  H   H61       1.0  0.11970  0.30910  0.18340  1.0000
  H   H62       1.0  0.38030  0.80910  0.31660  1.0000
  H   H63       1.0  0.88030  0.69090  0.81660  1.0000
  H   H64       1.0  0.61970  0.19090  0.68340  1.0000
  H   H65       1.0  0.18670  0.35030  0.23620  1.0000
  H   H66       1.0  0.31330  0.85030  0.26380  1.0000
  H   H67       1.0  0.81330  0.64970  0.76380  1.0000
  H   H68       1.0  0.68670  0.14970  0.73620  1.0000
  C   C65       1.0  0.01580  0.88030  0.93020  1.0000
  C   C66       1.0  0.48420  0.38030  0.56980  1.0000
  C   C67       1.0  0.98420  0.11970  0.06980  1.0000
  C   C68       1.0  0.51580  0.61970  0.43020  1.0000
  H   H69       1.0  0.06210  0.92540  0.92020  1.0000
  H   H70       1.0  0.43790  0.42540  0.57980  1.0000
  H   H71       1.0  0.93790  0.07460  0.07980  1.0000
  H   H72       1.0  0.56210  0.57460  0.42020  1.0000
  C   C69       1.0  0.92870  0.91120  0.89560  1.0000
  C   C70       1.0  0.57130  0.41120  0.60440  1.0000
  C   C71       1.0  0.07130  0.08880  0.10440  1.0000
  C   C72       1.0  0.42870  0.58880  0.39560  1.0000
  H   H73       1.0  0.91540  0.97710  0.86180  1.0000
  H   H74       1.0  0.58460  0.47710  0.63820  1.0000
  H   H75       1.0  0.08460  0.02290  0.13820  1.0000
  H   H76       1.0  0.41540  0.52290  0.36180  1.0000
  C   C73       1.0  0.86170  0.84220  0.91234  1.0000
  C   C74       1.0  0.63830  0.34220  0.58766  1.0000
  C   C75       1.0  0.13830  0.15780  0.08766  1.0000
  C   C76       1.0  0.36170  0.65780  0.41234  1.0000
  C   C77       1.0  0.97260  0.61110  0.04891  1.0000
  C   C78       1.0  0.52740  0.11110  0.45109  1.0000
  C   C79       1.0  0.02740  0.38890  0.95109  1.0000
  C   C80       1.0  0.47260  0.88890  0.54891  1.0000
  C   C81       1.0  0.76470  0.86490  0.87745  1.0000
  C   C82       1.0  0.73530  0.36490  0.62255  1.0000
  C   C83       1.0  0.23530  0.13510  0.12255  1.0000
  C   C84       1.0  0.26470  0.63510  0.37745  1.0000
