data_image0
_chemical_formula_structural       Eu4O4N4C4Sr4O4N4C4H4O4N4C4H4C4H4O8C8O8C8O8C4H4O4C4H4O4C4H4C4O4C4O4H8O4H8C8O4H8O4H8C4H4C4H4O4H8C4H4C12
_chemical_formula_sum              "Eu4 O68 N12 C84 Sr4 H76"
_cell_length_a       15.8421
_cell_length_b       9.9106
_cell_length_c       20.5688
_cell_angle_alpha    90
_cell_angle_beta     107.095
_cell_angle_gamma    90

_space_group_name_H-M_alt    "P 1"
_space_group_IT_number       1

loop_
  _space_group_symop_operation_xyz
  'x, y, z'

loop_
  _atom_site_type_symbol
  _atom_site_label
  _atom_site_symmetry_multiplicity
  _atom_site_fract_x
  _atom_site_fract_y
  _atom_site_fract_z
  _atom_site_occupancy
  Eu  Eu1       1.0  0.24535  0.36247  0.00597  1.0000
  Eu  Eu2       1.0  0.25465  0.86247  0.49403  1.0000
  Eu  Eu3       1.0  0.75465  0.63753  0.99403  1.0000
  Eu  Eu4       1.0  0.74535  0.13753  0.50597  1.0000
  O   O1        1.0  0.28552  0.18810  0.09373  1.0000
  O   O2        1.0  0.21448  0.68810  0.40627  1.0000
  O   O3        1.0  0.71448  0.81190  0.90627  1.0000
  O   O4        1.0  0.78552  0.31190  0.59373  1.0000
  N   N1        1.0  0.11967  0.25190  0.03936  1.0000
  N   N2        1.0  0.38033  0.75190  0.46064  1.0000
  N   N3        1.0  0.88033  0.74810  0.96064  1.0000
  N   N4        1.0  0.61967  0.24810  0.53936  1.0000
  C   C1        1.0  0.13660  0.15800  0.08816  1.0000
  C   C2        1.0  0.36340  0.65800  0.41184  1.0000
  C   C3        1.0  0.86340  0.84200  0.91184  1.0000
  C   C4        1.0  0.63660  0.34200  0.58816  1.0000
  Sr  Sr1       1.0  0.39442  0.12714  0.28273  1.0000
  Sr  Sr2       1.0  0.10558  0.62714  0.21727  1.0000
  Sr  Sr3       1.0  0.60558  0.87286  0.71727  1.0000
  Sr  Sr4       1.0  0.89442  0.37286  0.78273  1.0000
  O   O5        1.0  0.25555  0.07220  0.17764  1.0000
  O   O6        1.0  0.24445  0.57220  0.32236  1.0000
  O   O7        1.0  0.74445  0.92780  0.82236  1.0000
  O   O8        1.0  0.75555  0.42780  0.67764  1.0000
  N   N5        1.0  0.35245  0.22950  0.96143  1.0000
  N   N6        1.0  0.14755  0.72950  0.53857  1.0000
  N   N7        1.0  0.64755  0.77050  0.03857  1.0000
  N   N8        1.0  0.85245  0.27050  0.46143  1.0000
  C   C5        1.0  0.06980  0.08930  0.10460  1.0000
  C   C6        1.0  0.43020  0.58930  0.39540  1.0000
  C   C7        1.0  0.93020  0.91070  0.89540  1.0000
  C   C8        1.0  0.56980  0.41070  0.60460  1.0000
  H   H1        1.0  0.08270  0.02410  0.13860  1.0000
  H   H2        1.0  0.41730  0.52410  0.36140  1.0000
  H   H3        1.0  0.91730  0.97590  0.86140  1.0000
  H   H4        1.0  0.58270  0.47590  0.63860  1.0000
  O   O9        1.0  0.09601  0.44390  0.94821  1.0000
  O   O10       1.0  0.40399  0.94390  0.55179  1.0000
  O   O11       1.0  0.90399  0.55610  0.05179  1.0000
  O   O12       1.0  0.59601  0.05610  0.44821  1.0000
  N   N9        1.0  0.25717  0.61560  0.00825  1.0000
  N   N10       1.0  0.24283  0.11560  0.49175  1.0000
  N   N11       1.0  0.74283  0.38440  0.99175  1.0000
  N   N12       1.0  0.75717  0.88440  0.50825  1.0000
  C   C9        1.0  0.98350  0.11940  0.06940  1.0000
  C   C10       1.0  0.51650  0.61940  0.43060  1.0000
  C   C11       1.0  0.01650  0.88060  0.93060  1.0000
  C   C12       1.0  0.48350  0.38060  0.56940  1.0000
  H   H5        1.0  0.93740  0.07360  0.07900  1.0000
  H   H6        1.0  0.56260  0.57360  0.42100  1.0000
  H   H7        1.0  0.06260  0.92640  0.92100  1.0000
  H   H8        1.0  0.43740  0.42640  0.57900  1.0000
  C   C13       1.0  0.96630  0.21770  0.02020  1.0000
  C   C14       1.0  0.53370  0.71770  0.47980  1.0000
  C   C15       1.0  0.03370  0.78230  0.97980  1.0000
  C   C16       1.0  0.46630  0.28230  0.52020  1.0000
  H   H9        1.0  0.90840  0.24060  0.99680  1.0000
  H   H10       1.0  0.59160  0.74060  0.50320  1.0000
  H   H11       1.0  0.09160  0.75940  0.00320  1.0000
  H   H12       1.0  0.40840  0.25940  0.49680  1.0000
  O   O13       1.0  0.95088  0.40850  0.91206  1.0000
  O   O14       1.0  0.54912  0.90850  0.58794  1.0000
  O   O15       1.0  0.04912  0.59150  0.08794  1.0000
  O   O16       1.0  0.45088  0.09150  0.41206  1.0000
  O   O17       1.0  0.18160  0.19190  0.91946  1.0000
  O   O18       1.0  0.31840  0.69190  0.58054  1.0000
  O   O19       1.0  0.81840  0.80810  0.08054  1.0000
  O   O20       1.0  0.68160  0.30810  0.41946  1.0000
  C   C17       1.0  0.03610  0.28190  0.00589  1.0000
  C   C18       1.0  0.46390  0.78190  0.49411  1.0000
  C   C19       1.0  0.96390  0.71810  0.99411  1.0000
  C   C20       1.0  0.53610  0.21810  0.50589  1.0000
  C   C21       1.0  0.23370  0.13640  0.12334  1.0000
  C   C22       1.0  0.26630  0.63640  0.37666  1.0000
  C   C23       1.0  0.76630  0.86360  0.87666  1.0000
  C   C24       1.0  0.73370  0.36360  0.62334  1.0000
  O   O21       1.0  0.18941  0.07830  0.82798  1.0000
  O   O22       1.0  0.31059  0.57830  0.67202  1.0000
  O   O23       1.0  0.81059  0.92170  0.17202  1.0000
  O   O24       1.0  0.68941  0.42170  0.32798  1.0000
  O   O25       1.0  0.40144  0.40340  0.06146  1.0000
  O   O26       1.0  0.09856  0.90340  0.43854  1.0000
  O   O27       1.0  0.59856  0.59660  0.93854  1.0000
  O   O28       1.0  0.90144  0.09660  0.56146  1.0000
  C   C25       1.0  0.02560  0.38720  0.95100  1.0000
  C   C26       1.0  0.47440  0.88720  0.54900  1.0000
  C   C27       1.0  0.97440  0.61280  0.04900  1.0000
  C   C28       1.0  0.52560  0.11280  0.45100  1.0000
  C   C29       1.0  0.32270  0.14870  0.90747  1.0000
  C   C30       1.0  0.17730  0.64870  0.59253  1.0000
  C   C31       1.0  0.67730  0.85130  0.09253  1.0000
  C   C32       1.0  0.82270  0.35130  0.40747  1.0000
  O   O29       1.0  0.54403  0.37220  0.07150  1.0000
  O   O30       1.0  0.95597  0.87220  0.42850  1.0000
  O   O31       1.0  0.45597  0.62780  0.92850  1.0000
  O   O32       1.0  0.04403  0.12780  0.57150  1.0000
  O   O33       1.0  0.25636  0.46780  0.90208  1.0000
  O   O34       1.0  0.24364  0.96780  0.59792  1.0000
  O   O35       1.0  0.74364  0.53220  0.09792  1.0000
  O   O36       1.0  0.75636  0.03220  0.40208  1.0000
  C   C33       1.0  0.37860  0.08530  0.87650  1.0000
  C   C34       1.0  0.12140  0.58530  0.62350  1.0000
  C   C35       1.0  0.62140  0.91470  0.12350  1.0000
  C   C36       1.0  0.87860  0.41470  0.37650  1.0000
  H   H13       1.0  0.35630  0.02930  0.83910  1.0000
  H   H14       1.0  0.14370  0.52930  0.66090  1.0000
  H   H15       1.0  0.64370  0.97070  0.16090  1.0000
  H   H16       1.0  0.85630  0.47070  0.33910  1.0000
  O   O37       1.0  0.25097  0.64760  0.83643  1.0000
  O   O38       1.0  0.24903  0.14760  0.66357  1.0000
  O   O39       1.0  0.74903  0.35240  0.16357  1.0000
  O   O40       1.0  0.75097  0.85240  0.33643  1.0000
  C   C37       1.0  0.46880  0.10730  0.90280  1.0000
  C   C38       1.0  0.03120  0.60730  0.59720  1.0000
  C   C39       1.0  0.53120  0.89270  0.09720  1.0000
  C   C40       1.0  0.96880  0.39270  0.40280  1.0000
  H   H17       1.0  0.50840  0.06450  0.88400  1.0000
  H   H18       1.0  0.99160  0.56450  0.61600  1.0000
  H   H19       1.0  0.49160  0.93550  0.11600  1.0000
  H   H20       1.0  0.00840  0.43550  0.38400  1.0000
  O   O41       1.0  0.24718  0.47400  0.11347  1.0000
  O   O42       1.0  0.25282  0.97400  0.38653  1.0000
  O   O43       1.0  0.75282  0.52600  0.88653  1.0000
  O   O44       1.0  0.74718  0.02600  0.61347  1.0000
  C   C41       1.0  0.49850  0.19320  0.95680  1.0000
  C   C42       1.0  0.00150  0.69320  0.54320  1.0000
  C   C43       1.0  0.50150  0.80680  0.04320  1.0000
  C   C44       1.0  0.99850  0.30680  0.45680  1.0000
  H   H21       1.0  0.55850  0.21120  0.97420  1.0000
  H   H22       1.0  0.94150  0.71120  0.52580  1.0000
  H   H23       1.0  0.44150  0.78880  0.02580  1.0000
  H   H24       1.0  0.05850  0.28880  0.47420  1.0000
  C   C45       1.0  0.43910  0.25320  0.98567  1.0000
  C   C46       1.0  0.06090  0.75320  0.51433  1.0000
  C   C47       1.0  0.56090  0.74680  0.01433  1.0000
  C   C48       1.0  0.93910  0.24680  0.48567  1.0000
  O   O45       1.0  0.24394  0.65750  0.17508  1.0000
  O   O46       1.0  0.25606  0.15750  0.32492  1.0000
  O   O47       1.0  0.75606  0.34250  0.82492  1.0000
  O   O48       1.0  0.74394  0.84250  0.67508  1.0000
  C   C49       1.0  0.22360  0.13770  0.88210  1.0000
  C   C50       1.0  0.27640  0.63770  0.61790  1.0000
  C   C51       1.0  0.77640  0.86230  0.11790  1.0000
  C   C52       1.0  0.72360  0.36230  0.38210  1.0000
  O   O49       1.0  0.45309  0.15680  0.18132  1.0000
  O   O50       1.0  0.04691  0.65680  0.31868  1.0000
  O   O51       1.0  0.54691  0.84320  0.81868  1.0000
  O   O52       1.0  0.95309  0.34320  0.68132  1.0000
  H   H25       1.0  0.50390  0.19240  0.19650  1.0000
  H   H26       1.0  0.99610  0.69240  0.30350  1.0000
  H   H27       1.0  0.49610  0.80760  0.80350  1.0000
  H   H28       1.0  0.00390  0.30760  0.69650  1.0000
  H   H29       1.0  0.40820  0.14910  0.14660  1.0000
  H   H30       1.0  0.09180  0.64910  0.35340  1.0000
  H   H31       1.0  0.59180  0.85090  0.85340  1.0000
  H   H32       1.0  0.90820  0.35090  0.64660  1.0000
  O   O53       1.0  0.33111  0.37100  0.24442  1.0000
  O   O54       1.0  0.16889  0.87100  0.25558  1.0000
  O   O55       1.0  0.66889  0.62900  0.75558  1.0000
  O   O56       1.0  0.83111  0.12900  0.74442  1.0000
  H   H33       1.0  0.29350  0.41450  0.25840  1.0000
  H   H34       1.0  0.20650  0.91450  0.24160  1.0000
  H   H35       1.0  0.70650  0.58550  0.74160  1.0000
  H   H36       1.0  0.79350  0.08550  0.75840  1.0000
  H   H37       1.0  0.31290  0.42080  0.20940  1.0000
  H   H38       1.0  0.18710  0.92080  0.29060  1.0000
  H   H39       1.0  0.68710  0.57920  0.79060  1.0000
  H   H40       1.0  0.81290  0.07920  0.70940  1.0000
  C   C53       1.0  0.46440  0.35090  0.04439  1.0000
  C   C54       1.0  0.03560  0.85090  0.45561  1.0000
  C   C55       1.0  0.53560  0.64910  0.95561  1.0000
  C   C56       1.0  0.96440  0.14910  0.54439  1.0000
  C   C57       1.0  0.25930  0.68210  0.95213  1.0000
  C   C58       1.0  0.24070  0.18210  0.54787  1.0000
  C   C59       1.0  0.74070  0.31790  0.04787  1.0000
  C   C60       1.0  0.75930  0.81790  0.45213  1.0000
  O   O57       1.0  0.50840  0.31840  0.33177  1.0000
  O   O58       1.0  0.99160  0.81840  0.16823  1.0000
  O   O59       1.0  0.49160  0.68160  0.66823  1.0000
  O   O60       1.0  0.00840  0.18160  0.83177  1.0000
  H   H41       1.0  0.51280  0.38100  0.30470  1.0000
  H   H42       1.0  0.98720  0.88100  0.19530  1.0000
  H   H43       1.0  0.48720  0.61900  0.69530  1.0000
  H   H44       1.0  0.01280  0.11900  0.80470  1.0000
  H   H45       1.0  0.56070  0.32400  0.35840  1.0000
  H   H46       1.0  0.93930  0.82400  0.14160  1.0000
  H   H47       1.0  0.43930  0.67600  0.64160  1.0000
  H   H48       1.0  0.06070  0.17600  0.85840  1.0000
  O   O61       1.0  0.55083  0.00760  0.30762  1.0000
  O   O62       1.0  0.94917  0.50760  0.19238  1.0000
  O   O63       1.0  0.44917  0.99240  0.69238  1.0000
  O   O64       1.0  0.05083  0.49240  0.80762  1.0000
  H   H49       1.0  0.59720  0.03670  0.29960  1.0000
  H   H50       1.0  0.90280  0.53670  0.20040  1.0000
  H   H51       1.0  0.40280  0.96330  0.70040  1.0000
  H   H52       1.0  0.09720  0.46330  0.79960  1.0000
  H   H53       1.0  0.57220  0.02410  0.34980  1.0000
  H   H54       1.0  0.92780  0.52410  0.15020  1.0000
  H   H55       1.0  0.42780  0.97590  0.65020  1.0000
  H   H56       1.0  0.07220  0.47590  0.84980  1.0000
  C   C61       1.0  0.26480  0.82070  0.95075  1.0000
  C   C62       1.0  0.23520  0.32070  0.54925  1.0000
  C   C63       1.0  0.73520  0.17930  0.04925  1.0000
  C   C64       1.0  0.76480  0.67930  0.45075  1.0000
  H   H57       1.0  0.26450  0.86560  0.91100  1.0000
  H   H58       1.0  0.23550  0.36560  0.58900  1.0000
  H   H59       1.0  0.73550  0.13440  0.08900  1.0000
  H   H60       1.0  0.76450  0.63440  0.41100  1.0000
  C   C65       1.0  0.27070  0.89160  0.00980  1.0000
  C   C66       1.0  0.22930  0.39160  0.49020  1.0000
  C   C67       1.0  0.72930  0.10840  0.99020  1.0000
  C   C68       1.0  0.77070  0.60840  0.50980  1.0000
  H   H61       1.0  0.27620  0.98510  0.01040  1.0000
  H   H62       1.0  0.22380  0.48510  0.48960  1.0000
  H   H63       1.0  0.72380  0.01490  0.98960  1.0000
  H   H64       1.0  0.77620  0.51490  0.51040  1.0000
  O   O65       1.0  0.36770  0.86600  0.28292  1.0000
  O   O66       1.0  0.13230  0.36600  0.21708  1.0000
  O   O67       1.0  0.63230  0.13400  0.71708  1.0000
  O   O68       1.0  0.86770  0.63400  0.78292  1.0000
  H   H65       1.0  0.35190  0.82910  0.24390  1.0000
  H   H66       1.0  0.14810  0.32910  0.25610  1.0000
  H   H67       1.0  0.64810  0.17090  0.75610  1.0000
  H   H68       1.0  0.85190  0.67090  0.74390  1.0000
  H   H69       1.0  0.33690  0.83080  0.30610  1.0000
  H   H70       1.0  0.16310  0.33080  0.19390  1.0000
  H   H71       1.0  0.66310  0.16920  0.69390  1.0000
  H   H72       1.0  0.83690  0.66920  0.80610  1.0000
  C   C69       1.0  0.26850  0.82380  0.06742  1.0000
  C   C70       1.0  0.23150  0.32380  0.43258  1.0000
  C   C71       1.0  0.73150  0.17620  0.93258  1.0000
  C   C72       1.0  0.76850  0.67620  0.56742  1.0000
  H   H73       1.0  0.27230  0.87030  0.10740  1.0000
  H   H74       1.0  0.22770  0.37030  0.39260  1.0000
  H   H75       1.0  0.72770  0.12970  0.89260  1.0000
  H   H76       1.0  0.77230  0.62970  0.60740  1.0000
  C   C73       1.0  0.26030  0.68450  0.06477  1.0000
  C   C74       1.0  0.23970  0.18450  0.43523  1.0000
  C   C75       1.0  0.73970  0.31550  0.93523  1.0000
  C   C76       1.0  0.76030  0.81550  0.56477  1.0000
  C   C77       1.0  0.25570  0.59340  0.89192  1.0000
  C   C78       1.0  0.24430  0.09340  0.60808  1.0000
  C   C79       1.0  0.74430  0.40660  0.10808  1.0000
  C   C80       1.0  0.75570  0.90660  0.39192  1.0000
  C   C81       1.0  0.24970  0.59980  0.12292  1.0000
  C   C82       1.0  0.25030  0.09980  0.37708  1.0000
  C   C83       1.0  0.75030  0.40020  0.87708  1.0000
  C   C84       1.0  0.74970  0.90020  0.62292  1.0000
