data_image0
_chemical_formula_structural       Gd4O4N4C4Sr4O4N4C4H4O4N4C4H4O4C4H4O4C4O4C4O4C8O8C4H4C4H4O8C4H4C4O4C4O4H8C4O4H8O4H8C4O4H8C4H4O4H8C4H4C4H4C12
_chemical_formula_sum              "Gd4 O68 N12 C84 Sr4 H76"
_cell_length_a       15.786
_cell_length_b       9.866
_cell_length_c       20.468
_cell_angle_alpha    90
_cell_angle_beta     106.93
_cell_angle_gamma    90

_space_group_name_H-M_alt    "P 1"
_space_group_IT_number       1

loop_
  _space_group_symop_operation_xyz
  'x, y, z'

loop_
  _atom_site_type_symbol
  _atom_site_label
  _atom_site_symmetry_multiplicity
  _atom_site_fract_x
  _atom_site_fract_y
  _atom_site_fract_z
  _atom_site_occupancy
  Gd  Gd1       1.0  0.24519  0.63903  0.00573  1.0000
  Gd  Gd2       1.0  0.25481  0.13903  0.49427  1.0000
  Gd  Gd3       1.0  0.75481  0.36097  0.99427  1.0000
  Gd  Gd4       1.0  0.74519  0.86097  0.50573  1.0000
  O   O1        1.0  0.24582  0.52880  0.11340  1.0000
  O   O2        1.0  0.25418  0.02880  0.38660  1.0000
  O   O3        1.0  0.75418  0.47120  0.88660  1.0000
  O   O4        1.0  0.74582  0.97120  0.61340  1.0000
  N   N1        1.0  0.25717  0.38660  0.00804  1.0000
  N   N2        1.0  0.24283  0.88660  0.49196  1.0000
  N   N3        1.0  0.74283  0.61340  0.99196  1.0000
  N   N4        1.0  0.75717  0.11340  0.50804  1.0000
  C   C1        1.0  0.26050  0.31690  0.06475  1.0000
  C   C2        1.0  0.23950  0.81690  0.43525  1.0000
  C   C3        1.0  0.73950  0.68310  0.93525  1.0000
  C   C4        1.0  0.76050  0.18310  0.56475  1.0000
  Sr  Sr1       1.0  0.10501  0.37405  0.21772  1.0000
  Sr  Sr2       1.0  0.39499  0.87405  0.28228  1.0000
  Sr  Sr3       1.0  0.89499  0.62595  0.78228  1.0000
  Sr  Sr4       1.0  0.60501  0.12595  0.71772  1.0000
  O   O5        1.0  0.24441  0.34350  0.17564  1.0000
  O   O6        1.0  0.25559  0.84350  0.32436  1.0000
  O   O7        1.0  0.75559  0.65650  0.82436  1.0000
  O   O8        1.0  0.74441  0.15650  0.67564  1.0000
  N   N5        1.0  0.35256  0.77180  0.96115  1.0000
  N   N6        1.0  0.14744  0.27180  0.53885  1.0000
  N   N7        1.0  0.64744  0.22820  0.03885  1.0000
  N   N8        1.0  0.85256  0.72820  0.46115  1.0000
  C   C5        1.0  0.26900  0.17770  0.06770  1.0000
  C   C6        1.0  0.23100  0.67770  0.43230  1.0000
  C   C7        1.0  0.73100  0.82230  0.93230  1.0000
  C   C8        1.0  0.76900  0.32230  0.56770  1.0000
  H   H1        1.0  0.27340  0.13140  0.10810  1.0000
  H   H2        1.0  0.22660  0.63140  0.39190  1.0000
  H   H3        1.0  0.72660  0.86860  0.89190  1.0000
  H   H4        1.0  0.77340  0.36860  0.60810  1.0000
  O   O9        1.0  0.25656  0.53520  0.90150  1.0000
  O   O10       1.0  0.24344  0.03520  0.59850  1.0000
  O   O11       1.0  0.74344  0.46480  0.09850  1.0000
  O   O12       1.0  0.75656  0.96480  0.40150  1.0000
  N   N9        1.0  0.11985  0.74940  0.03928  1.0000
  N   N10       1.0  0.38015  0.24940  0.46072  1.0000
  N   N11       1.0  0.88015  0.25060  0.96072  1.0000
  N   N12       1.0  0.61985  0.75060  0.53928  1.0000
  C   C9        1.0  0.27080  0.10820  0.00944  1.0000
  C   C10       1.0  0.22920  0.60820  0.49056  1.0000
  C   C11       1.0  0.72920  0.89180  0.99056  1.0000
  C   C12       1.0  0.77080  0.39180  0.50944  1.0000
  H   H5        1.0  0.27600  0.01430  0.01000  1.0000
  H   H6        1.0  0.22400  0.51430  0.49000  1.0000
  H   H7        1.0  0.72400  0.98570  0.99000  1.0000
  H   H8        1.0  0.77600  0.48570  0.51000  1.0000
  O   O13       1.0  0.25173  0.35420  0.83556  1.0000
  O   O14       1.0  0.24827  0.85420  0.66444  1.0000
  O   O15       1.0  0.74827  0.64580  0.16444  1.0000
  O   O16       1.0  0.75173  0.14580  0.33556  1.0000
  C   C13       1.0  0.26490  0.18050  0.95023  1.0000
  C   C14       1.0  0.23510  0.68050  0.54977  1.0000
  C   C15       1.0  0.73510  0.81950  0.04977  1.0000
  C   C16       1.0  0.76490  0.31950  0.45023  1.0000
  H   H9        1.0  0.26440  0.13590  0.91010  1.0000
  H   H10       1.0  0.23560  0.63590  0.58990  1.0000
  H   H11       1.0  0.73560  0.86410  0.08990  1.0000
  H   H12       1.0  0.76440  0.36410  0.41010  1.0000
  O   O17       1.0  0.40074  0.59670  0.06160  1.0000
  O   O18       1.0  0.09926  0.09670  0.43840  1.0000
  O   O19       1.0  0.59926  0.40330  0.93840  1.0000
  O   O20       1.0  0.90074  0.90330  0.56160  1.0000
  C   C17       1.0  0.25970  0.31980  0.95189  1.0000
  C   C18       1.0  0.24030  0.81980  0.54811  1.0000
  C   C19       1.0  0.74030  0.68020  0.04811  1.0000
  C   C20       1.0  0.75970  0.18020  0.45189  1.0000
  O   O21       1.0  0.54427  0.62590  0.07118  1.0000
  O   O22       1.0  0.95573  0.12590  0.42882  1.0000
  O   O23       1.0  0.45573  0.37410  0.92882  1.0000
  O   O24       1.0  0.04427  0.87410  0.57118  1.0000
  C   C21       1.0  0.24979  0.40180  0.12309  1.0000
  C   C22       1.0  0.25021  0.90180  0.37691  1.0000
  C   C23       1.0  0.75021  0.59820  0.87691  1.0000
  C   C24       1.0  0.74979  0.09820  0.62309  1.0000
  O   O25       1.0  0.18132  0.80940  0.91947  1.0000
  O   O26       1.0  0.31868  0.30940  0.58053  1.0000
  O   O27       1.0  0.81868  0.19060  0.08053  1.0000
  O   O28       1.0  0.68132  0.69060  0.41947  1.0000
  C   C25       1.0  0.25617  0.40920  0.89133  1.0000
  C   C26       1.0  0.24383  0.90920  0.60867  1.0000
  C   C27       1.0  0.74383  0.59080  0.10867  1.0000
  C   C28       1.0  0.75617  0.09080  0.39133  1.0000
  C   C29       1.0  0.43930  0.74580  0.98524  1.0000
  C   C30       1.0  0.06070  0.24580  0.51476  1.0000
  C   C31       1.0  0.56070  0.25420  0.01476  1.0000
  C   C32       1.0  0.93930  0.75420  0.48524  1.0000
  O   O29       1.0  0.18912  0.92490  0.82772  1.0000
  O   O30       1.0  0.31088  0.42490  0.67228  1.0000
  O   O31       1.0  0.81088  0.07510  0.17228  1.0000
  O   O32       1.0  0.68912  0.57510  0.32772  1.0000
  O   O33       1.0  0.28568  0.81330  0.09331  1.0000
  O   O34       1.0  0.21432  0.31330  0.40669  1.0000
  O   O35       1.0  0.71432  0.18670  0.90669  1.0000
  O   O36       1.0  0.78568  0.68670  0.59331  1.0000
  C   C33       1.0  0.49950  0.80470  0.95600  1.0000
  C   C34       1.0  0.00050  0.30470  0.54400  1.0000
  C   C35       1.0  0.50050  0.19530  0.04400  1.0000
  C   C36       1.0  0.99950  0.69530  0.45600  1.0000
  H   H13       1.0  0.55960  0.78560  0.97300  1.0000
  H   H14       1.0  0.94040  0.28560  0.52700  1.0000
  H   H15       1.0  0.44040  0.21440  0.02700  1.0000
  H   H16       1.0  0.05960  0.71440  0.47300  1.0000
  C   C37       1.0  0.46900  0.89170  0.90146  1.0000
  C   C38       1.0  0.03100  0.39170  0.59854  1.0000
  C   C39       1.0  0.53100  0.10830  0.09854  1.0000
  C   C40       1.0  0.96900  0.60830  0.40146  1.0000
  H   H17       1.0  0.50860  0.93400  0.88220  1.0000
  H   H18       1.0  0.99140  0.43400  0.61780  1.0000
  H   H19       1.0  0.49140  0.06600  0.11780  1.0000
  H   H20       1.0  0.00860  0.56600  0.38220  1.0000
  O   O37       1.0  0.25596  0.93030  0.17750  1.0000
  O   O38       1.0  0.24404  0.43030  0.32250  1.0000
  O   O39       1.0  0.74404  0.06970  0.82250  1.0000
  O   O40       1.0  0.75596  0.56970  0.67750  1.0000
  O   O41       1.0  0.09673  0.55610  0.94769  1.0000
  O   O42       1.0  0.40327  0.05610  0.55231  1.0000
  O   O43       1.0  0.90327  0.44390  0.05231  1.0000
  O   O44       1.0  0.59673  0.94390  0.44769  1.0000
  C   C41       1.0  0.37900  0.91570  0.87568  1.0000
  C   C42       1.0  0.12100  0.41570  0.62432  1.0000
  C   C43       1.0  0.62100  0.08430  0.12432  1.0000
  C   C44       1.0  0.87900  0.58430  0.37568  1.0000
  H   H21       1.0  0.35680  0.97240  0.83830  1.0000
  H   H22       1.0  0.14320  0.47240  0.66170  1.0000
  H   H23       1.0  0.64320  0.02760  0.16170  1.0000
  H   H24       1.0  0.85680  0.52760  0.33830  1.0000
  C   C45       1.0  0.32310  0.85250  0.90737  1.0000
  C   C46       1.0  0.17690  0.35250  0.59263  1.0000
  C   C47       1.0  0.67690  0.14750  0.09263  1.0000
  C   C48       1.0  0.82310  0.64750  0.40737  1.0000
  O   O45       1.0  0.95028  0.58940  0.91191  1.0000
  O   O46       1.0  0.54972  0.08940  0.58809  1.0000
  O   O47       1.0  0.04972  0.41060  0.08809  1.0000
  O   O48       1.0  0.45028  0.91060  0.41191  1.0000
  C   C49       1.0  0.46450  0.64820  0.04402  1.0000
  C   C50       1.0  0.03550  0.14820  0.45598  1.0000
  C   C51       1.0  0.53550  0.35180  0.95598  1.0000
  C   C52       1.0  0.96450  0.85180  0.54402  1.0000
  O   O49       1.0  0.94844  0.49190  0.19293  1.0000
  O   O50       1.0  0.55156  0.99190  0.30707  1.0000
  O   O51       1.0  0.05156  0.50810  0.80707  1.0000
  O   O52       1.0  0.44844  0.00810  0.69293  1.0000
  H   H25       1.0  0.92590  0.48140  0.15020  1.0000
  H   H26       1.0  0.57410  0.98140  0.34980  1.0000
  H   H27       1.0  0.07410  0.51860  0.84980  1.0000
  H   H28       1.0  0.42590  0.01860  0.65020  1.0000
  H   H29       1.0  0.90320  0.47350  0.20590  1.0000
  H   H30       1.0  0.59680  0.97350  0.29410  1.0000
  H   H31       1.0  0.09680  0.52650  0.79410  1.0000
  H   H32       1.0  0.40320  0.02650  0.70590  1.0000
  C   C53       1.0  0.22320  0.86500  0.88179  1.0000
  C   C54       1.0  0.27680  0.36500  0.61821  1.0000
  C   C55       1.0  0.77680  0.13500  0.11821  1.0000
  C   C56       1.0  0.72320  0.63500  0.38179  1.0000
  O   O53       1.0  0.99163  0.18100  0.16854  1.0000
  O   O54       1.0  0.50837  0.68100  0.33146  1.0000
  O   O55       1.0  0.00837  0.81900  0.83146  1.0000
  O   O56       1.0  0.49163  0.31900  0.66854  1.0000
  H   H33       1.0  0.95090  0.13620  0.17820  1.0000
  H   H34       1.0  0.54910  0.63620  0.32180  1.0000
  H   H35       1.0  0.04910  0.86380  0.82180  1.0000
  H   H36       1.0  0.45090  0.36380  0.67820  1.0000
  H   H37       1.0  0.96890  0.21240  0.12860  1.0000
  H   H38       1.0  0.53110  0.71240  0.37140  1.0000
  H   H39       1.0  0.03110  0.78760  0.87140  1.0000
  H   H40       1.0  0.46890  0.28760  0.62860  1.0000
  O   O57       1.0  0.13262  0.63530  0.21525  1.0000
  O   O58       1.0  0.36738  0.13530  0.28475  1.0000
  O   O59       1.0  0.86738  0.36470  0.78475  1.0000
  O   O60       1.0  0.63262  0.86470  0.71525  1.0000
  H   H41       1.0  0.16260  0.64510  0.18710  1.0000
  H   H42       1.0  0.33740  0.14510  0.31290  1.0000
  H   H43       1.0  0.83740  0.35490  0.81290  1.0000
  H   H44       1.0  0.66260  0.85490  0.68710  1.0000
  H   H45       1.0  0.14480  0.70380  0.24150  1.0000
  H   H46       1.0  0.35520  0.20380  0.25850  1.0000
  H   H47       1.0  0.85520  0.29620  0.75850  1.0000
  H   H48       1.0  0.64480  0.79620  0.74150  1.0000
  C   C57       1.0  0.13620  0.84420  0.08774  1.0000
  C   C58       1.0  0.36380  0.34420  0.41226  1.0000
  C   C59       1.0  0.86380  0.15580  0.91226  1.0000
  C   C60       1.0  0.63620  0.65580  0.58774  1.0000
  O   O61       1.0  0.16796  0.12880  0.25567  1.0000
  O   O62       1.0  0.33204  0.62880  0.24433  1.0000
  O   O63       1.0  0.83204  0.87120  0.74433  1.0000
  O   O64       1.0  0.66796  0.37120  0.75567  1.0000
  H   H49       1.0  0.19100  0.09430  0.29490  1.0000
  H   H50       1.0  0.30900  0.59430  0.20510  1.0000
  H   H51       1.0  0.80900  0.90570  0.70510  1.0000
  H   H52       1.0  0.69100  0.40570  0.79490  1.0000
  H   H53       1.0  0.19460  0.09500  0.22890  1.0000
  H   H54       1.0  0.30540  0.59500  0.27110  1.0000
  H   H55       1.0  0.80540  0.90500  0.77110  1.0000
  H   H56       1.0  0.69460  0.40500  0.72890  1.0000
  C   C61       1.0  0.06920  0.91400  0.10408  1.0000
  C   C62       1.0  0.43080  0.41400  0.39592  1.0000
  C   C63       1.0  0.93080  0.08600  0.89592  1.0000
  C   C64       1.0  0.56920  0.58600  0.60408  1.0000
  H   H57       1.0  0.08220  0.98030  0.13790  1.0000
  H   H58       1.0  0.41780  0.48030  0.36210  1.0000
  H   H59       1.0  0.91780  0.01970  0.86210  1.0000
  H   H60       1.0  0.58220  0.51970  0.63790  1.0000
  O   O65       1.0  0.04622  0.34200  0.31944  1.0000
  O   O66       1.0  0.45378  0.84200  0.18056  1.0000
  O   O67       1.0  0.95378  0.65800  0.68056  1.0000
  O   O68       1.0  0.54622  0.15800  0.81944  1.0000
  H   H61       1.0  0.08750  0.31330  0.35330  1.0000
  H   H62       1.0  0.41250  0.81330  0.14670  1.0000
  H   H63       1.0  0.91250  0.68670  0.64670  1.0000
  H   H64       1.0  0.58750  0.18670  0.85330  1.0000
  H   H65       1.0  0.00060  0.39160  0.30460  1.0000
  H   H66       1.0  0.49940  0.89160  0.19540  1.0000
  H   H67       1.0  0.99940  0.60840  0.69540  1.0000
  H   H68       1.0  0.50060  0.10840  0.80460  1.0000
  C   C65       1.0  0.98200  0.88270  0.06870  1.0000
  C   C66       1.0  0.51800  0.38270  0.43130  1.0000
  C   C67       1.0  0.01800  0.11730  0.93130  1.0000
  C   C68       1.0  0.48200  0.61730  0.56870  1.0000
  H   H69       1.0  0.93530  0.92870  0.07800  1.0000
  H   H70       1.0  0.56470  0.42870  0.42200  1.0000
  H   H71       1.0  0.06470  0.07130  0.92200  1.0000
  H   H72       1.0  0.43530  0.57130  0.57800  1.0000
  C   C69       1.0  0.96570  0.78300  0.01990  1.0000
  C   C70       1.0  0.53430  0.28300  0.48010  1.0000
  C   C71       1.0  0.03430  0.21700  0.98010  1.0000
  C   C72       1.0  0.46570  0.71700  0.51990  1.0000
  H   H73       1.0  0.90780  0.75920  0.99660  1.0000
  H   H74       1.0  0.59220  0.25920  0.50340  1.0000
  H   H75       1.0  0.09220  0.24080  0.00340  1.0000
  H   H76       1.0  0.40780  0.74080  0.49660  1.0000
  C   C73       1.0  0.03560  0.71820  0.00542  1.0000
  C   C74       1.0  0.46440  0.21820  0.49458  1.0000
  C   C75       1.0  0.96440  0.28180  0.99458  1.0000
  C   C76       1.0  0.53560  0.78180  0.50542  1.0000
  C   C77       1.0  0.23360  0.86610  0.12303  1.0000
  C   C78       1.0  0.26640  0.36610  0.37697  1.0000
  C   C79       1.0  0.76640  0.13390  0.87697  1.0000
  C   C80       1.0  0.73360  0.63390  0.62303  1.0000
  C   C81       1.0  0.02580  0.61230  0.95095  1.0000
  C   C82       1.0  0.47420  0.11230  0.54905  1.0000
  C   C83       1.0  0.97420  0.38770  0.04905  1.0000
  C   C84       1.0  0.52580  0.88770  0.45095  1.0000
