data_image0
_chemical_formula_structural       U4O24C8Cl4
_chemical_formula_sum              "U4 O24 C8 Cl4"
_cell_length_a       10.759
_cell_length_b       11.395
_cell_length_c       14.149
_cell_angle_alpha    90
_cell_angle_beta     102.962
_cell_angle_gamma    90

_space_group_name_H-M_alt    "P 1"
_space_group_IT_number       1

loop_
  _space_group_symop_operation_xyz
  'x, y, z'

loop_
  _atom_site_type_symbol
  _atom_site_label
  _atom_site_symmetry_multiplicity
  _atom_site_fract_x
  _atom_site_fract_y
  _atom_site_fract_z
  _atom_site_occupancy
  U   U1        1.0  0.63998  0.40534  0.76667  1.0000
  U   U2        1.0  0.86002  0.90534  0.73333  1.0000
  U   U3        1.0  0.36002  0.59466  0.23333  1.0000
  U   U4        1.0  0.13998  0.09466  0.26667  1.0000
  O   O1        1.0  0.58180  0.42780  0.64370  1.0000
  O   O2        1.0  0.91820  0.92780  0.85630  1.0000
  O   O3        1.0  0.41820  0.57220  0.35630  1.0000
  O   O4        1.0  0.08180  0.07220  0.14370  1.0000
  O   O5        1.0  0.70760  0.38190  0.88940  1.0000
  O   O6        1.0  0.79240  0.88190  0.61060  1.0000
  O   O7        1.0  0.29240  0.61810  0.11060  1.0000
  O   O8        1.0  0.20760  0.11810  0.38940  1.0000
  O   O9        1.0  0.82500  0.52040  0.75230  1.0000
  O   O10       1.0  0.67500  0.02040  0.74770  1.0000
  O   O11       1.0  0.17500  0.47960  0.24770  1.0000
  O   O12       1.0  0.32500  0.97960  0.25230  1.0000
  O   O13       1.0  0.61410  0.61300  0.79010  1.0000
  O   O14       1.0  0.88590  0.11300  0.70990  1.0000
  O   O15       1.0  0.38590  0.38700  0.20990  1.0000
  O   O16       1.0  0.11410  0.88700  0.29010  1.0000
  O   O17       1.0  0.90350  0.69780  0.74700  1.0000
  O   O18       1.0  0.59650  0.19780  0.75300  1.0000
  O   O19       1.0  0.09650  0.30220  0.25300  1.0000
  O   O20       1.0  0.40350  0.80220  0.24700  1.0000
  O   O21       1.0  0.69780  0.79040  0.77980  1.0000
  O   O22       1.0  0.80220  0.29040  0.72020  1.0000
  O   O23       1.0  0.30220  0.20960  0.22020  1.0000
  O   O24       1.0  0.19780  0.70960  0.27980  1.0000
  C   C1        1.0  0.81800  0.62300  0.75970  1.0000
  C   C2        1.0  0.68200  0.12300  0.74030  1.0000
  C   C3        1.0  0.18200  0.37700  0.24030  1.0000
  C   C4        1.0  0.31800  0.87700  0.25970  1.0000
  C   C5        1.0  0.69500  0.68100  0.77620  1.0000
  C   C6        1.0  0.80500  0.18100  0.72380  1.0000
  C   C7        1.0  0.30500  0.31900  0.22380  1.0000
  C   C8        1.0  0.19500  0.81900  0.27620  1.0000
  Cl  Cl1       1.0  0.40550  0.40100  0.79700  1.0000
  Cl  Cl2       1.0  0.09450  0.90100  0.70300  1.0000
  Cl  Cl3       1.0  0.59450  0.59900  0.20300  1.0000
  Cl  Cl4       1.0  0.90550  0.09900  0.29700  1.0000
