data_image0
_chemical_formula_structural       Mo28Co4O100H8O4H8N8H4N8H4C4H4C4H4C4H4C4H4C4H4C4H4
_chemical_formula_sum              "Mo28 Co4 O104 H48 N16 C24"
_cell_length_a       12.162
_cell_length_b       16.381
_cell_length_c       23.781
_cell_angle_alpha    90
_cell_angle_beta     99.729
_cell_angle_gamma    90

_space_group_name_H-M_alt    "P 1"
_space_group_IT_number       1

loop_
  _space_group_symop_operation_xyz
  'x, y, z'

loop_
  _atom_site_type_symbol
  _atom_site_label
  _atom_site_symmetry_multiplicity
  _atom_site_fract_x
  _atom_site_fract_y
  _atom_site_fract_z
  _atom_site_occupancy
  Mo  Mo1       1.0  0.82033  0.18308  0.91377  1.0000
  Mo  Mo2       1.0  0.17967  0.68308  0.58623  1.0000
  Mo  Mo3       1.0  0.17967  0.81692  0.08623  1.0000
  Mo  Mo4       1.0  0.82033  0.31692  0.41377  1.0000
  Mo  Mo5       1.0  0.58097  0.29290  0.90674  1.0000
  Mo  Mo6       1.0  0.41903  0.79290  0.59326  1.0000
  Mo  Mo7       1.0  0.41903  0.70710  0.09326  1.0000
  Mo  Mo8       1.0  0.58097  0.20710  0.40674  1.0000
  Mo  Mo9       1.0  0.56569  0.09340  0.90189  1.0000
  Mo  Mo10      1.0  0.43431  0.59340  0.59811  1.0000
  Mo  Mo11      1.0  0.43431  0.90660  0.09811  1.0000
  Mo  Mo12      1.0  0.56569  0.40660  0.40189  1.0000
  Mo  Mo13      1.0  0.78782  0.09168  0.78425  1.0000
  Mo  Mo14      1.0  0.21218  0.59168  0.71575  1.0000
  Mo  Mo15      1.0  0.21218  0.90832  0.21575  1.0000
  Mo  Mo16      1.0  0.78782  0.40832  0.28425  1.0000
  Mo  Mo17      1.0  0.81073  0.29029  0.78987  1.0000
  Mo  Mo18      1.0  0.18927  0.79029  0.71013  1.0000
  Mo  Mo19      1.0  0.18927  0.70971  0.21013  1.0000
  Mo  Mo20      1.0  0.81073  0.20971  0.28987  1.0000
  Mo  Mo21      1.0  0.77643  0.97912  0.89423  1.0000
  Mo  Mo22      1.0  0.22357  0.47912  0.60577  1.0000
  Mo  Mo23      1.0  0.22357  0.02088  0.10577  1.0000
  Mo  Mo24      1.0  0.77643  0.52088  0.39423  1.0000
  Mo  Mo25      1.0  0.81029  0.39006  0.90491  1.0000
  Mo  Mo26      1.0  0.18971  0.89006  0.59509  1.0000
  Mo  Mo27      1.0  0.18971  0.60994  0.09509  1.0000
  Mo  Mo28      1.0  0.81029  0.10994  0.40491  1.0000
  Co  Co1       1.0  0.41596  0.45393  0.81181  1.0000
  Co  Co2       1.0  0.58404  0.95393  0.68819  1.0000
  Co  Co3       1.0  0.58404  0.54607  0.18819  1.0000
  Co  Co4       1.0  0.41596  0.04607  0.31181  1.0000
  O   O1        1.0  0.87950  0.18290  0.84420  1.0000
  O   O2        1.0  0.12050  0.68290  0.65580  1.0000
  O   O3        1.0  0.12050  0.81710  0.15580  1.0000
  O   O4        1.0  0.87950  0.31710  0.34420  1.0000
  O   O5        1.0  0.68530  0.18830  0.94310  1.0000
  O   O6        1.0  0.31470  0.68830  0.55690  1.0000
  O   O7        1.0  0.31470  0.81170  0.05690  1.0000
  O   O8        1.0  0.68530  0.31170  0.44310  1.0000
  O   O9        1.0  0.71070  0.09450  0.85890  1.0000
  O   O10       1.0  0.28930  0.59450  0.64110  1.0000
  O   O11       1.0  0.28930  0.90550  0.14110  1.0000
  O   O12       1.0  0.71070  0.40550  0.35890  1.0000
  O   O13       1.0  0.88210  0.09640  0.94580  1.0000
  O   O14       1.0  0.11790  0.59640  0.55420  1.0000
  O   O15       1.0  0.11790  0.90360  0.05420  1.0000
  O   O16       1.0  0.88210  0.40360  0.44580  1.0000
  O   O17       1.0  0.89400  0.26330  0.94980  1.0000
  O   O18       1.0  0.10600  0.76330  0.55020  1.0000
  O   O19       1.0  0.10600  0.73670  0.05020  1.0000
  O   O20       1.0  0.89400  0.23670  0.44980  1.0000
  O   O21       1.0  0.72630  0.28650  0.86290  1.0000
  O   O22       1.0  0.27370  0.78650  0.63710  1.0000
  O   O23       1.0  0.27370  0.71350  0.13710  1.0000
  O   O24       1.0  0.72630  0.21350  0.36290  1.0000
  O   O25       1.0  0.69900  0.36220  0.95040  1.0000
  O   O26       1.0  0.30100  0.86220  0.54960  1.0000
  O   O27       1.0  0.30100  0.63780  0.04960  1.0000
  O   O28       1.0  0.69900  0.13780  0.45040  1.0000
  O   O29       1.0  0.51490  0.36530  0.86030  1.0000
  O   O30       1.0  0.48510  0.86530  0.63970  1.0000
  O   O31       1.0  0.48510  0.63470  0.13970  1.0000
  O   O32       1.0  0.51490  0.13470  0.36030  1.0000
  O   O33       1.0  0.52040  0.19680  0.86310  1.0000
  O   O34       1.0  0.47960  0.69680  0.63690  1.0000
  O   O35       1.0  0.47960  0.80320  0.13690  1.0000
  O   O36       1.0  0.52040  0.30320  0.36310  1.0000
  O   O37       1.0  0.50410  0.28720  0.96000  1.0000
  O   O38       1.0  0.49590  0.78720  0.54000  1.0000
  O   O39       1.0  0.49590  0.71280  0.04000  1.0000
  O   O40       1.0  0.50410  0.21280  0.46000  1.0000
  O   O41       1.0  0.67250  0.01500  0.94240  1.0000
  O   O42       1.0  0.32750  0.51500  0.55760  1.0000
  O   O43       1.0  0.32750  0.98500  0.05760  1.0000
  O   O44       1.0  0.67250  0.48500  0.44240  1.0000
  O   O45       1.0  0.48770  0.09890  0.95540  1.0000
  O   O46       1.0  0.51230  0.59890  0.54460  1.0000
  O   O47       1.0  0.51230  0.90110  0.04460  1.0000
  O   O48       1.0  0.48770  0.40110  0.45540  1.0000
  O   O49       1.0  0.49110  0.03260  0.85130  1.0000
  O   O50       1.0  0.50890  0.53260  0.64870  1.0000
  O   O51       1.0  0.50890  0.96740  0.14870  1.0000
  O   O52       1.0  0.49110  0.46740  0.35130  1.0000
  O   O53       1.0  0.72210  0.19530  0.76070  1.0000
  O   O54       1.0  0.27790  0.69530  0.73930  1.0000
  O   O55       1.0  0.27790  0.80470  0.23930  1.0000
  O   O56       1.0  0.72210  0.30470  0.26070  1.0000
  O   O57       1.0  0.86580  0.00850  0.83770  1.0000
  O   O58       1.0  0.13420  0.50850  0.66230  1.0000
  O   O59       1.0  0.13420  0.99150  0.16230  1.0000
  O   O60       1.0  0.86580  0.49150  0.33770  1.0000
  O   O61       1.0  0.68580  0.03170  0.74610  1.0000
  O   O62       1.0  0.31420  0.53170  0.75390  1.0000
  O   O63       1.0  0.31420  0.96830  0.25390  1.0000
  O   O64       1.0  0.68580  0.46830  0.24610  1.0000
  O   O65       1.0  0.89570  0.09190  0.74570  1.0000
  O   O66       1.0  0.10430  0.59190  0.75430  1.0000
  O   O67       1.0  0.10430  0.90810  0.25430  1.0000
  O   O68       1.0  0.89570  0.40810  0.24570  1.0000
  O   O69       1.0  0.89980  0.35740  0.84850  1.0000
  O   O70       1.0  0.10020  0.85740  0.65150  1.0000
  O   O71       1.0  0.10020  0.64260  0.15150  1.0000
  O   O72       1.0  0.89980  0.14260  0.34850  1.0000
  O   O73       1.0  0.72570  0.36170  0.75320  1.0000
  O   O74       1.0  0.27430  0.86170  0.74680  1.0000
  O   O75       1.0  0.27430  0.63830  0.24680  1.0000
  O   O76       1.0  0.72570  0.13830  0.25320  1.0000
  O   O77       1.0  0.91840  0.27810  0.75190  1.0000
  O   O78       1.0  0.08160  0.77810  0.74810  1.0000
  O   O79       1.0  0.08160  0.72190  0.24810  1.0000
  O   O80       1.0  0.91840  0.22190  0.25190  1.0000
  O   O81       1.0  0.69490  0.90530  0.85780  1.0000
  O   O82       1.0  0.30510  0.40530  0.64220  1.0000
  O   O83       1.0  0.30510  0.09470  0.14220  1.0000
  O   O84       1.0  0.69490  0.59470  0.35780  1.0000
  O   O85       1.0  0.87210  0.92870  0.94270  1.0000
  O   O86       1.0  0.12790  0.42870  0.55730  1.0000
  O   O87       1.0  0.12790  0.07130  0.05730  1.0000
  O   O88       1.0  0.87210  0.57130  0.44270  1.0000
  O   O89       1.0  0.74920  0.47220  0.87000  1.0000
  O   O90       1.0  0.25080  0.97220  0.63000  1.0000
  O   O91       1.0  0.25080  0.52780  0.13000  1.0000
  O   O92       1.0  0.74920  0.02780  0.37000  1.0000
  O   O93       1.0  0.91280  0.43010  0.95720  1.0000
  O   O94       1.0  0.08720  0.93010  0.54280  1.0000
  O   O95       1.0  0.08720  0.56990  0.04280  1.0000
  O   O96       1.0  0.91280  0.06990  0.45720  1.0000
  O   O97       1.0  0.35910  0.35870  0.75470  1.0000
  O   O98       1.0  0.64090  0.85870  0.74530  1.0000
  O   O99       1.0  0.64090  0.64130  0.24530  1.0000
  O   O100      1.0  0.35910  0.14130  0.25470  1.0000
  H   H1        1.0  0.30140  0.33740  0.76440  1.0000
  H   H2        1.0  0.69860  0.83740  0.73560  1.0000
  H   H3        1.0  0.69860  0.66260  0.23560  1.0000
  H   H4        1.0  0.30140  0.16260  0.26440  1.0000
  H   H5        1.0  0.34270  0.37790  0.72110  1.0000
  H   H6        1.0  0.65730  0.87790  0.77890  1.0000
  H   H7        1.0  0.65730  0.62210  0.27890  1.0000
  H   H8        1.0  0.34270  0.12210  0.22110  1.0000
  O   O101      1.0  0.54570  0.47150  0.76080  1.0000
  O   O102      1.0  0.45430  0.97150  0.73920  1.0000
  O   O103      1.0  0.45430  0.52850  0.23920  1.0000
  O   O104      1.0  0.54570  0.02850  0.26080  1.0000
  H   H9        1.0  0.58800  0.51030  0.77490  1.0000
  H   H10       1.0  0.41200  0.01030  0.72510  1.0000
  H   H11       1.0  0.41200  0.48970  0.22510  1.0000
  H   H12       1.0  0.58800  0.98970  0.27490  1.0000
  H   H13       1.0  0.58360  0.42790  0.76110  1.0000
  H   H14       1.0  0.41640  0.92790  0.73890  1.0000
  H   H15       1.0  0.41640  0.57210  0.23890  1.0000
  H   H16       1.0  0.58360  0.07210  0.26110  1.0000
  N   N1        1.0  0.47660  0.54790  0.86740  1.0000
  N   N2        1.0  0.52340  0.04790  0.63260  1.0000
  N   N3        1.0  0.52340  0.45210  0.13260  1.0000
  N   N4        1.0  0.47660  0.95210  0.36740  1.0000
  N   N5        1.0  0.50370  0.67140  0.90440  1.0000
  N   N6        1.0  0.49630  0.17140  0.59560  1.0000
  N   N7        1.0  0.49630  0.32860  0.09560  1.0000
  N   N8        1.0  0.50370  0.82860  0.40440  1.0000
  H   H17       1.0  0.49890  0.72330  0.90880  1.0000
  H   H18       1.0  0.50110  0.22330  0.59120  1.0000
  H   H19       1.0  0.50110  0.27670  0.09120  1.0000
  H   H20       1.0  0.49890  0.77670  0.40880  1.0000
  N   N9        1.0  0.28460  0.43240  0.85550  1.0000
  N   N10       1.0  0.71540  0.93240  0.64450  1.0000
  N   N11       1.0  0.71540  0.56760  0.14450  1.0000
  N   N12       1.0  0.28460  0.06760  0.35550  1.0000
  N   N13       1.0  0.11780  0.40850  0.87360  1.0000
  N   N14       1.0  0.88220  0.90850  0.62640  1.0000
  N   N15       1.0  0.88220  0.59150  0.12640  1.0000
  N   N16       1.0  0.11780  0.09150  0.37360  1.0000
  H   H21       1.0  0.04790  0.39680  0.86810  1.0000
  H   H22       1.0  0.95210  0.89680  0.63190  1.0000
  H   H23       1.0  0.95210  0.60320  0.13190  1.0000
  H   H24       1.0  0.04790  0.10320  0.36810  1.0000
  C   C1        1.0  0.45080  0.62700  0.86110  1.0000
  C   C2        1.0  0.54920  0.12700  0.63890  1.0000
  C   C3        1.0  0.54920  0.37300  0.13890  1.0000
  C   C4        1.0  0.45080  0.87300  0.36110  1.0000
  H   H25       1.0  0.40180  0.64850  0.83040  1.0000
  H   H26       1.0  0.59820  0.14850  0.66960  1.0000
  H   H27       1.0  0.59820  0.35150  0.16960  1.0000
  H   H28       1.0  0.40180  0.85150  0.33040  1.0000
  C   C5        1.0  0.56690  0.61840  0.94020  1.0000
  C   C6        1.0  0.43310  0.11840  0.55980  1.0000
  C   C7        1.0  0.43310  0.38160  0.05980  1.0000
  C   C8        1.0  0.56690  0.88160  0.44020  1.0000
  H   H29       1.0  0.61270  0.63180  0.97440  1.0000
  H   H30       1.0  0.38730  0.13180  0.52560  1.0000
  H   H31       1.0  0.38730  0.36820  0.02560  1.0000
  H   H32       1.0  0.61270  0.86820  0.47440  1.0000
  C   C9        1.0  0.55170  0.54390  0.91770  1.0000
  C   C10       1.0  0.44830  0.04390  0.58230  1.0000
  C   C11       1.0  0.44830  0.45610  0.08230  1.0000
  C   C12       1.0  0.55170  0.95610  0.41770  1.0000
  H   H33       1.0  0.58630  0.49660  0.93350  1.0000
  H   H34       1.0  0.41370  0.99660  0.56650  1.0000
  H   H35       1.0  0.41370  0.50340  0.06650  1.0000
  H   H36       1.0  0.58630  0.00340  0.43350  1.0000
  C   C13       1.0  0.18370  0.41150  0.83390  1.0000
  C   C14       1.0  0.81630  0.91150  0.66610  1.0000
  C   C15       1.0  0.81630  0.58850  0.16610  1.0000
  C   C16       1.0  0.18370  0.08850  0.33390  1.0000
  H   H37       1.0  0.15980  0.40000  0.79550  1.0000
  H   H38       1.0  0.84020  0.90000  0.70450  1.0000
  H   H39       1.0  0.84020  0.60000  0.20450  1.0000
  H   H40       1.0  0.15980  0.10000  0.29550  1.0000
  C   C17       1.0  0.18190  0.42730  0.92370  1.0000
  C   C18       1.0  0.81810  0.92730  0.57630  1.0000
  C   C19       1.0  0.81810  0.57270  0.07630  1.0000
  C   C20       1.0  0.18190  0.07270  0.42370  1.0000
  H   H41       1.0  0.15900  0.43010  0.95910  1.0000
  H   H42       1.0  0.84100  0.93010  0.54090  1.0000
  H   H43       1.0  0.84100  0.56990  0.04090  1.0000
  H   H44       1.0  0.15900  0.06990  0.45910  1.0000
  C   C21       1.0  0.28470  0.44110  0.91310  1.0000
  C   C22       1.0  0.71530  0.94110  0.58690  1.0000
  C   C23       1.0  0.71530  0.55890  0.08690  1.0000
  C   C24       1.0  0.28470  0.05890  0.41310  1.0000
  H   H45       1.0  0.34650  0.45440  0.94030  1.0000
  H   H46       1.0  0.65350  0.95440  0.55970  1.0000
  H   H47       1.0  0.65350  0.54560  0.05970  1.0000
  H   H48       1.0  0.34650  0.04560  0.44030  1.0000
