data_image0
_chemical_formula_structural       Cd4N24C12N12C12
_chemical_formula_sum              "Cd4 N36 C24"
_cell_length_a       10.9243
_cell_length_b       15.2819
_cell_length_c       13.7228
_cell_angle_alpha    90
_cell_angle_beta     93.079
_cell_angle_gamma    90

_space_group_name_H-M_alt    "P 1"
_space_group_IT_number       1

loop_
  _space_group_symop_operation_xyz
  'x, y, z'

loop_
  _atom_site_type_symbol
  _atom_site_label
  _atom_site_symmetry_multiplicity
  _atom_site_fract_x
  _atom_site_fract_y
  _atom_site_fract_z
  _atom_site_occupancy
  Cd  Cd1       1.0  0.77019  0.21152  0.72747  1.0000
  Cd  Cd2       1.0  0.72981  0.71152  0.77253  1.0000
  Cd  Cd3       1.0  0.22981  0.78848  0.27253  1.0000
  Cd  Cd4       1.0  0.27019  0.28848  0.22747  1.0000
  N   N1        1.0  0.69564  0.32048  0.82676  1.0000
  N   N2        1.0  0.80436  0.82048  0.67324  1.0000
  N   N3        1.0  0.30436  0.67952  0.17324  1.0000
  N   N4        1.0  0.19564  0.17952  0.32676  1.0000
  N   N5        1.0  0.94587  0.21218  0.82917  1.0000
  N   N6        1.0  0.55413  0.71218  0.67083  1.0000
  N   N7        1.0  0.05413  0.78782  0.17083  1.0000
  N   N8        1.0  0.44587  0.28782  0.32917  1.0000
  N   N9        1.0  0.68865  0.10423  0.82421  1.0000
  N   N10       1.0  0.81135  0.60423  0.67579  1.0000
  N   N11       1.0  0.31135  0.89577  0.17579  1.0000
  N   N12       1.0  0.18865  0.39577  0.32421  1.0000
  N   N13       1.0  0.84319  0.32376  0.63329  1.0000
  N   N14       1.0  0.65681  0.82376  0.86671  1.0000
  N   N15       1.0  0.15681  0.67624  0.36671  1.0000
  N   N16       1.0  0.34319  0.17624  0.13329  1.0000
  N   N17       1.0  0.85007  0.10088  0.63458  1.0000
  N   N18       1.0  0.64993  0.60088  0.86542  1.0000
  N   N19       1.0  0.14993  0.89912  0.36542  1.0000
  N   N20       1.0  0.35007  0.39912  0.13458  1.0000
  N   N21       1.0  0.59301  0.21338  0.62476  1.0000
  N   N22       1.0  0.90699  0.71338  0.87524  1.0000
  N   N23       1.0  0.40699  0.78662  0.37524  1.0000
  N   N24       1.0  0.09301  0.28662  0.12476  1.0000
  C   C1        1.0  0.68423  0.38395  0.87052  1.0000
  C   C2        1.0  0.81577  0.88395  0.62948  1.0000
  C   C3        1.0  0.31577  0.61605  0.12948  1.0000
  C   C4        1.0  0.18423  0.11605  0.37052  1.0000
  C   C5        1.0  0.98232  0.20444  0.90868  1.0000
  C   C6        1.0  0.51768  0.70444  0.59132  1.0000
  C   C7        1.0  0.01768  0.79556  0.09132  1.0000
  C   C8        1.0  0.48232  0.29556  0.40868  1.0000
  C   C9        1.0  0.83789  0.39582  0.60942  1.0000
  C   C10       1.0  0.66211  0.89582  0.89058  1.0000
  C   C11       1.0  0.16211  0.60418  0.39058  1.0000
  C   C12       1.0  0.33789  0.10418  0.10942  1.0000
  N   N25       1.0  0.66948  0.45061  0.92884  1.0000
  N   N26       1.0  0.83052  0.95061  0.57116  1.0000
  N   N27       1.0  0.33052  0.54939  0.07116  1.0000
  N   N28       1.0  0.16948  0.04939  0.42884  1.0000
  N   N29       1.0  0.02720  0.18457  0.99498  1.0000
  N   N30       1.0  0.47280  0.68457  0.50502  1.0000
  N   N31       1.0  0.97280  0.81543  0.00502  1.0000
  N   N32       1.0  0.52720  0.31543  0.49498  1.0000
  N   N33       1.0  0.83426  0.47474  0.57322  1.0000
  N   N34       1.0  0.66574  0.97474  0.92678  1.0000
  N   N35       1.0  0.16574  0.52526  0.42678  1.0000
  N   N36       1.0  0.33426  0.02526  0.07322  1.0000
  C   C13       1.0  0.66012  0.52933  0.89137  1.0000
  C   C14       1.0  0.83988  0.02933  0.60863  1.0000
  C   C15       1.0  0.33988  0.47067  0.10863  1.0000
  C   C16       1.0  0.16012  0.97067  0.39137  1.0000
  C   C17       1.0  0.06129  0.24251  0.06018  1.0000
  C   C18       1.0  0.43871  0.74251  0.43982  1.0000
  C   C19       1.0  0.93871  0.75749  0.93982  1.0000
  C   C20       1.0  0.56129  0.25749  0.56018  1.0000
  C   C21       1.0  0.82144  0.54133  0.63116  1.0000
  C   C22       1.0  0.67856  0.04133  0.86884  1.0000
  C   C23       1.0  0.17856  0.45867  0.36884  1.0000
  C   C24       1.0  0.32144  0.95867  0.13116  1.0000
