data_image0
_chemical_formula_structural       Cd8O8H16O32H8O32C24H8C8H8C16H8C24H8C16H8C16H8C24
_chemical_formula_sum              "Cd8 O72 H72 C128"
_cell_length_a       18.65
_cell_length_b       7.982
_cell_length_c       27.53
_cell_angle_alpha    90
_cell_angle_beta     109.469
_cell_angle_gamma    90

_space_group_name_H-M_alt    "P 1"
_space_group_IT_number       1

loop_
  _space_group_symop_operation_xyz
  'x, y, z'

loop_
  _atom_site_type_symbol
  _atom_site_label
  _atom_site_symmetry_multiplicity
  _atom_site_fract_x
  _atom_site_fract_y
  _atom_site_fract_z
  _atom_site_occupancy
  Cd  Cd1       1.0  0.06259  0.68693  0.02677  1.0000
  Cd  Cd2       1.0  0.93741  0.68693  0.47323  1.0000
  Cd  Cd3       1.0  0.56259  0.18693  0.02677  1.0000
  Cd  Cd4       1.0  0.43741  0.18693  0.47323  1.0000
  Cd  Cd5       1.0  0.93741  0.31307  0.97323  1.0000
  Cd  Cd6       1.0  0.06259  0.31307  0.52677  1.0000
  Cd  Cd7       1.0  0.43741  0.81307  0.97323  1.0000
  Cd  Cd8       1.0  0.56259  0.81307  0.52677  1.0000
  O   O1        1.0  0.98840  0.78850  0.94720  1.0000
  O   O2        1.0  0.01160  0.78850  0.55280  1.0000
  O   O3        1.0  0.48840  0.28850  0.94720  1.0000
  O   O4        1.0  0.51160  0.28850  0.55280  1.0000
  O   O5        1.0  0.01160  0.21150  0.05280  1.0000
  O   O6        1.0  0.98840  0.21150  0.44720  1.0000
  O   O7        1.0  0.51160  0.71150  0.05280  1.0000
  O   O8        1.0  0.48840  0.71150  0.44720  1.0000
  H   H1        1.0  0.97140  0.85730  0.92250  1.0000
  H   H2        1.0  0.02860  0.85730  0.57750  1.0000
  H   H3        1.0  0.47140  0.35730  0.92250  1.0000
  H   H4        1.0  0.52860  0.35730  0.57750  1.0000
  H   H5        1.0  0.02860  0.14270  0.07750  1.0000
  H   H6        1.0  0.97140  0.14270  0.42250  1.0000
  H   H7        1.0  0.52860  0.64270  0.07750  1.0000
  H   H8        1.0  0.47140  0.64270  0.42250  1.0000
  H   H9        1.0  0.94420  0.74780  0.94120  1.0000
  H   H10       1.0  0.05580  0.74780  0.55880  1.0000
  H   H11       1.0  0.44420  0.24780  0.94120  1.0000
  H   H12       1.0  0.55580  0.24780  0.55880  1.0000
  H   H13       1.0  0.05580  0.25220  0.05880  1.0000
  H   H14       1.0  0.94420  0.25220  0.44120  1.0000
  H   H15       1.0  0.55580  0.75220  0.05880  1.0000
  H   H16       1.0  0.44420  0.75220  0.44120  1.0000
  O   O9        1.0  0.43810  0.05270  0.02290  1.0000
  O   O10       1.0  0.56190  0.05270  0.47710  1.0000
  O   O11       1.0  0.93810  0.55270  0.02290  1.0000
  O   O12       1.0  0.06190  0.55270  0.47710  1.0000
  O   O13       1.0  0.56190  0.94730  0.97710  1.0000
  O   O14       1.0  0.43810  0.94730  0.52290  1.0000
  O   O15       1.0  0.06190  0.44730  0.97710  1.0000
  O   O16       1.0  0.93810  0.44730  0.52290  1.0000
  O   O17       1.0  0.47740  0.28200  0.06870  1.0000
  O   O18       1.0  0.52260  0.28200  0.43130  1.0000
  O   O19       1.0  0.97740  0.78200  0.06870  1.0000
  O   O20       1.0  0.02260  0.78200  0.43130  1.0000
  O   O21       1.0  0.52260  0.71800  0.93130  1.0000
  O   O22       1.0  0.47740  0.71800  0.56870  1.0000
  O   O23       1.0  0.02260  0.21800  0.93130  1.0000
  O   O24       1.0  0.97740  0.21800  0.56870  1.0000
  O   O25       1.0  0.47470  0.29100  0.30370  1.0000
  O   O26       1.0  0.52530  0.29100  0.19630  1.0000
  O   O27       1.0  0.97470  0.79100  0.30370  1.0000
  O   O28       1.0  0.02530  0.79100  0.19630  1.0000
  O   O29       1.0  0.52530  0.70900  0.69630  1.0000
  O   O30       1.0  0.47470  0.70900  0.80370  1.0000
  O   O31       1.0  0.02530  0.20900  0.69630  1.0000
  O   O32       1.0  0.97470  0.20900  0.80370  1.0000
  O   O33       1.0  0.41960  0.43440  0.34840  1.0000
  O   O34       1.0  0.58040  0.43440  0.15160  1.0000
  O   O35       1.0  0.91960  0.93440  0.34840  1.0000
  O   O36       1.0  0.08040  0.93440  0.15160  1.0000
  O   O37       1.0  0.58040  0.56560  0.65160  1.0000
  O   O38       1.0  0.41960  0.56560  0.84840  1.0000
  O   O39       1.0  0.08040  0.06560  0.65160  1.0000
  O   O40       1.0  0.91960  0.06560  0.84840  1.0000
  H   H17       1.0  0.44290  0.36490  0.36980  1.0000
  H   H18       1.0  0.55710  0.36490  0.13020  1.0000
  H   H19       1.0  0.94290  0.86490  0.36980  1.0000
  H   H20       1.0  0.05710  0.86490  0.13020  1.0000
  H   H21       1.0  0.55710  0.63510  0.63020  1.0000
  H   H22       1.0  0.44290  0.63510  0.86980  1.0000
  H   H23       1.0  0.05710  0.13510  0.63020  1.0000
  H   H24       1.0  0.94290  0.13510  0.86980  1.0000
  O   O41       1.0  0.09180  0.42700  0.12690  1.0000
  O   O42       1.0  0.90820  0.42700  0.37310  1.0000
  O   O43       1.0  0.59180  0.92700  0.12690  1.0000
  O   O44       1.0  0.40820  0.92700  0.37310  1.0000
  O   O45       1.0  0.90820  0.57300  0.87310  1.0000
  O   O46       1.0  0.09180  0.57300  0.62690  1.0000
  O   O47       1.0  0.40820  0.07300  0.87310  1.0000
  O   O48       1.0  0.59180  0.07300  0.62690  1.0000
  O   O49       1.0  0.15940  0.57830  0.08980  1.0000
  O   O50       1.0  0.84060  0.57830  0.41020  1.0000
  O   O51       1.0  0.65940  0.07830  0.08980  1.0000
  O   O52       1.0  0.34060  0.07830  0.41020  1.0000
  O   O53       1.0  0.84060  0.42170  0.91020  1.0000
  O   O54       1.0  0.15940  0.42170  0.58980  1.0000
  O   O55       1.0  0.34060  0.92170  0.91020  1.0000
  O   O56       1.0  0.65940  0.92170  0.58980  1.0000
  O   O57       1.0  0.10770  0.95780  0.04790  1.0000
  O   O58       1.0  0.89230  0.95780  0.45210  1.0000
  O   O59       1.0  0.60770  0.45780  0.04790  1.0000
  O   O60       1.0  0.39230  0.45780  0.45210  1.0000
  O   O61       1.0  0.89230  0.04220  0.95210  1.0000
  O   O62       1.0  0.10770  0.04220  0.54790  1.0000
  O   O63       1.0  0.39230  0.54220  0.95210  1.0000
  O   O64       1.0  0.60770  0.54220  0.54790  1.0000
  O   O65       1.0  0.17180  0.83460  0.00340  1.0000
  O   O66       1.0  0.82820  0.83460  0.49660  1.0000
  O   O67       1.0  0.67180  0.33460  0.00340  1.0000
  O   O68       1.0  0.32820  0.33460  0.49660  1.0000
  O   O69       1.0  0.82820  0.16540  0.99660  1.0000
  O   O70       1.0  0.17180  0.16540  0.50340  1.0000
  O   O71       1.0  0.32820  0.66540  0.99660  1.0000
  O   O72       1.0  0.67180  0.66540  0.50340  1.0000
  C   C1        1.0  0.15230  0.48940  0.12610  1.0000
  C   C2        1.0  0.84770  0.48940  0.37390  1.0000
  C   C3        1.0  0.65230  0.98940  0.12610  1.0000
  C   C4        1.0  0.34770  0.98940  0.37390  1.0000
  C   C5        1.0  0.84770  0.51060  0.87390  1.0000
  C   C6        1.0  0.15230  0.51060  0.62610  1.0000
  C   C7        1.0  0.34770  0.01060  0.87390  1.0000
  C   C8        1.0  0.65230  0.01060  0.62610  1.0000
  C   C9        1.0  0.22410  0.45630  0.17110  1.0000
  C   C10       1.0  0.77590  0.45630  0.32890  1.0000
  C   C11       1.0  0.72410  0.95630  0.17110  1.0000
  C   C12       1.0  0.27590  0.95630  0.32890  1.0000
  C   C13       1.0  0.77590  0.54370  0.82890  1.0000
  C   C14       1.0  0.22410  0.54370  0.67110  1.0000
  C   C15       1.0  0.27590  0.04370  0.82890  1.0000
  C   C16       1.0  0.72410  0.04370  0.67110  1.0000
  C   C17       1.0  0.22800  0.52690  0.21970  1.0000
  C   C18       1.0  0.77200  0.52690  0.28030  1.0000
  C   C19       1.0  0.72800  0.02690  0.21970  1.0000
  C   C20       1.0  0.27200  0.02690  0.28030  1.0000
  C   C21       1.0  0.77200  0.47310  0.78030  1.0000
  C   C22       1.0  0.22800  0.47310  0.71970  1.0000
  C   C23       1.0  0.27200  0.97310  0.78030  1.0000
  C   C24       1.0  0.72800  0.97310  0.71970  1.0000
  H   H25       1.0  0.18590  0.58340  0.22240  1.0000
  H   H26       1.0  0.81410  0.58340  0.27760  1.0000
  H   H27       1.0  0.68590  0.08340  0.22240  1.0000
  H   H28       1.0  0.31410  0.08340  0.27760  1.0000
  H   H29       1.0  0.81410  0.41660  0.77760  1.0000
  H   H30       1.0  0.18590  0.41660  0.72240  1.0000
  H   H31       1.0  0.31410  0.91660  0.77760  1.0000
  H   H32       1.0  0.68590  0.91660  0.72240  1.0000
  C   C25       1.0  0.29250  0.51340  0.26250  1.0000
  C   C26       1.0  0.70750  0.51340  0.23750  1.0000
  C   C27       1.0  0.79250  0.01340  0.26250  1.0000
  C   C28       1.0  0.20750  0.01340  0.23750  1.0000
  C   C29       1.0  0.70750  0.48660  0.73750  1.0000
  C   C30       1.0  0.29250  0.48660  0.76250  1.0000
  C   C31       1.0  0.20750  0.98660  0.73750  1.0000
  C   C32       1.0  0.79250  0.98660  0.76250  1.0000
  H   H33       1.0  0.29320  0.56110  0.29350  1.0000
  H   H34       1.0  0.70680  0.56110  0.20650  1.0000
  H   H35       1.0  0.79320  0.06110  0.29350  1.0000
  H   H36       1.0  0.20680  0.06110  0.20650  1.0000
  H   H37       1.0  0.70680  0.43890  0.70650  1.0000
  H   H38       1.0  0.29320  0.43890  0.79350  1.0000
  H   H39       1.0  0.20680  0.93890  0.70650  1.0000
  H   H40       1.0  0.79320  0.93890  0.79350  1.0000
  C   C33       1.0  0.35640  0.42920  0.25970  1.0000
  C   C34       1.0  0.64360  0.42920  0.24030  1.0000
  C   C35       1.0  0.85640  0.92920  0.25970  1.0000
  C   C36       1.0  0.14360  0.92920  0.24030  1.0000
  C   C37       1.0  0.64360  0.57080  0.74030  1.0000
  C   C38       1.0  0.35640  0.57080  0.75970  1.0000
  C   C39       1.0  0.14360  0.07080  0.74030  1.0000
  C   C40       1.0  0.85640  0.07080  0.75970  1.0000
  C   C41       1.0  0.35370  0.36270  0.21150  1.0000
  C   C42       1.0  0.64630  0.36270  0.28850  1.0000
  C   C43       1.0  0.85370  0.86270  0.21150  1.0000
  C   C44       1.0  0.14630  0.86270  0.28850  1.0000
  C   C45       1.0  0.64630  0.63730  0.78850  1.0000
  C   C46       1.0  0.35370  0.63730  0.71150  1.0000
  C   C47       1.0  0.14630  0.13730  0.78850  1.0000
  C   C48       1.0  0.85370  0.13730  0.71150  1.0000
  H   H41       1.0  0.39690  0.31100  0.20880  1.0000
  H   H42       1.0  0.60310  0.31100  0.29120  1.0000
  H   H43       1.0  0.89690  0.81100  0.20880  1.0000
  H   H44       1.0  0.10310  0.81100  0.29120  1.0000
  H   H45       1.0  0.60310  0.68900  0.79120  1.0000
  H   H46       1.0  0.39690  0.68900  0.70880  1.0000
  H   H47       1.0  0.10310  0.18900  0.79120  1.0000
  H   H48       1.0  0.89690  0.18900  0.70880  1.0000
  C   C49       1.0  0.28880  0.37160  0.16770  1.0000
  C   C50       1.0  0.71120  0.37160  0.33230  1.0000
  C   C51       1.0  0.78880  0.87160  0.16770  1.0000
  C   C52       1.0  0.21120  0.87160  0.33230  1.0000
  C   C53       1.0  0.71120  0.62840  0.83230  1.0000
  C   C54       1.0  0.28880  0.62840  0.66770  1.0000
  C   C55       1.0  0.21120  0.12840  0.83230  1.0000
  C   C56       1.0  0.78880  0.12840  0.66770  1.0000
  C   C57       1.0  0.28630  0.27650  0.11990  1.0000
  C   C58       1.0  0.71370  0.27650  0.38010  1.0000
  C   C59       1.0  0.78630  0.77650  0.11990  1.0000
  C   C60       1.0  0.21370  0.77650  0.38010  1.0000
  C   C61       1.0  0.71370  0.72350  0.88010  1.0000
  C   C62       1.0  0.28630  0.72350  0.61990  1.0000
  C   C63       1.0  0.21370  0.22350  0.88010  1.0000
  C   C64       1.0  0.78630  0.22350  0.61990  1.0000
  C   C65       1.0  0.35260  0.27440  0.10500  1.0000
  C   C66       1.0  0.64740  0.27440  0.39500  1.0000
  C   C67       1.0  0.85260  0.77440  0.10500  1.0000
  C   C68       1.0  0.14740  0.77440  0.39500  1.0000
  C   C69       1.0  0.64740  0.72560  0.89500  1.0000
  C   C70       1.0  0.35260  0.72560  0.60500  1.0000
  C   C71       1.0  0.14740  0.22560  0.89500  1.0000
  C   C72       1.0  0.85260  0.22560  0.60500  1.0000
  H   H49       1.0  0.39430  0.34030  0.12260  1.0000
  H   H50       1.0  0.60570  0.34030  0.37740  1.0000
  H   H51       1.0  0.89430  0.84030  0.12260  1.0000
  H   H52       1.0  0.10570  0.84030  0.37740  1.0000
  H   H53       1.0  0.60570  0.65970  0.87740  1.0000
  H   H54       1.0  0.39430  0.65970  0.62260  1.0000
  H   H55       1.0  0.10570  0.15970  0.87740  1.0000
  H   H56       1.0  0.89430  0.15970  0.62260  1.0000
  C   C73       1.0  0.35500  0.17370  0.06410  1.0000
  C   C74       1.0  0.64500  0.17370  0.43590  1.0000
  C   C75       1.0  0.85500  0.67370  0.06410  1.0000
  C   C76       1.0  0.14500  0.67370  0.43590  1.0000
  C   C77       1.0  0.64500  0.82630  0.93590  1.0000
  C   C78       1.0  0.35500  0.82630  0.56410  1.0000
  C   C79       1.0  0.14500  0.32630  0.93590  1.0000
  C   C80       1.0  0.85500  0.32630  0.56410  1.0000
  C   C81       1.0  0.29300  0.07140  0.03900  1.0000
  C   C82       1.0  0.70700  0.07140  0.46100  1.0000
  C   C83       1.0  0.79300  0.57140  0.03900  1.0000
  C   C84       1.0  0.20700  0.57140  0.46100  1.0000
  C   C85       1.0  0.70700  0.92860  0.96100  1.0000
  C   C86       1.0  0.29300  0.92860  0.53900  1.0000
  C   C87       1.0  0.20700  0.42860  0.96100  1.0000
  C   C88       1.0  0.79300  0.42860  0.53900  1.0000
  H   H57       1.0  0.29430  0.00190  0.01220  1.0000
  H   H58       1.0  0.70570  0.00190  0.48780  1.0000
  H   H59       1.0  0.79430  0.50190  0.01220  1.0000
  H   H60       1.0  0.20570  0.50190  0.48780  1.0000
  H   H61       1.0  0.70570  0.99810  0.98780  1.0000
  H   H62       1.0  0.29430  0.99810  0.51220  1.0000
  H   H63       1.0  0.20570  0.49810  0.98780  1.0000
  H   H64       1.0  0.79430  0.49810  0.51220  1.0000
  C   C89       1.0  0.22870  0.07450  0.05470  1.0000
  C   C90       1.0  0.77130  0.07450  0.44530  1.0000
  C   C91       1.0  0.72870  0.57450  0.05470  1.0000
  C   C92       1.0  0.27130  0.57450  0.44530  1.0000
  C   C93       1.0  0.77130  0.92550  0.94530  1.0000
  C   C94       1.0  0.22870  0.92550  0.55470  1.0000
  C   C95       1.0  0.27130  0.42550  0.94530  1.0000
  C   C96       1.0  0.72870  0.42550  0.55470  1.0000
  C   C97       1.0  0.22690  0.17880  0.09340  1.0000
  C   C98       1.0  0.77310  0.17880  0.40660  1.0000
  C   C99       1.0  0.72690  0.67880  0.09340  1.0000
  C   C100      1.0  0.27310  0.67880  0.40660  1.0000
  C   C101      1.0  0.77310  0.82120  0.90660  1.0000
  C   C102      1.0  0.22690  0.82120  0.59340  1.0000
  C   C103      1.0  0.27310  0.32120  0.90660  1.0000
  C   C104      1.0  0.72690  0.32120  0.59340  1.0000
  H   H65       1.0  0.18280  0.18300  0.10200  1.0000
  H   H66       1.0  0.81720  0.18300  0.39800  1.0000
  H   H67       1.0  0.68280  0.68300  0.10200  1.0000
  H   H68       1.0  0.31720  0.68300  0.39800  1.0000
  H   H69       1.0  0.81720  0.81700  0.89800  1.0000
  H   H70       1.0  0.18280  0.81700  0.60200  1.0000
  H   H71       1.0  0.31720  0.31700  0.89800  1.0000
  H   H72       1.0  0.68280  0.31700  0.60200  1.0000
  C   C105      1.0  0.16470  0.94730  0.03170  1.0000
  C   C106      1.0  0.83530  0.94730  0.46830  1.0000
  C   C107      1.0  0.66470  0.44730  0.03170  1.0000
  C   C108      1.0  0.33530  0.44730  0.46830  1.0000
  C   C109      1.0  0.83530  0.05270  0.96830  1.0000
  C   C110      1.0  0.16470  0.05270  0.53170  1.0000
  C   C111      1.0  0.33530  0.55270  0.96830  1.0000
  C   C112      1.0  0.66470  0.55270  0.53170  1.0000
  C   C113      1.0  0.42750  0.16850  0.05090  1.0000
  C   C114      1.0  0.57250  0.16850  0.44910  1.0000
  C   C115      1.0  0.92750  0.66850  0.05090  1.0000
  C   C116      1.0  0.07250  0.66850  0.44910  1.0000
  C   C117      1.0  0.57250  0.83150  0.94910  1.0000
  C   C118      1.0  0.42750  0.83150  0.55090  1.0000
  C   C119      1.0  0.07250  0.33150  0.94910  1.0000
  C   C120      1.0  0.92750  0.33150  0.55090  1.0000
  C   C121      1.0  0.42370  0.39600  0.30480  1.0000
  C   C122      1.0  0.57630  0.39600  0.19520  1.0000
  C   C123      1.0  0.92370  0.89600  0.30480  1.0000
  C   C124      1.0  0.07630  0.89600  0.19520  1.0000
  C   C125      1.0  0.57630  0.60400  0.69520  1.0000
  C   C126      1.0  0.42370  0.60400  0.80480  1.0000
  C   C127      1.0  0.07630  0.10400  0.69520  1.0000
  C   C128      1.0  0.92370  0.10400  0.80480  1.0000
