data_image0
_chemical_formula_structural       Zn6P8O14H2O14H2O2H4C4H6C4H6
_chemical_formula_sum              "Zn6 P8 O30 H20 C8"
_cell_length_a       8.0413
_cell_length_b       11.7508
_cell_length_c       11.8844
_cell_angle_alpha    100.993
_cell_angle_beta     103.942
_cell_angle_gamma    102.65

_space_group_name_H-M_alt    "P 1"
_space_group_IT_number       1

loop_
  _space_group_symop_operation_xyz
  'x, y, z'

loop_
  _atom_site_type_symbol
  _atom_site_label
  _atom_site_symmetry_multiplicity
  _atom_site_fract_x
  _atom_site_fract_y
  _atom_site_fract_z
  _atom_site_occupancy
  Zn  Zn1       1.0  0.46438  0.83606  0.57356  1.0000
  Zn  Zn2       1.0  0.53562  0.16394  0.42644  1.0000
  Zn  Zn3       1.0  0.10166  0.53242  0.37213  1.0000
  Zn  Zn4       1.0  0.89834  0.46758  0.62787  1.0000
  Zn  Zn5       1.0  0.90687  0.78178  0.38504  1.0000
  Zn  Zn6       1.0  0.09313  0.21822  0.61496  1.0000
  P   P1        1.0  0.27140  0.89730  0.33779  1.0000
  P   P2        1.0  0.72860  0.10270  0.66221  1.0000
  P   P3        1.0  0.02900  0.65267  0.17147  1.0000
  P   P4        1.0  0.97100  0.34733  0.82853  1.0000
  P   P5        1.0  0.12370  0.70966  0.61533  1.0000
  P   P6        1.0  0.87630  0.29034  0.38467  1.0000
  P   P7        1.0  0.72370  0.66899  0.55278  1.0000
  P   P8        1.0  0.27630  0.33101  0.44722  1.0000
  O   O1        1.0  0.40350  0.84230  0.40770  1.0000
  O   O2        1.0  0.59650  0.15770  0.59230  1.0000
  O   O3        1.0  0.12200  0.90960  0.39310  1.0000
  O   O4        1.0  0.87800  0.09040  0.60690  1.0000
  O   O5        1.0  0.36540  0.01670  0.32200  1.0000
  O   O6        1.0  0.63460  0.98330  0.67800  1.0000
  O   O7        1.0  0.14260  0.58450  0.23620  1.0000
  O   O8        1.0  0.85740  0.41550  0.76380  1.0000
  O   O9        1.0  0.88110  0.67390  0.22510  1.0000
  O   O10       1.0  0.11890  0.32610  0.77490  1.0000
  O   O11       1.0  0.94990  0.58870  0.03810  1.0000
  O   O12       1.0  0.05010  0.41130  0.96190  1.0000
  O   O13       1.0  0.06100  0.86460  0.10950  1.0000
  O   O14       1.0  0.93900  0.13540  0.89050  1.0000
  H   H1        1.0  0.01390  0.82120  0.03790  1.0000
  H   H2        1.0  0.98610  0.17880  0.96210  1.0000
  O   O15       1.0  0.07960  0.67340  0.47830  1.0000
  O   O16       1.0  0.92040  0.32660  0.52170  1.0000
  O   O17       1.0  0.29920  0.80750  0.67030  1.0000
  O   O18       1.0  0.70080  0.19250  0.32970  1.0000
  O   O19       1.0  0.11790  0.60150  0.66870  1.0000
  O   O20       1.0  0.88210  0.39850  0.33130  1.0000
  O   O21       1.0  0.70620  0.67540  0.42380  1.0000
  O   O22       1.0  0.29380  0.32460  0.57620  1.0000
  O   O23       1.0  0.71780  0.54460  0.57120  1.0000
  O   O24       1.0  0.28220  0.45540  0.42880  1.0000
  O   O25       1.0  0.58390  0.71230  0.60100  1.0000
  O   O26       1.0  0.41610  0.28770  0.39900  1.0000
  O   O27       1.0  0.97030  0.87620  0.58820  1.0000
  O   O28       1.0  0.02970  0.12380  0.41180  1.0000
  H   H3        1.0  0.93000  0.91700  0.60700  1.0000
  H   H4        1.0  0.07000  0.08300  0.39300  1.0000
  O   O29       1.0  0.73840  0.89200  0.34090  1.0000
  O   O30       1.0  0.26160  0.10800  0.65910  1.0000
  H   H5        1.0  0.69420  0.87440  0.26510  1.0000
  H   H6        1.0  0.30580  0.12560  0.73490  1.0000
  H   H7        1.0  0.65480  0.87990  0.37320  1.0000
  H   H8        1.0  0.34520  0.12010  0.62680  1.0000
  C   C1        1.0  0.16990  0.80200  0.18250  1.0000
  C   C2        1.0  0.83010  0.19800  0.81750  1.0000
  C   C3        1.0  0.31260  0.78670  0.13340  1.0000
  C   C4        1.0  0.68740  0.21330  0.86660  1.0000
  H   H9        1.0  0.26430  0.73740  0.05240  1.0000
  H   H10       1.0  0.73570  0.26260  0.94760  1.0000
  H   H11       1.0  0.38390  0.86410  0.13420  1.0000
  H   H12       1.0  0.61610  0.13590  0.86580  1.0000
  H   H13       1.0  0.38520  0.74820  0.18120  1.0000
  H   H14       1.0  0.61480  0.25180  0.81880  1.0000
  C   C5        1.0  0.94510  0.77520  0.64200  1.0000
  C   C6        1.0  0.05490  0.22480  0.35800  1.0000
  C   C7        1.0  0.96450  0.81420  0.77470  1.0000
  C   C8        1.0  0.03550  0.18580  0.22530  1.0000
  H   H15       1.0  0.08100  0.86840  0.81580  1.0000
  H   H16       1.0  0.91900  0.13160  0.18420  1.0000
  H   H17       1.0  0.87550  0.85430  0.78620  1.0000
  H   H18       1.0  0.12450  0.14570  0.21380  1.0000
  H   H19       1.0  0.94940  0.74440  0.80610  1.0000
  H   H20       1.0  0.05060  0.25560  0.19390  1.0000
