data_image0
_chemical_formula_structural       N8Mn8N48C32N8C16N8
_chemical_formula_sum              "N72 Mn8 C48"
_cell_length_a       15.62
_cell_length_b       15.95
_cell_length_c       16.92
_cell_angle_alpha    90
_cell_angle_beta     90
_cell_angle_gamma    90

_space_group_name_H-M_alt    "P 1"
_space_group_IT_number       1

loop_
  _space_group_symop_operation_xyz
  'x, y, z'

loop_
  _atom_site_type_symbol
  _atom_site_label
  _atom_site_symmetry_multiplicity
  _atom_site_fract_x
  _atom_site_fract_y
  _atom_site_fract_z
  _atom_site_occupancy
  N   N1        1.0  0.45200  0.82700  0.29330  1.0000
  N   N2        1.0  0.04800  0.17300  0.29330  1.0000
  N   N3        1.0  0.95200  0.67300  0.20670  1.0000
  N   N4        1.0  0.54800  0.32700  0.20670  1.0000
  N   N5        1.0  0.54800  0.17300  0.70670  1.0000
  N   N6        1.0  0.95200  0.82700  0.70670  1.0000
  N   N7        1.0  0.04800  0.32700  0.79330  1.0000
  N   N8        1.0  0.45200  0.67300  0.79330  1.0000
  Mn  Mn1       1.0  0.48739  0.20489  0.19770  1.0000
  Mn  Mn2       1.0  0.01261  0.79511  0.19770  1.0000
  Mn  Mn3       1.0  0.98739  0.29511  0.30230  1.0000
  Mn  Mn4       1.0  0.51261  0.70489  0.30230  1.0000
  Mn  Mn5       1.0  0.51261  0.79511  0.80230  1.0000
  Mn  Mn6       1.0  0.98739  0.20489  0.80230  1.0000
  Mn  Mn7       1.0  0.01261  0.70489  0.69770  1.0000
  Mn  Mn8       1.0  0.48739  0.29511  0.69770  1.0000
  N   N9        1.0  0.43420  0.07670  0.19440  1.0000
  N   N10       1.0  0.06580  0.92330  0.19440  1.0000
  N   N11       1.0  0.93420  0.42330  0.30560  1.0000
  N   N12       1.0  0.56580  0.57670  0.30560  1.0000
  N   N13       1.0  0.56580  0.92330  0.80560  1.0000
  N   N14       1.0  0.93420  0.07670  0.80560  1.0000
  N   N15       1.0  0.06580  0.57670  0.69440  1.0000
  N   N16       1.0  0.43420  0.42330  0.69440  1.0000
  N   N17       1.0  0.36000  0.26660  0.19950  1.0000
  N   N18       1.0  0.14000  0.73340  0.19950  1.0000
  N   N19       1.0  0.86000  0.23340  0.30050  1.0000
  N   N20       1.0  0.64000  0.76660  0.30050  1.0000
  N   N21       1.0  0.64000  0.73340  0.80050  1.0000
  N   N22       1.0  0.86000  0.26660  0.80050  1.0000
  N   N23       1.0  0.14000  0.76660  0.69950  1.0000
  N   N24       1.0  0.36000  0.23340  0.69950  1.0000
  N   N25       1.0  0.49570  0.21370  0.07115  1.0000
  N   N26       1.0  0.00430  0.78630  0.07115  1.0000
  N   N27       1.0  0.99570  0.28630  0.42885  1.0000
  N   N28       1.0  0.50430  0.71370  0.42885  1.0000
  N   N29       1.0  0.50430  0.78630  0.92885  1.0000
  N   N30       1.0  0.99570  0.21370  0.92885  1.0000
  N   N31       1.0  0.00430  0.71370  0.57115  1.0000
  N   N32       1.0  0.49570  0.28630  0.57115  1.0000
  N   N33       1.0  0.50210  0.21860  0.92725  1.0000
  N   N34       1.0  0.99790  0.78140  0.92725  1.0000
  N   N35       1.0  0.00210  0.28140  0.57275  1.0000
  N   N36       1.0  0.49790  0.71860  0.57275  1.0000
  N   N37       1.0  0.49790  0.78140  0.07275  1.0000
  N   N38       1.0  0.00210  0.21860  0.07275  1.0000
  N   N39       1.0  0.99790  0.71860  0.42725  1.0000
  N   N40       1.0  0.50210  0.28140  0.42725  1.0000
  N   N41       1.0  0.11770  0.34590  0.29540  1.0000
  N   N42       1.0  0.38230  0.65410  0.29540  1.0000
  N   N43       1.0  0.61770  0.15410  0.20460  1.0000
  N   N44       1.0  0.88230  0.84590  0.20460  1.0000
  N   N45       1.0  0.88230  0.65410  0.70460  1.0000
  N   N46       1.0  0.61770  0.34590  0.70460  1.0000
  N   N47       1.0  0.38230  0.84590  0.79540  1.0000
  N   N48       1.0  0.11770  0.15410  0.79540  1.0000
  N   N49       1.0  0.24090  0.35120  0.21400  1.0000
  N   N50       1.0  0.25910  0.64880  0.21400  1.0000
  N   N51       1.0  0.74090  0.14880  0.28600  1.0000
  N   N52       1.0  0.75910  0.85120  0.28600  1.0000
  N   N53       1.0  0.75910  0.64880  0.78600  1.0000
  N   N54       1.0  0.74090  0.35120  0.78600  1.0000
  N   N55       1.0  0.25910  0.85120  0.71400  1.0000
  N   N56       1.0  0.24090  0.14880  0.71400  1.0000
  C   C1        1.0  0.30610  0.30200  0.20970  1.0000
  C   C2        1.0  0.19390  0.69800  0.20970  1.0000
  C   C3        1.0  0.80610  0.19800  0.29030  1.0000
  C   C4        1.0  0.69390  0.80200  0.29030  1.0000
  C   C5        1.0  0.69390  0.69800  0.79030  1.0000
  C   C6        1.0  0.80610  0.30200  0.79030  1.0000
  C   C7        1.0  0.19390  0.80200  0.70970  1.0000
  C   C8        1.0  0.30610  0.19800  0.70970  1.0000
  C   C9        1.0  0.50560  0.24070  0.00744  1.0000
  C   C10       1.0  0.99440  0.75930  0.00744  1.0000
  C   C11       1.0  0.00560  0.25930  0.49256  1.0000
  C   C12       1.0  0.49440  0.74070  0.49256  1.0000
  C   C13       1.0  0.49440  0.75930  0.99256  1.0000
  C   C14       1.0  0.00560  0.24070  0.99256  1.0000
  C   C15       1.0  0.99440  0.74070  0.50744  1.0000
  C   C16       1.0  0.50560  0.25930  0.50744  1.0000
  C   C17       1.0  0.17570  0.35060  0.26060  1.0000
  C   C18       1.0  0.32430  0.64940  0.26060  1.0000
  C   C19       1.0  0.67570  0.14940  0.23940  1.0000
  C   C20       1.0  0.82430  0.85060  0.23940  1.0000
  C   C21       1.0  0.82430  0.64940  0.73940  1.0000
  C   C22       1.0  0.67570  0.35060  0.73940  1.0000
  C   C23       1.0  0.32430  0.85060  0.76060  1.0000
  C   C24       1.0  0.17570  0.14940  0.76060  1.0000
  C   C25       1.0  0.41770  0.02240  0.22680  1.0000
  C   C26       1.0  0.08230  0.97760  0.22680  1.0000
  C   C27       1.0  0.91770  0.47760  0.27320  1.0000
  C   C28       1.0  0.58230  0.52240  0.27320  1.0000
  C   C29       1.0  0.58230  0.97760  0.77320  1.0000
  C   C30       1.0  0.91770  0.02240  0.77320  1.0000
  C   C31       1.0  0.08230  0.52240  0.72680  1.0000
  C   C32       1.0  0.41770  0.47760  0.72680  1.0000
  N   N57       1.0  0.37790  0.95440  0.27600  1.0000
  N   N58       1.0  0.12210  0.04560  0.27600  1.0000
  N   N59       1.0  0.87790  0.54560  0.22400  1.0000
  N   N60       1.0  0.62210  0.45440  0.22400  1.0000
  N   N61       1.0  0.62210  0.04560  0.72400  1.0000
  N   N62       1.0  0.87790  0.95440  0.72400  1.0000
  N   N63       1.0  0.12210  0.45440  0.77600  1.0000
  N   N64       1.0  0.37790  0.54560  0.77600  1.0000
  C   C33       1.0  0.41770  0.88800  0.26420  1.0000
  C   C34       1.0  0.08230  0.11200  0.26420  1.0000
  C   C35       1.0  0.91770  0.61200  0.23580  1.0000
  C   C36       1.0  0.58230  0.38800  0.23580  1.0000
  C   C37       1.0  0.58230  0.11200  0.73580  1.0000
  C   C38       1.0  0.91770  0.88800  0.73580  1.0000
  C   C39       1.0  0.08230  0.38800  0.76420  1.0000
  C   C40       1.0  0.41770  0.61200  0.76420  1.0000
  C   C41       1.0  0.49890  0.28640  0.88450  1.0000
  C   C42       1.0  0.00110  0.71360  0.88450  1.0000
  C   C43       1.0  0.99890  0.21360  0.61550  1.0000
  C   C44       1.0  0.50110  0.78640  0.61550  1.0000
  C   C45       1.0  0.50110  0.71360  0.11550  1.0000
  C   C46       1.0  0.99890  0.28640  0.11550  1.0000
  C   C47       1.0  0.00110  0.78640  0.38450  1.0000
  C   C48       1.0  0.49890  0.21360  0.38450  1.0000
  N   N65       1.0  0.47750  0.30650  0.82570  1.0000
  N   N66       1.0  0.02250  0.69350  0.82570  1.0000
  N   N67       1.0  0.97750  0.19350  0.67430  1.0000
  N   N68       1.0  0.52250  0.80650  0.67430  1.0000
  N   N69       1.0  0.52250  0.69350  0.17430  1.0000
  N   N70       1.0  0.97750  0.30650  0.17430  1.0000
  N   N71       1.0  0.02250  0.80650  0.32570  1.0000
  N   N72       1.0  0.47750  0.19350  0.32570  1.0000
