data_image0
_chemical_formula_structural       Mn4C8N8C8N28C8
_chemical_formula_sum              "Mn4 C24 N36"
_cell_length_a       18.836
_cell_length_b       10.642
_cell_length_c       10.444
_cell_angle_alpha    90
_cell_angle_beta     112.55
_cell_angle_gamma    90

_space_group_name_H-M_alt    "P 1"
_space_group_IT_number       1

loop_
  _space_group_symop_operation_xyz
  'x, y, z'

loop_
  _atom_site_type_symbol
  _atom_site_label
  _atom_site_symmetry_multiplicity
  _atom_site_fract_x
  _atom_site_fract_y
  _atom_site_fract_z
  _atom_site_occupancy
  Mn  Mn1       1.0  0.25000  0.25000  0.00000  1.0000
  Mn  Mn2       1.0  0.75000  0.25000  0.50000  1.0000
  Mn  Mn3       1.0  0.75000  0.75000  0.00000  1.0000
  Mn  Mn4       1.0  0.25000  0.75000  0.50000  1.0000
  C   C1        1.0  0.22030  0.29940  0.67500  1.0000
  C   C2        1.0  0.77970  0.29940  0.82500  1.0000
  C   C3        1.0  0.72030  0.79940  0.67500  1.0000
  C   C4        1.0  0.27970  0.79940  0.82500  1.0000
  C   C5        1.0  0.77970  0.70060  0.32500  1.0000
  C   C6        1.0  0.22030  0.70060  0.17500  1.0000
  C   C7        1.0  0.27970  0.20060  0.32500  1.0000
  C   C8        1.0  0.72030  0.20060  0.17500  1.0000
  N   N1        1.0  0.12040  0.22890  0.90890  1.0000
  N   N2        1.0  0.87960  0.22890  0.59110  1.0000
  N   N3        1.0  0.62040  0.72890  0.90890  1.0000
  N   N4        1.0  0.37960  0.72890  0.59110  1.0000
  N   N5        1.0  0.87960  0.77110  0.09110  1.0000
  N   N6        1.0  0.12040  0.77110  0.40890  1.0000
  N   N7        1.0  0.37960  0.27110  0.09110  1.0000
  N   N8        1.0  0.62040  0.27110  0.40890  1.0000
  C   C9        1.0  0.06237  0.26250  0.83130  1.0000
  C   C10       1.0  0.93763  0.26250  0.66870  1.0000
  C   C11       1.0  0.56237  0.76250  0.83130  1.0000
  C   C12       1.0  0.43763  0.76250  0.66870  1.0000
  C   C13       1.0  0.93763  0.73750  0.16870  1.0000
  C   C14       1.0  0.06237  0.73750  0.33130  1.0000
  C   C15       1.0  0.43763  0.23750  0.16870  1.0000
  C   C16       1.0  0.56237  0.23750  0.33130  1.0000
  N   N9        1.0  0.19238  0.34410  0.54930  1.0000
  N   N10       1.0  0.80762  0.34410  0.95070  1.0000
  N   N11       1.0  0.69238  0.84410  0.54930  1.0000
  N   N12       1.0  0.30762  0.84410  0.95070  1.0000
  N   N13       1.0  0.80762  0.65590  0.45070  1.0000
  N   N14       1.0  0.19238  0.65590  0.04930  1.0000
  N   N15       1.0  0.30762  0.15590  0.45070  1.0000
  N   N16       1.0  0.69238  0.15590  0.04930  1.0000
  N   N17       1.0  0.24205  0.25240  0.78140  1.0000
  N   N18       1.0  0.75795  0.25240  0.71860  1.0000
  N   N19       1.0  0.74205  0.75240  0.78140  1.0000
  N   N20       1.0  0.25795  0.75240  0.71860  1.0000
  N   N21       1.0  0.75795  0.74760  0.21860  1.0000
  N   N22       1.0  0.24205  0.74760  0.28140  1.0000
  N   N23       1.0  0.25795  0.24760  0.21860  1.0000
  N   N24       1.0  0.74205  0.24760  0.28140  1.0000
  N   N25       1.0  0.23296  0.54530  0.49090  1.0000
  N   N26       1.0  0.76704  0.54530  0.00910  1.0000
  N   N27       1.0  0.73296  0.04530  0.49090  1.0000
  N   N28       1.0  0.26704  0.04530  0.00910  1.0000
  N   N29       1.0  0.76704  0.45470  0.50910  1.0000
  N   N30       1.0  0.23296  0.45470  0.99090  1.0000
  N   N31       1.0  0.26704  0.95470  0.50910  1.0000
  N   N32       1.0  0.73296  0.95470  0.99090  1.0000
  N   N33       1.0  0.00000  0.31710  0.75000  1.0000
  N   N34       1.0  0.50000  0.81710  0.75000  1.0000
  N   N35       1.0  0.00000  0.68290  0.25000  1.0000
  N   N36       1.0  0.50000  0.18290  0.25000  1.0000
  C   C17       1.0  0.21577  0.45170  0.52330  1.0000
  C   C18       1.0  0.78423  0.45170  0.97670  1.0000
  C   C19       1.0  0.71577  0.95170  0.52330  1.0000
  C   C20       1.0  0.28423  0.95170  0.97670  1.0000
  C   C21       1.0  0.78423  0.54830  0.47670  1.0000
  C   C22       1.0  0.21577  0.54830  0.02330  1.0000
  C   C23       1.0  0.28423  0.04830  0.47670  1.0000
  C   C24       1.0  0.71577  0.04830  0.02330  1.0000
