data_image0
_chemical_formula_structural       Nd4H8O36C24H8C8H8C24H8C8H8
_chemical_formula_sum              "Nd4 H40 O36 C64"
_cell_length_a       9.5107
_cell_length_b       14.6128
_cell_length_c       13.5317
_cell_angle_alpha    90
_cell_angle_beta     90
_cell_angle_gamma    90

_space_group_name_H-M_alt    "P 1"
_space_group_IT_number       1

loop_
  _space_group_symop_operation_xyz
  'x, y, z'

loop_
  _atom_site_type_symbol
  _atom_site_label
  _atom_site_symmetry_multiplicity
  _atom_site_fract_x
  _atom_site_fract_y
  _atom_site_fract_z
  _atom_site_occupancy
  Nd  Nd1       1.0  0.25000  0.50000  0.10437  1.0000
  Nd  Nd2       1.0  0.25000  0.00000  0.39563  1.0000
  Nd  Nd3       1.0  0.75000  0.50000  0.89562  1.0000
  Nd  Nd4       1.0  0.75000  0.00000  0.60437  1.0000
  H   H1        1.0  0.32300  0.49800  0.87700  1.0000
  H   H2        1.0  0.17700  0.50200  0.87700  1.0000
  H   H3        1.0  0.32300  0.00200  0.62300  1.0000
  H   H4        1.0  0.17700  0.99800  0.62300  1.0000
  H   H5        1.0  0.67700  0.50200  0.12300  1.0000
  H   H6        1.0  0.82300  0.49800  0.12300  1.0000
  H   H7        1.0  0.67700  0.99800  0.37700  1.0000
  H   H8        1.0  0.82300  0.00200  0.37700  1.0000
  O   O1        1.0  0.03630  0.49366  0.23100  1.0000
  O   O2        1.0  0.46370  0.50634  0.23100  1.0000
  O   O3        1.0  0.03630  0.00634  0.26900  1.0000
  O   O4        1.0  0.46370  0.99366  0.26900  1.0000
  O   O5        1.0  0.96370  0.50634  0.76900  1.0000
  O   O6        1.0  0.53630  0.49366  0.76900  1.0000
  O   O7        1.0  0.96370  0.99366  0.73100  1.0000
  O   O8        1.0  0.53630  0.00634  0.73100  1.0000
  O   O9        1.0  0.20470  0.39144  0.24975  1.0000
  O   O10       1.0  0.29530  0.60856  0.24975  1.0000
  O   O11       1.0  0.20470  0.10856  0.25025  1.0000
  O   O12       1.0  0.29530  0.89144  0.25025  1.0000
  O   O13       1.0  0.79530  0.60856  0.75025  1.0000
  O   O14       1.0  0.70470  0.39144  0.75025  1.0000
  O   O15       1.0  0.79530  0.89144  0.74975  1.0000
  O   O16       1.0  0.70470  0.10856  0.74975  1.0000
  O   O17       1.0  0.90770  0.11786  0.55546  1.0000
  O   O18       1.0  0.59230  0.88214  0.55546  1.0000
  O   O19       1.0  0.90770  0.38214  0.94454  1.0000
  O   O20       1.0  0.59230  0.61786  0.94454  1.0000
  O   O21       1.0  0.09230  0.88214  0.44454  1.0000
  O   O22       1.0  0.40770  0.11786  0.44454  1.0000
  O   O23       1.0  0.09230  0.61786  0.05546  1.0000
  O   O24       1.0  0.40770  0.38214  0.05546  1.0000
  O   O25       1.0  0.25000  0.50000  0.90620  1.0000
  O   O26       1.0  0.25000  0.00000  0.59380  1.0000
  O   O27       1.0  0.75000  0.50000  0.09380  1.0000
  O   O28       1.0  0.75000  0.00000  0.40620  1.0000
  O   O29       1.0  0.08280  0.11130  0.44985  1.0000
  O   O30       1.0  0.41720  0.88870  0.44985  1.0000
  O   O31       1.0  0.08280  0.38870  0.05015  1.0000
  O   O32       1.0  0.41720  0.61130  0.05015  1.0000
  O   O33       1.0  0.91720  0.88870  0.55015  1.0000
  O   O34       1.0  0.58280  0.11130  0.55015  1.0000
  O   O35       1.0  0.91720  0.61130  0.94985  1.0000
  O   O36       1.0  0.58280  0.38870  0.94985  1.0000
  C   C1        1.0  0.08850  0.42393  0.27421  1.0000
  C   C2        1.0  0.41150  0.57607  0.27421  1.0000
  C   C3        1.0  0.08850  0.07607  0.22579  1.0000
  C   C4        1.0  0.41150  0.92393  0.22579  1.0000
  C   C5        1.0  0.91150  0.57607  0.72579  1.0000
  C   C6        1.0  0.58850  0.42393  0.72579  1.0000
  C   C7        1.0  0.91150  0.92393  0.77421  1.0000
  C   C8        1.0  0.58850  0.07607  0.77421  1.0000
  C   C9        1.0  0.00720  0.37995  0.35580  1.0000
  C   C10       1.0  0.49280  0.62005  0.35580  1.0000
  C   C11       1.0  0.00720  0.12005  0.14420  1.0000
  C   C12       1.0  0.49280  0.87995  0.14420  1.0000
  C   C13       1.0  0.99280  0.62005  0.64420  1.0000
  C   C14       1.0  0.50720  0.37995  0.64420  1.0000
  C   C15       1.0  0.99280  0.87995  0.85580  1.0000
  C   C16       1.0  0.50720  0.12005  0.85580  1.0000
  C   C17       1.0  0.90770  0.43010  0.40800  1.0000
  C   C18       1.0  0.59230  0.56990  0.40800  1.0000
  C   C19       1.0  0.90770  0.06990  0.09200  1.0000
  C   C20       1.0  0.59230  0.93010  0.09200  1.0000
  C   C21       1.0  0.09230  0.56990  0.59200  1.0000
  C   C22       1.0  0.40770  0.43010  0.59200  1.0000
  C   C23       1.0  0.09230  0.93010  0.90800  1.0000
  C   C24       1.0  0.40770  0.06990  0.90800  1.0000
  H   H9        1.0  0.89050  0.49080  0.39130  1.0000
  H   H10       1.0  0.60950  0.50920  0.39130  1.0000
  H   H11       1.0  0.89050  0.00920  0.10870  1.0000
  H   H12       1.0  0.60950  0.99080  0.10870  1.0000
  H   H13       1.0  0.10950  0.50920  0.60870  1.0000
  H   H14       1.0  0.39050  0.49080  0.60870  1.0000
  H   H15       1.0  0.10950  0.99080  0.89130  1.0000
  H   H16       1.0  0.39050  0.00920  0.89130  1.0000
  C   C25       1.0  0.83420  0.39000  0.48480  1.0000
  C   C26       1.0  0.66580  0.61000  0.48480  1.0000
  C   C27       1.0  0.83420  0.11000  0.01520  1.0000
  C   C28       1.0  0.66580  0.89000  0.01520  1.0000
  C   C29       1.0  0.16580  0.61000  0.51520  1.0000
  C   C30       1.0  0.33420  0.39000  0.51520  1.0000
  C   C31       1.0  0.16580  0.89000  0.98480  1.0000
  C   C32       1.0  0.33420  0.11000  0.98480  1.0000
  H   H17       1.0  0.76880  0.42420  0.52020  1.0000
  H   H18       1.0  0.73120  0.57580  0.52020  1.0000
  H   H19       1.0  0.76880  0.07580  0.97980  1.0000
  H   H20       1.0  0.73120  0.92420  0.97980  1.0000
  H   H21       1.0  0.23120  0.57580  0.47980  1.0000
  H   H22       1.0  0.26880  0.42420  0.47980  1.0000
  H   H23       1.0  0.23120  0.92420  0.02020  1.0000
  H   H24       1.0  0.26880  0.07580  0.02020  1.0000
  C   C33       1.0  0.85720  0.29980  0.50930  1.0000
  C   C34       1.0  0.64280  0.70020  0.50930  1.0000
  C   C35       1.0  0.85720  0.20020  0.99070  1.0000
  C   C36       1.0  0.64280  0.79980  0.99070  1.0000
  C   C37       1.0  0.14280  0.70020  0.49070  1.0000
  C   C38       1.0  0.35720  0.29980  0.49070  1.0000
  C   C39       1.0  0.14280  0.79980  0.00930  1.0000
  C   C40       1.0  0.35720  0.20020  0.00930  1.0000
  C   C41       1.0  0.95670  0.24899  0.45907  1.0000
  C   C42       1.0  0.54330  0.75101  0.45907  1.0000
  C   C43       1.0  0.95670  0.25101  0.04093  1.0000
  C   C44       1.0  0.54330  0.74899  0.04093  1.0000
  C   C45       1.0  0.04330  0.75101  0.54093  1.0000
  C   C46       1.0  0.45670  0.24899  0.54093  1.0000
  C   C47       1.0  0.04330  0.74899  0.95907  1.0000
  C   C48       1.0  0.45670  0.25101  0.95907  1.0000
  C   C49       1.0  0.03140  0.28945  0.38220  1.0000
  C   C50       1.0  0.46860  0.71055  0.38220  1.0000
  C   C51       1.0  0.03140  0.21055  0.11780  1.0000
  C   C52       1.0  0.46860  0.78945  0.11780  1.0000
  C   C53       1.0  0.96860  0.71055  0.61780  1.0000
  C   C54       1.0  0.53140  0.28945  0.61780  1.0000
  C   C55       1.0  0.96860  0.78945  0.88220  1.0000
  C   C56       1.0  0.53140  0.21055  0.88220  1.0000
  H   H25       1.0  0.09840  0.25550  0.34810  1.0000
  H   H26       1.0  0.40160  0.74450  0.34810  1.0000
  H   H27       1.0  0.09840  0.24450  0.15190  1.0000
  H   H28       1.0  0.40160  0.75550  0.15190  1.0000
  H   H29       1.0  0.90160  0.74450  0.65190  1.0000
  H   H30       1.0  0.59840  0.25550  0.65190  1.0000
  H   H31       1.0  0.90160  0.75550  0.84810  1.0000
  H   H32       1.0  0.59840  0.24450  0.84810  1.0000
  C   C57       1.0  0.98460  0.15170  0.49004  1.0000
  C   C58       1.0  0.51540  0.84830  0.49004  1.0000
  C   C59       1.0  0.98460  0.34830  0.00996  1.0000
  C   C60       1.0  0.51540  0.65170  0.00996  1.0000
  C   C61       1.0  0.01540  0.84830  0.50996  1.0000
  C   C62       1.0  0.48460  0.15170  0.50996  1.0000
  C   C63       1.0  0.01540  0.65170  0.99004  1.0000
  C   C64       1.0  0.48460  0.34830  0.99004  1.0000
  H   H33       1.0  0.80100  0.27600  0.55700  1.0000
  H   H34       1.0  0.69900  0.72400  0.55700  1.0000
  H   H35       1.0  0.80100  0.22400  0.94300  1.0000
  H   H36       1.0  0.69900  0.77600  0.94300  1.0000
  H   H37       1.0  0.19900  0.72400  0.44300  1.0000
  H   H38       1.0  0.30100  0.27600  0.44300  1.0000
  H   H39       1.0  0.19900  0.77600  0.05700  1.0000
  H   H40       1.0  0.30100  0.22400  0.05700  1.0000
