data_image0
_chemical_formula_structural       In6P10O8H2O8H2O8H2O8H2O6H2O2H2O12C6
_chemical_formula_sum              "In6 P10 O52 H12 C6"
_cell_length_a       10.7933
_cell_length_b       11.9038
_cell_length_c       13.2892
_cell_angle_alpha    107.688
_cell_angle_beta     95.217
_cell_angle_gamma    99.513

_space_group_name_H-M_alt    "P 1"
_space_group_IT_number       1

loop_
  _space_group_symop_operation_xyz
  'x, y, z'

loop_
  _atom_site_type_symbol
  _atom_site_label
  _atom_site_symmetry_multiplicity
  _atom_site_fract_x
  _atom_site_fract_y
  _atom_site_fract_z
  _atom_site_occupancy
  In  In1       1.0  0.76236  0.48672  0.48538  1.0000
  In  In2       1.0  0.23764  0.51328  0.51462  1.0000
  In  In3       1.0  0.92770  0.78591  0.82084  1.0000
  In  In4       1.0  0.07230  0.21409  0.17916  1.0000
  In  In5       1.0  0.76283  0.49611  0.98530  1.0000
  In  In6       1.0  0.23717  0.50389  0.01470  1.0000
  P   P1        1.0  0.72043  0.53512  0.73902  1.0000
  P   P2        1.0  0.27957  0.46488  0.26098  1.0000
  P   P3        1.0  0.70277  0.43016  0.21170  1.0000
  P   P4        1.0  0.29723  0.56984  0.78830  1.0000
  P   P5        1.0  0.95833  0.29905  0.41046  1.0000
  P   P6        1.0  0.04167  0.70095  0.58954  1.0000
  P   P7        1.0  0.96435  0.30147  0.97891  1.0000
  P   P8        1.0  0.03565  0.69853  0.02109  1.0000
  P   P9        1.0  0.76818  0.94138  0.68750  1.0000
  P   P10       1.0  0.23182  0.05862  0.31250  1.0000
  O   O1        1.0  0.78830  0.48590  0.64405  1.0000
  O   O2        1.0  0.21170  0.51410  0.35595  1.0000
  O   O3        1.0  0.75910  0.47890  0.82282  1.0000
  O   O4        1.0  0.24090  0.52110  0.17718  1.0000
  O   O5        1.0  0.75040  0.67217  0.78268  1.0000
  O   O6        1.0  0.24960  0.32783  0.21732  1.0000
  O   O7        1.0  0.57558  0.49180  0.69817  1.0000
  O   O8        1.0  0.42442  0.50820  0.30183  1.0000
  H   H1        1.0  0.53620  0.53130  0.74090  1.0000
  H   H2        1.0  0.46380  0.46870  0.25910  1.0000
  O   O9        1.0  0.75020  0.49730  0.32889  1.0000
  O   O10       1.0  0.24980  0.50270  0.67111  1.0000
  O   O11       1.0  0.77380  0.50460  0.15052  1.0000
  O   O12       1.0  0.22620  0.49540  0.84948  1.0000
  O   O13       1.0  0.56140  0.40530  0.18057  1.0000
  O   O14       1.0  0.43860  0.59470  0.81943  1.0000
  O   O15       1.0  0.73790  0.30180  0.17930  1.0000
  O   O16       1.0  0.26210  0.69820  0.82070  1.0000
  H   H3        1.0  0.81450  0.30890  0.19610  1.0000
  H   H4        1.0  0.18550  0.69110  0.80390  1.0000
  O   O17       1.0  0.83300  0.32718  0.44281  1.0000
  O   O18       1.0  0.16700  0.67282  0.55719  1.0000
  O   O19       1.0  0.07050  0.38190  0.49050  1.0000
  O   O20       1.0  0.92950  0.61810  0.50950  1.0000
  O   O21       1.0  0.96840  0.29694  0.29671  1.0000
  O   O22       1.0  0.03160  0.70306  0.70329  1.0000
  O   O23       1.0  0.95230  0.16736  0.41608  1.0000
  O   O24       1.0  0.04770  0.83264  0.58392  1.0000
  H   H5        1.0  0.00540  0.13690  0.38280  1.0000
  H   H6        1.0  0.99460  0.86310  0.61720  1.0000
  O   O25       1.0  0.85120  0.34950  0.94777  1.0000
  O   O26       1.0  0.14880  0.65050  0.05223  1.0000
  O   O27       1.0  0.98460  0.31385  0.09641  1.0000
  O   O28       1.0  0.01540  0.68615  0.90359  1.0000
  O   O29       1.0  0.08480  0.35770  0.94531  1.0000
  O   O30       1.0  0.91520  0.64230  0.05469  1.0000
  O   O31       1.0  0.93860  0.16401  0.91287  1.0000
  O   O32       1.0  0.06140  0.83599  0.08713  1.0000
  H   H7        1.0  0.87020  0.14520  0.87360  1.0000
  H   H8        1.0  0.12980  0.85480  0.12640  1.0000
  O   O33       1.0  0.87500  0.88510  0.71787  1.0000
  O   O34       1.0  0.12500  0.11490  0.28213  1.0000
  O   O35       1.0  0.74790  0.05030  0.77050  1.0000
  O   O36       1.0  0.25210  0.94970  0.22950  1.0000
  O   O37       1.0  0.64020  0.84930  0.65720  1.0000
  O   O38       1.0  0.35980  0.15070  0.34280  1.0000
  H   H9        1.0  0.65260  0.78160  0.62840  1.0000
  H   H10       1.0  0.34740  0.21840  0.37160  1.0000
  O   O39       1.0  0.80360  0.96860  0.58400  1.0000
  O   O40       1.0  0.19640  0.03140  0.41600  1.0000
  H   H11       1.0  0.75030  0.00100  0.56260  1.0000
  H   H12       1.0  0.24970  0.99900  0.43740  1.0000
  O   O41       1.0  0.56852  0.37476  0.45228  1.0000
  O   O42       1.0  0.43148  0.62524  0.54772  1.0000
  O   O43       1.0  0.36762  0.38250  0.47327  1.0000
  O   O44       1.0  0.63238  0.61750  0.52673  1.0000
  O   O45       1.0  0.85360  0.89855  0.95562  1.0000
  O   O46       1.0  0.14640  0.10145  0.04438  1.0000
  O   O47       1.0  0.91300  0.05976  0.10143  1.0000
  O   O48       1.0  0.08700  0.94024  0.89857  1.0000
  O   O49       1.0  0.57140  0.37849  0.94412  1.0000
  O   O50       1.0  0.42860  0.62151  0.05588  1.0000
  O   O51       1.0  0.37039  0.37965  0.96944  1.0000
  O   O52       1.0  0.62961  0.62035  0.03056  1.0000
  C   C1        1.0  0.48290  0.43060  0.47880  1.0000
  C   C2        1.0  0.51710  0.56940  0.52120  1.0000
  C   C3        1.0  0.93360  0.98820  0.01670  1.0000
  C   C4        1.0  0.06640  0.01180  0.98330  1.0000
  C   C5        1.0  0.48290  0.43050  0.97540  1.0000
  C   C6        1.0  0.51710  0.56950  0.02460  1.0000
