data_image0
_chemical_formula_structural       Mn32S32O208H32C32
_chemical_formula_sum              "Mn32 S32 O208 H32 C32"
_cell_length_a       23.1084
_cell_length_b       23.1084
_cell_length_c       13.1817
_cell_angle_alpha    90
_cell_angle_beta     90
_cell_angle_gamma    90

_space_group_name_H-M_alt    "P 1"
_space_group_IT_number       1

loop_
  _space_group_symop_operation_xyz
  'x, y, z'

loop_
  _atom_site_type_symbol
  _atom_site_label
  _atom_site_symmetry_multiplicity
  _atom_site_fract_x
  _atom_site_fract_y
  _atom_site_fract_z
  _atom_site_occupancy
  Mn  Mn1       1.0  0.64971  0.52822  0.73065  1.0000
  Mn  Mn2       1.0  0.85029  0.97178  0.23065  1.0000
  Mn  Mn3       1.0  0.47178  0.14971  0.98065  1.0000
  Mn  Mn4       1.0  0.02822  0.35029  0.48065  1.0000
  Mn  Mn5       1.0  0.64971  0.47178  0.23065  1.0000
  Mn  Mn6       1.0  0.85029  0.02822  0.73065  1.0000
  Mn  Mn7       1.0  0.47178  0.85029  0.48065  1.0000
  Mn  Mn8       1.0  0.02822  0.64971  0.98065  1.0000
  Mn  Mn9       1.0  0.14971  0.02822  0.23065  1.0000
  Mn  Mn10      1.0  0.35029  0.47178  0.73065  1.0000
  Mn  Mn11      1.0  0.97178  0.64971  0.48065  1.0000
  Mn  Mn12      1.0  0.52822  0.85029  0.98065  1.0000
  Mn  Mn13      1.0  0.14971  0.97178  0.73065  1.0000
  Mn  Mn14      1.0  0.35029  0.52822  0.23065  1.0000
  Mn  Mn15      1.0  0.97178  0.35029  0.98065  1.0000
  Mn  Mn16      1.0  0.52822  0.14971  0.48065  1.0000
  Mn  Mn17      1.0  0.49323  0.60340  0.47539  1.0000
  Mn  Mn18      1.0  0.00677  0.89660  0.97539  1.0000
  Mn  Mn19      1.0  0.39660  0.99323  0.72539  1.0000
  Mn  Mn20      1.0  0.10340  0.50677  0.22539  1.0000
  Mn  Mn21      1.0  0.49323  0.39660  0.97539  1.0000
  Mn  Mn22      1.0  0.00677  0.10340  0.47539  1.0000
  Mn  Mn23      1.0  0.39660  0.00677  0.22539  1.0000
  Mn  Mn24      1.0  0.10340  0.49323  0.72539  1.0000
  Mn  Mn25      1.0  0.99323  0.10340  0.97539  1.0000
  Mn  Mn26      1.0  0.50677  0.39660  0.47539  1.0000
  Mn  Mn27      1.0  0.89660  0.49323  0.22539  1.0000
  Mn  Mn28      1.0  0.60340  0.00677  0.72539  1.0000
  Mn  Mn29      1.0  0.99323  0.89660  0.47539  1.0000
  Mn  Mn30      1.0  0.50677  0.60340  0.97539  1.0000
  Mn  Mn31      1.0  0.89660  0.50677  0.72539  1.0000
  Mn  Mn32      1.0  0.60340  0.99323  0.22539  1.0000
  S   S1        1.0  0.60800  0.49364  0.97642  1.0000
  S   S2        1.0  0.89200  0.00636  0.47642  1.0000
  S   S3        1.0  0.50636  0.10800  0.22642  1.0000
  S   S4        1.0  0.99364  0.39200  0.72642  1.0000
  S   S5        1.0  0.60800  0.50636  0.47642  1.0000
  S   S6        1.0  0.89200  0.99364  0.97642  1.0000
  S   S7        1.0  0.50636  0.89200  0.72642  1.0000
  S   S8        1.0  0.99364  0.60800  0.22642  1.0000
  S   S9        1.0  0.10800  0.99364  0.47642  1.0000
  S   S10       1.0  0.39200  0.50636  0.97642  1.0000
  S   S11       1.0  0.00636  0.60800  0.72642  1.0000
  S   S12       1.0  0.49364  0.89200  0.22642  1.0000
  S   S13       1.0  0.10800  0.00636  0.97642  1.0000
  S   S14       1.0  0.39200  0.49364  0.47642  1.0000
  S   S15       1.0  0.00636  0.39200  0.22642  1.0000
  S   S16       1.0  0.49364  0.10800  0.72642  1.0000
  S   S17       1.0  0.54294  0.62273  0.72583  1.0000
  S   S18       1.0  0.95706  0.87727  0.22583  1.0000
  S   S19       1.0  0.37727  0.04294  0.97583  1.0000
  S   S20       1.0  0.12273  0.45706  0.47583  1.0000
  S   S21       1.0  0.54294  0.37727  0.22583  1.0000
  S   S22       1.0  0.95706  0.12273  0.72583  1.0000
  S   S23       1.0  0.37727  0.95706  0.47583  1.0000
  S   S24       1.0  0.12273  0.54294  0.97583  1.0000
  S   S25       1.0  0.04294  0.12273  0.22583  1.0000
  S   S26       1.0  0.45706  0.37727  0.72583  1.0000
  S   S27       1.0  0.87727  0.54294  0.47583  1.0000
  S   S28       1.0  0.62273  0.95706  0.97583  1.0000
  S   S29       1.0  0.04294  0.87727  0.72583  1.0000
  S   S30       1.0  0.45706  0.62273  0.22583  1.0000
  S   S31       1.0  0.87727  0.45706  0.97583  1.0000
  S   S32       1.0  0.62273  0.04294  0.47583  1.0000
  O   O1        1.0  0.64256  0.51670  0.89370  1.0000
  O   O2        1.0  0.85744  0.98330  0.39370  1.0000
  O   O3        1.0  0.48330  0.14256  0.14370  1.0000
  O   O4        1.0  0.01670  0.35744  0.64370  1.0000
  O   O5        1.0  0.64256  0.48330  0.39370  1.0000
  O   O6        1.0  0.85744  0.01670  0.89370  1.0000
  O   O7        1.0  0.48330  0.85744  0.64370  1.0000
  O   O8        1.0  0.01670  0.64256  0.14370  1.0000
  O   O9        1.0  0.14256  0.01670  0.39370  1.0000
  O   O10       1.0  0.35744  0.48330  0.89370  1.0000
  O   O11       1.0  0.98330  0.64256  0.64370  1.0000
  O   O12       1.0  0.51670  0.85744  0.14370  1.0000
  O   O13       1.0  0.14256  0.98330  0.89370  1.0000
  O   O14       1.0  0.35744  0.51670  0.39370  1.0000
  O   O15       1.0  0.98330  0.35744  0.14370  1.0000
  O   O16       1.0  0.51670  0.14256  0.64370  1.0000
  O   O17       1.0  0.64817  0.47547  0.05830  1.0000
  O   O18       1.0  0.85183  0.02453  0.55830  1.0000
  O   O19       1.0  0.52453  0.14817  0.30830  1.0000
  O   O20       1.0  0.97547  0.35183  0.80830  1.0000
  O   O21       1.0  0.64817  0.52453  0.55830  1.0000
  O   O22       1.0  0.85183  0.97547  0.05830  1.0000
  O   O23       1.0  0.52453  0.85183  0.80830  1.0000
  O   O24       1.0  0.97547  0.64817  0.30830  1.0000
  O   O25       1.0  0.14817  0.97547  0.55830  1.0000
  O   O26       1.0  0.35183  0.52453  0.05830  1.0000
  O   O27       1.0  0.02453  0.64817  0.80830  1.0000
  O   O28       1.0  0.47547  0.85183  0.30830  1.0000
  O   O29       1.0  0.14817  0.02453  0.05830  1.0000
  O   O30       1.0  0.35183  0.47547  0.55830  1.0000
  O   O31       1.0  0.02453  0.35183  0.30830  1.0000
  O   O32       1.0  0.47547  0.14817  0.80830  1.0000
  O   O33       1.0  0.57376  0.44416  0.94110  1.0000
  O   O34       1.0  0.92624  0.05584  0.44110  1.0000
  O   O35       1.0  0.55584  0.07376  0.19110  1.0000
  O   O36       1.0  0.94416  0.42624  0.69110  1.0000
  O   O37       1.0  0.57376  0.55584  0.44110  1.0000
  O   O38       1.0  0.92624  0.94416  0.94110  1.0000
  O   O39       1.0  0.55584  0.92624  0.69110  1.0000
  O   O40       1.0  0.94416  0.57376  0.19110  1.0000
  O   O41       1.0  0.07376  0.94416  0.44110  1.0000
  O   O42       1.0  0.42624  0.55584  0.94110  1.0000
  O   O43       1.0  0.05584  0.57376  0.69110  1.0000
  O   O44       1.0  0.44416  0.92624  0.19110  1.0000
  O   O45       1.0  0.07376  0.05584  0.94110  1.0000
  O   O46       1.0  0.42624  0.44416  0.44110  1.0000
  O   O47       1.0  0.05584  0.42624  0.19110  1.0000
  O   O48       1.0  0.44416  0.07376  0.69110  1.0000
  O   O49       1.0  0.56920  0.53834  0.01620  1.0000
  O   O50       1.0  0.93080  0.96166  0.51620  1.0000
  O   O51       1.0  0.46166  0.06920  0.26620  1.0000
  O   O52       1.0  0.03834  0.43080  0.76620  1.0000
  O   O53       1.0  0.56920  0.46166  0.51620  1.0000
  O   O54       1.0  0.93080  0.03834  0.01620  1.0000
  O   O55       1.0  0.46166  0.93080  0.76620  1.0000
  O   O56       1.0  0.03834  0.56920  0.26620  1.0000
  O   O57       1.0  0.06920  0.03834  0.51620  1.0000
  O   O58       1.0  0.43080  0.46166  0.01620  1.0000
  O   O59       1.0  0.96166  0.56920  0.76620  1.0000
  O   O60       1.0  0.53834  0.93080  0.26620  1.0000
  O   O61       1.0  0.06920  0.96166  0.01620  1.0000
  O   O62       1.0  0.43080  0.53834  0.51620  1.0000
  O   O63       1.0  0.96166  0.43080  0.26620  1.0000
  O   O64       1.0  0.53834  0.06920  0.76620  1.0000
  O   O65       1.0  0.60503  0.60966  0.72130  1.0000
  O   O66       1.0  0.89497  0.89034  0.22130  1.0000
  O   O67       1.0  0.39034  0.10503  0.97130  1.0000
  O   O68       1.0  0.10966  0.39497  0.47130  1.0000
  O   O69       1.0  0.60503  0.39034  0.22130  1.0000
  O   O70       1.0  0.89497  0.10966  0.72130  1.0000
  O   O71       1.0  0.39034  0.89497  0.47130  1.0000
  O   O72       1.0  0.10966  0.60503  0.97130  1.0000
  O   O73       1.0  0.10503  0.10966  0.22130  1.0000
  O   O74       1.0  0.39497  0.39034  0.72130  1.0000
  O   O75       1.0  0.89034  0.60503  0.47130  1.0000
  O   O76       1.0  0.60966  0.89497  0.97130  1.0000
  O   O77       1.0  0.10503  0.89034  0.72130  1.0000
  O   O78       1.0  0.39497  0.60966  0.22130  1.0000
  O   O79       1.0  0.89034  0.39497  0.97130  1.0000
  O   O80       1.0  0.60966  0.10503  0.47130  1.0000
  O   O81       1.0  0.51340  0.60040  0.63610  1.0000
  O   O82       1.0  0.98660  0.89960  0.13610  1.0000
  O   O83       1.0  0.39960  0.01340  0.88610  1.0000
  O   O84       1.0  0.10040  0.48660  0.38610  1.0000
  O   O85       1.0  0.51340  0.39960  0.13610  1.0000
  O   O86       1.0  0.98660  0.10040  0.63610  1.0000
  O   O87       1.0  0.39960  0.98660  0.38610  1.0000
  O   O88       1.0  0.10040  0.51340  0.88610  1.0000
  O   O89       1.0  0.01340  0.10040  0.13610  1.0000
  O   O90       1.0  0.48660  0.39960  0.63610  1.0000
  O   O91       1.0  0.89960  0.51340  0.38610  1.0000
  O   O92       1.0  0.60040  0.98660  0.88610  1.0000
  O   O93       1.0  0.01340  0.89960  0.63610  1.0000
  O   O94       1.0  0.48660  0.60040  0.13610  1.0000
  O   O95       1.0  0.89960  0.48660  0.88610  1.0000
  O   O96       1.0  0.60040  0.01340  0.38610  1.0000
  O   O97       1.0  0.51737  0.59380  0.81450  1.0000
  O   O98       1.0  0.98263  0.90620  0.31450  1.0000
  O   O99       1.0  0.40620  0.01737  0.06450  1.0000
  O   O100      1.0  0.09380  0.48263  0.56450  1.0000
  O   O101      1.0  0.51737  0.40620  0.31450  1.0000
  O   O102      1.0  0.98263  0.09380  0.81450  1.0000
  O   O103      1.0  0.40620  0.98263  0.56450  1.0000
  O   O104      1.0  0.09380  0.51737  0.06450  1.0000
  O   O105      1.0  0.01737  0.09380  0.31450  1.0000
  O   O106      1.0  0.48263  0.40620  0.81450  1.0000
  O   O107      1.0  0.90620  0.51737  0.56450  1.0000
  O   O108      1.0  0.59380  0.98263  0.06450  1.0000
  O   O109      1.0  0.01737  0.90620  0.81450  1.0000
  O   O110      1.0  0.48263  0.59380  0.31450  1.0000
  O   O111      1.0  0.90620  0.48263  0.06450  1.0000
  O   O112      1.0  0.59380  0.01737  0.56450  1.0000
  O   O113      1.0  0.53596  0.68570  0.73290  1.0000
  O   O114      1.0  0.96404  0.81430  0.23290  1.0000
  O   O115      1.0  0.31430  0.03596  0.98290  1.0000
  O   O116      1.0  0.18570  0.46404  0.48290  1.0000
  O   O117      1.0  0.53596  0.31430  0.23290  1.0000
  O   O118      1.0  0.96404  0.18570  0.73290  1.0000
  O   O119      1.0  0.31430  0.96404  0.48290  1.0000
  O   O120      1.0  0.18570  0.53596  0.98290  1.0000
  O   O121      1.0  0.03596  0.18570  0.23290  1.0000
  O   O122      1.0  0.46404  0.31430  0.73290  1.0000
  O   O123      1.0  0.81430  0.53596  0.48290  1.0000
  O   O124      1.0  0.68570  0.96404  0.98290  1.0000
  O   O125      1.0  0.03596  0.81430  0.73290  1.0000
  O   O126      1.0  0.46404  0.68570  0.23290  1.0000
  O   O127      1.0  0.81430  0.46404  0.98290  1.0000
  O   O128      1.0  0.68570  0.03596  0.48290  1.0000
  O   O129      1.0  0.42758  0.67406  0.49330  1.0000
  O   O130      1.0  0.07242  0.82594  0.99330  1.0000
  O   O131      1.0  0.32594  0.92758  0.74330  1.0000
  O   O132      1.0  0.17406  0.57242  0.24330  1.0000
  O   O133      1.0  0.42758  0.32594  0.99330  1.0000
  O   O134      1.0  0.07242  0.17406  0.49330  1.0000
  O   O135      1.0  0.32594  0.07242  0.24330  1.0000
  O   O136      1.0  0.17406  0.42758  0.74330  1.0000
  O   O137      1.0  0.92758  0.17406  0.99330  1.0000
  O   O138      1.0  0.57242  0.32594  0.49330  1.0000
  O   O139      1.0  0.82594  0.42758  0.24330  1.0000
  O   O140      1.0  0.67406  0.07242  0.74330  1.0000
  O   O141      1.0  0.92758  0.82594  0.49330  1.0000
  O   O142      1.0  0.57242  0.67406  0.99330  1.0000
  O   O143      1.0  0.82594  0.57242  0.74330  1.0000
  O   O144      1.0  0.67406  0.92758  0.24330  1.0000
  O   O145      1.0  0.41949  0.77028  0.48970  1.0000
  O   O146      1.0  0.08051  0.72972  0.98970  1.0000
  O   O147      1.0  0.22972  0.91949  0.73970  1.0000
  O   O148      1.0  0.27028  0.58051  0.23970  1.0000
  O   O149      1.0  0.41949  0.22972  0.98970  1.0000
  O   O150      1.0  0.08051  0.27028  0.48970  1.0000
  O   O151      1.0  0.22972  0.08051  0.23970  1.0000
  O   O152      1.0  0.27028  0.41949  0.73970  1.0000
  O   O153      1.0  0.91949  0.27028  0.98970  1.0000
  O   O154      1.0  0.58051  0.22972  0.48970  1.0000
  O   O155      1.0  0.72972  0.41949  0.23970  1.0000
  O   O156      1.0  0.77028  0.08051  0.73970  1.0000
  O   O157      1.0  0.91949  0.72972  0.48970  1.0000
  O   O158      1.0  0.58051  0.77028  0.98970  1.0000
  O   O159      1.0  0.72972  0.58051  0.73970  1.0000
  O   O160      1.0  0.77028  0.91949  0.23970  1.0000
  O   O161      1.0  0.54187  0.68351  0.46030  1.0000
  O   O162      1.0  0.95813  0.81649  0.96030  1.0000
  O   O163      1.0  0.31649  0.04187  0.71030  1.0000
  O   O164      1.0  0.18351  0.45813  0.21030  1.0000
  O   O165      1.0  0.54187  0.31649  0.96030  1.0000
  O   O166      1.0  0.95813  0.18351  0.46030  1.0000
  O   O167      1.0  0.31649  0.95813  0.21030  1.0000
  O   O168      1.0  0.18351  0.54187  0.71030  1.0000
  O   O169      1.0  0.04187  0.18351  0.96030  1.0000
  O   O170      1.0  0.45813  0.31649  0.46030  1.0000
  O   O171      1.0  0.81649  0.54187  0.21030  1.0000
  O   O172      1.0  0.68351  0.95813  0.71030  1.0000
  O   O173      1.0  0.04187  0.81649  0.46030  1.0000
  O   O174      1.0  0.45813  0.68351  0.96030  1.0000
  O   O175      1.0  0.81649  0.45813  0.71030  1.0000
  O   O176      1.0  0.68351  0.04187  0.21030  1.0000
  O   O177      1.0  0.53497  0.77951  0.47020  1.0000
  O   O178      1.0  0.96503  0.72049  0.97020  1.0000
  O   O179      1.0  0.22049  0.03497  0.72020  1.0000
  O   O180      1.0  0.27951  0.46503  0.22020  1.0000
  O   O181      1.0  0.53497  0.22049  0.97020  1.0000
  O   O182      1.0  0.96503  0.27951  0.47020  1.0000
  O   O183      1.0  0.22049  0.96503  0.22020  1.0000
  O   O184      1.0  0.27951  0.53497  0.72020  1.0000
  O   O185      1.0  0.03497  0.27951  0.97020  1.0000
  O   O186      1.0  0.46503  0.22049  0.47020  1.0000
  O   O187      1.0  0.72049  0.53497  0.22020  1.0000
  O   O188      1.0  0.77951  0.96503  0.72020  1.0000
  O   O189      1.0  0.03497  0.72049  0.47020  1.0000
  O   O190      1.0  0.46503  0.77951  0.97020  1.0000
  O   O191      1.0  0.72049  0.46503  0.72020  1.0000
  O   O192      1.0  0.77951  0.03497  0.22020  1.0000
  O   O193      1.0  0.57930  0.46950  0.72460  1.0000
  O   O194      1.0  0.92070  0.03050  0.22460  1.0000
  O   O195      1.0  0.53050  0.07930  0.97460  1.0000
  O   O196      1.0  0.96950  0.42070  0.47460  1.0000
  O   O197      1.0  0.57930  0.53050  0.22460  1.0000
  O   O198      1.0  0.92070  0.96950  0.72460  1.0000
  O   O199      1.0  0.53050  0.92070  0.47460  1.0000
  O   O200      1.0  0.96950  0.57930  0.97460  1.0000
  O   O201      1.0  0.07930  0.96950  0.22460  1.0000
  O   O202      1.0  0.42070  0.53050  0.72460  1.0000
  O   O203      1.0  0.03050  0.57930  0.47460  1.0000
  O   O204      1.0  0.46950  0.92070  0.97460  1.0000
  O   O205      1.0  0.07930  0.03050  0.72460  1.0000
  O   O206      1.0  0.42070  0.46950  0.22460  1.0000
  O   O207      1.0  0.03050  0.42070  0.97460  1.0000
  O   O208      1.0  0.46950  0.07930  0.47460  1.0000
  H   H1        1.0  0.56990  0.46400  0.66300  1.0000
  H   H2        1.0  0.93010  0.03600  0.16300  1.0000
  H   H3        1.0  0.53600  0.06990  0.91300  1.0000
  H   H4        1.0  0.96400  0.43010  0.41300  1.0000
  H   H5        1.0  0.56990  0.53600  0.16300  1.0000
  H   H6        1.0  0.93010  0.96400  0.66300  1.0000
  H   H7        1.0  0.53600  0.93010  0.41300  1.0000
  H   H8        1.0  0.96400  0.56990  0.91300  1.0000
  H   H9        1.0  0.06990  0.96400  0.16300  1.0000
  H   H10       1.0  0.43010  0.53600  0.66300  1.0000
  H   H11       1.0  0.03600  0.56990  0.41300  1.0000
  H   H12       1.0  0.46400  0.93010  0.91300  1.0000
  H   H13       1.0  0.06990  0.03600  0.66300  1.0000
  H   H14       1.0  0.43010  0.46400  0.16300  1.0000
  H   H15       1.0  0.03600  0.43010  0.91300  1.0000
  H   H16       1.0  0.46400  0.06990  0.41300  1.0000
  H   H17       1.0  0.55080  0.48390  0.75650  1.0000
  H   H18       1.0  0.94920  0.01610  0.25650  1.0000
  H   H19       1.0  0.51610  0.05080  0.00650  1.0000
  H   H20       1.0  0.98390  0.44920  0.50650  1.0000
  H   H21       1.0  0.55080  0.51610  0.25650  1.0000
  H   H22       1.0  0.94920  0.98390  0.75650  1.0000
  H   H23       1.0  0.51610  0.94920  0.50650  1.0000
  H   H24       1.0  0.98390  0.55080  0.00650  1.0000
  H   H25       1.0  0.05080  0.98390  0.25650  1.0000
  H   H26       1.0  0.44920  0.51610  0.75650  1.0000
  H   H27       1.0  0.01610  0.55080  0.50650  1.0000
  H   H28       1.0  0.48390  0.94920  0.00650  1.0000
  H   H29       1.0  0.05080  0.01610  0.75650  1.0000
  H   H30       1.0  0.44920  0.48390  0.25650  1.0000
  H   H31       1.0  0.01610  0.44920  0.00650  1.0000
  H   H32       1.0  0.48390  0.05080  0.50650  1.0000
  C   C1        1.0  0.44720  0.72380  0.48610  1.0000
  C   C2        1.0  0.05280  0.77620  0.98610  1.0000
  C   C3        1.0  0.27620  0.94720  0.73610  1.0000
  C   C4        1.0  0.22380  0.55280  0.23610  1.0000
  C   C5        1.0  0.44720  0.27620  0.98610  1.0000
  C   C6        1.0  0.05280  0.22380  0.48610  1.0000
  C   C7        1.0  0.27620  0.05280  0.23610  1.0000
  C   C8        1.0  0.22380  0.44720  0.73610  1.0000
  C   C9        1.0  0.94720  0.22380  0.98610  1.0000
  C   C10       1.0  0.55280  0.27620  0.48610  1.0000
  C   C11       1.0  0.77620  0.44720  0.23610  1.0000
  C   C12       1.0  0.72380  0.05280  0.73610  1.0000
  C   C13       1.0  0.94720  0.77620  0.48610  1.0000
  C   C14       1.0  0.55280  0.72380  0.98610  1.0000
  C   C15       1.0  0.77620  0.55280  0.73610  1.0000
  C   C16       1.0  0.72380  0.94720  0.23610  1.0000
  C   C17       1.0  0.51460  0.72920  0.47110  1.0000
  C   C18       1.0  0.98540  0.77080  0.97110  1.0000
  C   C19       1.0  0.27080  0.01460  0.72110  1.0000
  C   C20       1.0  0.22920  0.48540  0.22110  1.0000
  C   C21       1.0  0.51460  0.27080  0.97110  1.0000
  C   C22       1.0  0.98540  0.22920  0.47110  1.0000
  C   C23       1.0  0.27080  0.98540  0.22110  1.0000
  C   C24       1.0  0.22920  0.51460  0.72110  1.0000
  C   C25       1.0  0.01460  0.22920  0.97110  1.0000
  C   C26       1.0  0.48540  0.27080  0.47110  1.0000
  C   C27       1.0  0.77080  0.51460  0.22110  1.0000
  C   C28       1.0  0.72920  0.98540  0.72110  1.0000
  C   C29       1.0  0.01460  0.77080  0.47110  1.0000
  C   C30       1.0  0.48540  0.72920  0.97110  1.0000
  C   C31       1.0  0.77080  0.48540  0.72110  1.0000
  C   C32       1.0  0.72920  0.01460  0.22110  1.0000
