data_image0
_chemical_formula_structural       Au8C48F40C48F40
_chemical_formula_sum              "Au8 C96 F80"
_cell_length_a       31.908
_cell_length_b       9.7803
_cell_length_c       25.3001
_cell_angle_alpha    90
_cell_angle_beta     122.058
_cell_angle_gamma    90

_space_group_name_H-M_alt    "P 1"
_space_group_IT_number       1

loop_
  _space_group_symop_operation_xyz
  'x, y, z'

loop_
  _atom_site_type_symbol
  _atom_site_label
  _atom_site_symmetry_multiplicity
  _atom_site_fract_x
  _atom_site_fract_y
  _atom_site_fract_z
  _atom_site_occupancy
  Au  Au1       1.0  0.13337  0.37554  0.37027  1.0000
  Au  Au2       1.0  0.86663  0.37554  0.12973  1.0000
  Au  Au3       1.0  0.63337  0.87554  0.37027  1.0000
  Au  Au4       1.0  0.36663  0.87554  0.12973  1.0000
  Au  Au5       1.0  0.86663  0.62446  0.62973  1.0000
  Au  Au6       1.0  0.13337  0.62446  0.87027  1.0000
  Au  Au7       1.0  0.36663  0.12446  0.62973  1.0000
  Au  Au8       1.0  0.63337  0.12446  0.87027  1.0000
  C   C1        1.0  0.16079  0.57070  0.39330  1.0000
  C   C2        1.0  0.83921  0.57070  0.10670  1.0000
  C   C3        1.0  0.66079  0.07070  0.39330  1.0000
  C   C4        1.0  0.33921  0.07070  0.10670  1.0000
  C   C5        1.0  0.83921  0.42930  0.60670  1.0000
  C   C6        1.0  0.16079  0.42930  0.89330  1.0000
  C   C7        1.0  0.33921  0.92930  0.60670  1.0000
  C   C8        1.0  0.66079  0.92930  0.89330  1.0000
  C   C9        1.0  0.16601  0.65870  0.35510  1.0000
  C   C10       1.0  0.83399  0.65870  0.14490  1.0000
  C   C11       1.0  0.66601  0.15870  0.35510  1.0000
  C   C12       1.0  0.33399  0.15870  0.14490  1.0000
  C   C13       1.0  0.83399  0.34130  0.64490  1.0000
  C   C14       1.0  0.16601  0.34130  0.85510  1.0000
  C   C15       1.0  0.33399  0.84130  0.64490  1.0000
  C   C16       1.0  0.66601  0.84130  0.85510  1.0000
  C   C17       1.0  0.18294  0.79120  0.37100  1.0000
  C   C18       1.0  0.81706  0.79120  0.12900  1.0000
  C   C19       1.0  0.68294  0.29120  0.37100  1.0000
  C   C20       1.0  0.31706  0.29120  0.12900  1.0000
  C   C21       1.0  0.81706  0.20880  0.62900  1.0000
  C   C22       1.0  0.18294  0.20880  0.87100  1.0000
  C   C23       1.0  0.31706  0.70880  0.62900  1.0000
  C   C24       1.0  0.68294  0.70880  0.87100  1.0000
  C   C25       1.0  0.19500  0.84250  0.42770  1.0000
  C   C26       1.0  0.80500  0.84250  0.07230  1.0000
  C   C27       1.0  0.69500  0.34250  0.42770  1.0000
  C   C28       1.0  0.30500  0.34250  0.07230  1.0000
  C   C29       1.0  0.80500  0.15750  0.57230  1.0000
  C   C30       1.0  0.19500  0.15750  0.92770  1.0000
  C   C31       1.0  0.30500  0.65750  0.57230  1.0000
  C   C32       1.0  0.69500  0.65750  0.92770  1.0000
  C   C33       1.0  0.18978  0.75820  0.46760  1.0000
  C   C34       1.0  0.81022  0.75820  0.03240  1.0000
  C   C35       1.0  0.68978  0.25820  0.46760  1.0000
  C   C36       1.0  0.31022  0.25820  0.03240  1.0000
  C   C37       1.0  0.81022  0.24180  0.53240  1.0000
  C   C38       1.0  0.18978  0.24180  0.96760  1.0000
  C   C39       1.0  0.31022  0.74180  0.53240  1.0000
  C   C40       1.0  0.68978  0.74180  0.96760  1.0000
  C   C41       1.0  0.17330  0.62580  0.45050  1.0000
  C   C42       1.0  0.82670  0.62580  0.04950  1.0000
  C   C43       1.0  0.67330  0.12580  0.45050  1.0000
  C   C44       1.0  0.32670  0.12580  0.04950  1.0000
  C   C45       1.0  0.82670  0.37420  0.54950  1.0000
  C   C46       1.0  0.17330  0.37420  0.95050  1.0000
  C   C47       1.0  0.32670  0.87420  0.54950  1.0000
  C   C48       1.0  0.67330  0.87420  0.95050  1.0000
  F   F1        1.0  0.15527  0.61540  0.29801  1.0000
  F   F2        1.0  0.84473  0.61540  0.20199  1.0000
  F   F3        1.0  0.65527  0.11540  0.29801  1.0000
  F   F4        1.0  0.34473  0.11540  0.20199  1.0000
  F   F5        1.0  0.84473  0.38460  0.70199  1.0000
  F   F6        1.0  0.15527  0.38460  0.79801  1.0000
  F   F7        1.0  0.34473  0.88460  0.70199  1.0000
  F   F8        1.0  0.65527  0.88460  0.79801  1.0000
  F   F9        1.0  0.18820  0.87150  0.33125  1.0000
  F   F10       1.0  0.81180  0.87150  0.16875  1.0000
  F   F11       1.0  0.68820  0.37150  0.33125  1.0000
  F   F12       1.0  0.31180  0.37150  0.16875  1.0000
  F   F13       1.0  0.81180  0.12850  0.66875  1.0000
  F   F14       1.0  0.18820  0.12850  0.83125  1.0000
  F   F15       1.0  0.31180  0.62850  0.66875  1.0000
  F   F16       1.0  0.68820  0.62850  0.83125  1.0000
  F   F17       1.0  0.21167  0.97070  0.44444  1.0000
  F   F18       1.0  0.78833  0.97070  0.05556  1.0000
  F   F19       1.0  0.71167  0.47070  0.44444  1.0000
  F   F20       1.0  0.28833  0.47070  0.05556  1.0000
  F   F21       1.0  0.78833  0.02930  0.55556  1.0000
  F   F22       1.0  0.21167  0.02930  0.94444  1.0000
  F   F23       1.0  0.28833  0.52930  0.55556  1.0000
  F   F24       1.0  0.71167  0.52930  0.94444  1.0000
  F   F25       1.0  0.20164  0.80800  0.52399  1.0000
  F   F26       1.0  0.79836  0.80800  0.97601  1.0000
  F   F27       1.0  0.70164  0.30800  0.52399  1.0000
  F   F28       1.0  0.29836  0.30800  0.97601  1.0000
  F   F29       1.0  0.79836  0.19200  0.47601  1.0000
  F   F30       1.0  0.20164  0.19200  0.02399  1.0000
  F   F31       1.0  0.29836  0.69200  0.47601  1.0000
  F   F32       1.0  0.70164  0.69200  0.02399  1.0000
  F   F33       1.0  0.16998  0.54950  0.49277  1.0000
  F   F34       1.0  0.83002  0.54950  0.00723  1.0000
  F   F35       1.0  0.66998  0.04950  0.49277  1.0000
  F   F36       1.0  0.33002  0.04950  0.00723  1.0000
  F   F37       1.0  0.83002  0.45050  0.50723  1.0000
  F   F38       1.0  0.16998  0.45050  0.99277  1.0000
  F   F39       1.0  0.33002  0.95050  0.50723  1.0000
  F   F40       1.0  0.66998  0.95050  0.99277  1.0000
  C   C49       1.0  0.10530  0.18120  0.35030  1.0000
  C   C50       1.0  0.89470  0.18120  0.14970  1.0000
  C   C51       1.0  0.60530  0.68120  0.35030  1.0000
  C   C52       1.0  0.39470  0.68120  0.14970  1.0000
  C   C53       1.0  0.89470  0.81880  0.64970  1.0000
  C   C54       1.0  0.10530  0.81880  0.85030  1.0000
  C   C55       1.0  0.39470  0.31880  0.64970  1.0000
  C   C56       1.0  0.60530  0.31880  0.85030  1.0000
  C   C57       1.0  0.10009  0.10370  0.39200  1.0000
  C   C58       1.0  0.89991  0.10370  0.10800  1.0000
  C   C59       1.0  0.60009  0.60370  0.39200  1.0000
  C   C60       1.0  0.39991  0.60370  0.10800  1.0000
  C   C61       1.0  0.89991  0.89630  0.60800  1.0000
  C   C62       1.0  0.10009  0.89630  0.89200  1.0000
  C   C63       1.0  0.39991  0.39630  0.60800  1.0000
  C   C64       1.0  0.60009  0.39630  0.89200  1.0000
  C   C65       1.0  0.08229  0.97210  0.38110  1.0000
  C   C66       1.0  0.91771  0.97210  0.11890  1.0000
  C   C67       1.0  0.58229  0.47210  0.38110  1.0000
  C   C68       1.0  0.41771  0.47210  0.11890  1.0000
  C   C69       1.0  0.91771  0.02790  0.61890  1.0000
  C   C70       1.0  0.08229  0.02790  0.88110  1.0000
  C   C71       1.0  0.41771  0.52790  0.61890  1.0000
  C   C72       1.0  0.58229  0.52790  0.88110  1.0000
  C   C73       1.0  0.06850  0.91180  0.32580  1.0000
  C   C74       1.0  0.93150  0.91180  0.17420  1.0000
  C   C75       1.0  0.56850  0.41180  0.32580  1.0000
  C   C76       1.0  0.43150  0.41180  0.17420  1.0000
  C   C77       1.0  0.93150  0.08820  0.67420  1.0000
  C   C78       1.0  0.06850  0.08820  0.82580  1.0000
  C   C79       1.0  0.43150  0.58820  0.67420  1.0000
  C   C80       1.0  0.56850  0.58820  0.82580  1.0000
  C   C81       1.0  0.07256  0.98190  0.28190  1.0000
  C   C82       1.0  0.92744  0.98190  0.21810  1.0000
  C   C83       1.0  0.57256  0.48190  0.28190  1.0000
  C   C84       1.0  0.42744  0.48190  0.21810  1.0000
  C   C85       1.0  0.92744  0.01810  0.71810  1.0000
  C   C86       1.0  0.07256  0.01810  0.78190  1.0000
  C   C87       1.0  0.42744  0.51810  0.71810  1.0000
  C   C88       1.0  0.57256  0.51810  0.78190  1.0000
  C   C89       1.0  0.09143  0.11280  0.29530  1.0000
  C   C90       1.0  0.90857  0.11280  0.20470  1.0000
  C   C91       1.0  0.59143  0.61280  0.29530  1.0000
  C   C92       1.0  0.40857  0.61280  0.20470  1.0000
  C   C93       1.0  0.90857  0.88720  0.70470  1.0000
  C   C94       1.0  0.09143  0.88720  0.79530  1.0000
  C   C95       1.0  0.40857  0.38720  0.70470  1.0000
  C   C96       1.0  0.59143  0.38720  0.79530  1.0000
  F   F41       1.0  0.11240  0.16020  0.44770  1.0000
  F   F42       1.0  0.88760  0.16020  0.05230  1.0000
  F   F43       1.0  0.61240  0.66020  0.44770  1.0000
  F   F44       1.0  0.38760  0.66020  0.05230  1.0000
  F   F45       1.0  0.88760  0.83980  0.55230  1.0000
  F   F46       1.0  0.11240  0.83980  0.94770  1.0000
  F   F47       1.0  0.38760  0.33980  0.55230  1.0000
  F   F48       1.0  0.61240  0.33980  0.94770  1.0000
  F   F49       1.0  0.07934  0.90190  0.42501  1.0000
  F   F50       1.0  0.92066  0.90190  0.07499  1.0000
  F   F51       1.0  0.57934  0.40190  0.42501  1.0000
  F   F52       1.0  0.42066  0.40190  0.07499  1.0000
  F   F53       1.0  0.92066  0.09810  0.57499  1.0000
  F   F54       1.0  0.07934  0.09810  0.92501  1.0000
  F   F55       1.0  0.42066  0.59810  0.57499  1.0000
  F   F56       1.0  0.57934  0.59810  0.92501  1.0000
  F   F57       1.0  0.05190  0.78160  0.31502  1.0000
  F   F58       1.0  0.94810  0.78160  0.18498  1.0000
  F   F59       1.0  0.55190  0.28160  0.31502  1.0000
  F   F60       1.0  0.44810  0.28160  0.18498  1.0000
  F   F61       1.0  0.94810  0.21840  0.68498  1.0000
  F   F62       1.0  0.05190  0.21840  0.81502  1.0000
  F   F63       1.0  0.44810  0.71840  0.68498  1.0000
  F   F64       1.0  0.55190  0.71840  0.81502  1.0000
  F   F65       1.0  0.05926  0.92210  0.22733  1.0000
  F   F66       1.0  0.94074  0.92210  0.27267  1.0000
  F   F67       1.0  0.55926  0.42210  0.22733  1.0000
  F   F68       1.0  0.44074  0.42210  0.27267  1.0000
  F   F69       1.0  0.94074  0.07790  0.77267  1.0000
  F   F70       1.0  0.05926  0.07790  0.72733  1.0000
  F   F71       1.0  0.44074  0.57790  0.77267  1.0000
  F   F72       1.0  0.55926  0.57790  0.72733  1.0000
  F   F73       1.0  0.09667  0.17370  0.25098  1.0000
  F   F74       1.0  0.90333  0.17370  0.24902  1.0000
  F   F75       1.0  0.59667  0.67370  0.25098  1.0000
  F   F76       1.0  0.40333  0.67370  0.24902  1.0000
  F   F77       1.0  0.90333  0.82630  0.74902  1.0000
  F   F78       1.0  0.09667  0.82630  0.75098  1.0000
  F   F79       1.0  0.40333  0.32630  0.74902  1.0000
  F   F80       1.0  0.59667  0.32630  0.75098  1.0000
