data_image0
_chemical_formula_structural       Zn8O30H4O8H4O6C2H2C2O2C4H2O2C4H2C4H2C6O2C2H2O2C10H2C14H2C14H2C4H2C2H2C2H2C2H2C8H2C4H2C2H2C2H2C8
_chemical_formula_sum              "Zn8 O52 H40 C96"
_cell_length_a       9.5137
_cell_length_b       16.1134
_cell_length_c       27.5845
_cell_angle_alpha    91.802
_cell_angle_beta     91.489
_cell_angle_gamma    94.441

_space_group_name_H-M_alt    "P 1"
_space_group_IT_number       1

loop_
  _space_group_symop_operation_xyz
  'x, y, z'

loop_
  _atom_site_type_symbol
  _atom_site_label
  _atom_site_symmetry_multiplicity
  _atom_site_fract_x
  _atom_site_fract_y
  _atom_site_fract_z
  _atom_site_occupancy
  Zn  Zn1       1.0  0.97161  0.01331  0.15163  1.0000
  Zn  Zn2       1.0  0.02839  0.98669  0.84837  1.0000
  Zn  Zn3       1.0  0.37893  0.46171  0.03075  1.0000
  Zn  Zn4       1.0  0.62107  0.53829  0.96925  1.0000
  Zn  Zn5       1.0  0.12525  0.04650  0.47407  1.0000
  Zn  Zn6       1.0  0.87475  0.95350  0.52593  1.0000
  Zn  Zn7       1.0  0.52723  0.53236  0.34459  1.0000
  Zn  Zn8       1.0  0.47277  0.46764  0.65541  1.0000
  O   O1        1.0  0.40430  0.59245  0.30059  1.0000
  O   O2        1.0  0.59570  0.40755  0.69941  1.0000
  O   O3        1.0  0.30140  0.09479  0.44689  1.0000
  O   O4        1.0  0.69860  0.90521  0.55311  1.0000
  O   O5        1.0  0.57580  0.63457  0.01718  1.0000
  O   O6        1.0  0.42420  0.36543  0.98282  1.0000
  O   O7        1.0  0.94630  0.09313  0.20771  1.0000
  O   O8        1.0  0.05370  0.90687  0.79229  1.0000
  O   O9        1.0  0.20190  0.41608  0.05759  1.0000
  O   O10       1.0  0.79810  0.58392  0.94241  1.0000
  O   O11       1.0  0.54320  0.42824  0.07127  1.0000
  O   O12       1.0  0.45680  0.57176  0.92873  1.0000
  O   O13       1.0  0.40990  0.57762  0.06478  1.0000
  O   O14       1.0  0.59010  0.42238  0.93522  1.0000
  O   O15       1.0  0.10360  0.94803  0.19152  1.0000
  O   O16       1.0  0.89640  0.05197  0.80848  1.0000
  O   O17       1.0  0.54940  0.42708  0.30686  1.0000
  O   O18       1.0  0.45060  0.57292  0.69314  1.0000
  O   O19       1.0  0.69680  0.39143  0.36534  1.0000
  O   O20       1.0  0.30320  0.60857  0.63466  1.0000
  O   O21       1.0  0.84220  0.14432  0.14463  1.0000
  O   O22       1.0  0.15780  0.85568  0.85537  1.0000
  O   O23       1.0  0.71540  0.48034  0.02428  1.0000
  O   O24       1.0  0.28460  0.51966  0.97572  1.0000
  O   O25       1.0  0.26050  0.20671  0.40403  1.0000
  O   O26       1.0  0.73950  0.79329  0.59597  1.0000
  O   O27       1.0  0.90740  0.87055  0.46977  1.0000
  O   O28       1.0  0.09260  0.12945  0.53023  1.0000
  O   O29       1.0  0.41472  0.49200  0.40214  1.0000
  O   O30       1.0  0.58528  0.50800  0.59786  1.0000
  H   H1        1.0  0.47050  0.47740  0.42560  1.0000
  H   H2        1.0  0.52950  0.52260  0.57440  1.0000
  H   H3        1.0  0.35710  0.44870  0.39370  1.0000
  H   H4        1.0  0.64290  0.55130  0.60630  1.0000
  O   O31       1.0  0.78377  0.02565  0.47753  1.0000
  O   O32       1.0  0.21623  0.97435  0.52247  1.0000
  O   O33       1.0  0.79182  0.94879  0.14784  1.0000
  O   O34       1.0  0.20818  0.05121  0.85216  1.0000
  O   O35       1.0  0.95853  0.09179  0.43989  1.0000
  O   O36       1.0  0.04147  0.90821  0.56011  1.0000
  O   O37       1.0  0.12139  0.03816  0.10511  1.0000
  O   O38       1.0  0.87861  0.96184  0.89489  1.0000
  H   H5        1.0  0.20270  0.01370  0.10330  1.0000
  H   H6        1.0  0.79730  0.98630  0.89670  1.0000
  H   H7        1.0  0.12000  0.07590  0.08200  1.0000
  H   H8        1.0  0.88000  0.92410  0.91800  1.0000
  O   O39       1.0  0.66307  0.61560  0.38321  1.0000
  O   O40       1.0  0.33693  0.38440  0.61679  1.0000
  O   O41       1.0  0.23804  0.90137  0.13301  1.0000
  O   O42       1.0  0.76196  0.09863  0.86699  1.0000
  O   O43       1.0  0.83805  0.90373  0.07329  1.0000
  O   O44       1.0  0.16195  0.09627  0.92671  1.0000
  C   C1        1.0  0.08975  0.81644  0.36212  1.0000
  C   C2        1.0  0.91025  0.18356  0.63788  1.0000
  H   H9        1.0  0.16320  0.86000  0.36390  1.0000
  H   H10       1.0  0.83680  0.14000  0.63610  1.0000
  C   C3        1.0  0.81520  0.20980  0.22308  1.0000
  C   C4        1.0  0.18480  0.79020  0.77692  1.0000
  O   O45       1.0  0.73190  0.58713  0.30955  1.0000
  O   O46       1.0  0.26810  0.41287  0.69045  1.0000
  C   C5        1.0  0.87020  0.14620  0.18901  1.0000
  C   C6        1.0  0.12980  0.85380  0.81099  1.0000
  C   C7        1.0  0.16090  0.82490  0.25139  1.0000
  C   C8        1.0  0.83910  0.17510  0.74861  1.0000
  H   H11       1.0  0.08670  0.85980  0.25730  1.0000
  H   H12       1.0  0.91330  0.14020  0.74270  1.0000
  O   O47       1.0  0.33070  0.67635  0.35890  1.0000
  O   O48       1.0  0.66930  0.32365  0.64110  1.0000
  C   C9        1.0  0.83210  0.07520  0.44802  1.0000
  C   C10       1.0  0.16790  0.92480  0.55198  1.0000
  C   C11       1.0  0.73130  0.34380  0.24281  1.0000
  C   C12       1.0  0.26870  0.65620  0.75719  1.0000
  H   H13       1.0  0.71630  0.39890  0.23370  1.0000
  H   H14       1.0  0.28370  0.60110  0.76630  1.0000
  C   C13       1.0  0.64380  0.38320  0.32376  1.0000
  C   C14       1.0  0.35620  0.61680  0.67624  1.0000
  C   C15       1.0  0.77940  0.18550  0.26944  1.0000
  C   C16       1.0  0.22060  0.81450  0.73056  1.0000
  H   H15       1.0  0.79680  0.13080  0.27870  1.0000
  H   H16       1.0  0.20320  0.86920  0.72130  1.0000
  C   C17       1.0  0.83410  0.32450  0.16145  1.0000
  C   C18       1.0  0.16590  0.67550  0.83855  1.0000
  C   C19       1.0  0.33790  0.15350  0.41934  1.0000
  C   C20       1.0  0.66210  0.84650  0.58066  1.0000
  C   C21       1.0  0.72720  0.11910  0.41875  1.0000
  C   C22       1.0  0.27280  0.88090  0.58125  1.0000
  O   O49       1.0  0.24990  0.32219  0.11322  1.0000
  O   O50       1.0  0.75010  0.67781  0.88678  1.0000
  C   C23       1.0  0.58740  0.11540  0.43110  1.0000
  C   C24       1.0  0.41260  0.88460  0.56890  1.0000
  H   H17       1.0  0.55700  0.08330  0.45780  1.0000
  H   H18       1.0  0.44300  0.91670  0.54220  1.0000
  O   O51       1.0  0.07890  0.94030  0.43218  1.0000
  O   O52       1.0  0.92110  0.05970  0.56782  1.0000
  C   C25       1.0  0.30030  0.71510  0.27762  1.0000
  C   C26       1.0  0.69970  0.28490  0.72238  1.0000
  C   C27       1.0  0.71920  0.23740  0.30268  1.0000
  C   C28       1.0  0.28080  0.76260  0.69732  1.0000
  C   C29       1.0  0.23690  0.83590  0.20964  1.0000
  C   C30       1.0  0.76310  0.16410  0.79036  1.0000
  C   C31       1.0  0.16930  0.36620  0.09127  1.0000
  C   C32       1.0  0.83070  0.63380  0.90873  1.0000
  C   C33       1.0  0.97280  0.32430  0.14692  1.0000
  C   C34       1.0  0.02720  0.67570  0.85308  1.0000
  H   H19       1.0  0.03890  0.29730  0.16600  1.0000
  H   H20       1.0  0.96110  0.70270  0.83400  1.0000
  C   C35       1.0  0.79060  0.29090  0.20932  1.0000
  C   C36       1.0  0.20940  0.70910  0.79068  1.0000
  C   C37       1.0  0.34630  0.78380  0.20119  1.0000
  C   C38       1.0  0.65370  0.21620  0.79881  1.0000
  C   C39       1.0  0.34770  0.65690  0.31564  1.0000
  C   C40       1.0  0.65230  0.34310  0.68436  1.0000
  C   C41       1.0  0.51000  0.71220  0.08613  1.0000
  C   C42       1.0  0.49000  0.28780  0.91387  1.0000
  C   C43       1.0  0.08690  0.75580  0.32519  1.0000
  C   C44       1.0  0.91310  0.24420  0.67481  1.0000
  C   C45       1.0  0.67090  0.43961  0.05946  1.0000
  C   C46       1.0  0.32910  0.56039  0.94054  1.0000
  C   C47       1.0  0.76960  0.16200  0.37761  1.0000
  C   C48       1.0  0.23040  0.83800  0.62239  1.0000
  H   H21       1.0  0.86530  0.16350  0.36840  1.0000
  H   H22       1.0  0.13470  0.83650  0.63160  1.0000
  C   C49       1.0  0.69310  0.31930  0.28908  1.0000
  C   C50       1.0  0.30690  0.68070  0.71092  1.0000
  C   C51       1.0  0.76470  0.90190  0.11010  1.0000
  C   C52       1.0  0.23530  0.09810  0.88990  1.0000
  C   C53       1.0  0.01650  0.36330  0.10474  1.0000
  C   C54       1.0  0.98350  0.63670  0.89526  1.0000
  C   C55       1.0  0.77710  0.39940  0.08987  1.0000
  C   C56       1.0  0.22290  0.60060  0.91013  1.0000
  C   C57       1.0  0.48990  0.15800  0.40495  1.0000
  C   C58       1.0  0.51010  0.84200  0.59505  1.0000
  C   C59       1.0  0.18780  0.76550  0.28502  1.0000
  C   C60       1.0  0.81220  0.23450  0.71498  1.0000
  C   C61       1.0  0.91730  0.40180  0.07677  1.0000
  C   C62       1.0  0.08270  0.59820  0.92323  1.0000
  H   H23       1.0  0.94600  0.42990  0.04850  1.0000
  H   H24       1.0  0.05400  0.57010  0.95150  1.0000
  C   C63       1.0  0.67340  0.20260  0.35002  1.0000
  C   C64       1.0  0.32660  0.79740  0.64998  1.0000
  C   C65       1.0  0.87550  0.75110  0.39337  1.0000
  C   C66       1.0  0.12450  0.24890  0.60663  1.0000
  H   H25       1.0  0.80290  0.74970  0.41640  1.0000
  H   H26       1.0  0.19710  0.25030  0.58360  1.0000
  C   C67       1.0  0.42100  0.71780  0.12460  1.0000
  C   C68       1.0  0.57900  0.28220  0.87540  1.0000
  H   H27       1.0  0.34830  0.67500  0.12880  1.0000
  H   H28       1.0  0.65170  0.32500  0.87120  1.0000
  C   C69       1.0  0.62020  0.77390  0.08004  1.0000
  C   C70       1.0  0.37980  0.22610  0.91996  1.0000
  H   H29       1.0  0.68160  0.76980  0.05360  1.0000
  H   H30       1.0  0.31840  0.23020  0.94640  1.0000
  C   C71       1.0  0.73490  0.36060  0.13267  1.0000
  C   C72       1.0  0.26510  0.63940  0.86733  1.0000
  H   H31       1.0  0.63920  0.35910  0.14190  1.0000
  H   H32       1.0  0.36080  0.64090  0.85810  1.0000
  C   C73       1.0  0.49670  0.63530  0.05344  1.0000
  C   C74       1.0  0.50330  0.36470  0.94656  1.0000
  C   C75       1.0  0.99110  0.88150  0.43612  1.0000
  C   C76       1.0  0.00890  0.11850  0.56388  1.0000
  C   C77       1.0  0.98450  0.81360  0.39679  1.0000
  C   C78       1.0  0.01550  0.18640  0.60321  1.0000
  C   C79       1.0  0.37630  0.72510  0.23553  1.0000
  C   C80       1.0  0.62370  0.27490  0.76447  1.0000
  H   H33       1.0  0.45140  0.69080  0.22990  1.0000
  H   H34       1.0  0.54860  0.30920  0.77010  1.0000
  C   C81       1.0  0.63840  0.84160  0.11338  1.0000
  C   C82       1.0  0.36160  0.15840  0.88662  1.0000
  C   C83       1.0  0.54500  0.84680  0.15170  1.0000
  C   C84       1.0  0.45500  0.15320  0.84830  1.0000
  H   H35       1.0  0.55630  0.89300  0.17410  1.0000
  H   H36       1.0  0.44370  0.10700  0.82590  1.0000
  C   C85       1.0  0.53390  0.20300  0.36475  1.0000
  C   C86       1.0  0.46610  0.79700  0.63525  1.0000
  H   H37       1.0  0.46900  0.23380  0.34750  1.0000
  H   H38       1.0  0.53100  0.76620  0.65250  1.0000
  C   C87       1.0  0.97920  0.69340  0.32265  1.0000
  C   C88       1.0  0.02080  0.30660  0.67735  1.0000
  H   H39       1.0  0.97790  0.65160  0.29750  1.0000
  H   H40       1.0  0.02210  0.34840  0.70250  1.0000
  C   C89       1.0  0.74930  0.62630  0.34867  1.0000
  C   C90       1.0  0.25070  0.37370  0.65133  1.0000
  C   C91       1.0  0.87260  0.69050  0.35615  1.0000
  C   C92       1.0  0.12740  0.30950  0.64385  1.0000
  C   C93       1.0  0.43680  0.78590  0.15751  1.0000
  C   C94       1.0  0.56320  0.21410  0.84249  1.0000
  C   C95       1.0  0.19160  0.89940  0.17470  1.0000
  C   C96       1.0  0.80840  0.10060  0.82530  1.0000
