data_image0
_chemical_formula_structural       Ag4O4H2O12C8H2C8H2C4
_chemical_formula_sum              "Ag4 O16 H6 C20"
_cell_length_a       9.7192
_cell_length_b       9.9936
_cell_length_c       10.4968
_cell_angle_alpha    113.304
_cell_angle_beta     97.14
_cell_angle_gamma    103.26

_space_group_name_H-M_alt    "P 1"
_space_group_IT_number       1

loop_
  _space_group_symop_operation_xyz
  'x, y, z'

loop_
  _atom_site_type_symbol
  _atom_site_label
  _atom_site_symmetry_multiplicity
  _atom_site_fract_x
  _atom_site_fract_y
  _atom_site_fract_z
  _atom_site_occupancy
  Ag  Ag1       1.0  0.42140  0.41098  0.80268  1.0000
  Ag  Ag2       1.0  0.57860  0.58902  0.19732  1.0000
  Ag  Ag3       1.0  0.42139  0.38565  0.29060  1.0000
  Ag  Ag4       1.0  0.57861  0.61435  0.70940  1.0000
  O   O1        1.0  0.22857  0.20334  0.81649  1.0000
  O   O2        1.0  0.77143  0.79666  0.18351  1.0000
  O   O3        1.0  0.10698  0.95533  0.71974  1.0000
  O   O4        1.0  0.89302  0.04467  0.28026  1.0000
  H   H1        1.0  0.03640  0.98740  0.72200  1.0000
  H   H2        1.0  0.96360  0.01260  0.27800  1.0000
  O   O5        1.0  0.57621  0.37804  0.02125  1.0000
  O   O6        1.0  0.42379  0.62196  0.97875  1.0000
  O   O7        1.0  0.42520  0.21751  0.07819  1.0000
  O   O8        1.0  0.57480  0.78249  0.92181  1.0000
  O   O9        1.0  0.41174  0.60358  0.45762  1.0000
  O   O10       1.0  0.58826  0.39642  0.54238  1.0000
  O   O11       1.0  0.56360  0.76054  0.39821  1.0000
  O   O12       1.0  0.43640  0.23946  0.60179  1.0000
  O   O13       1.0  0.75751  0.78688  0.65497  1.0000
  O   O14       1.0  0.24249  0.21312  0.34503  1.0000
  O   O15       1.0  0.87465  0.03113  0.72140  1.0000
  O   O16       1.0  0.12535  0.96887  0.27860  1.0000
  C   C1        1.0  0.22650  0.07020  0.76850  1.0000
  C   C2        1.0  0.77350  0.92980  0.23150  1.0000
  C   C3        1.0  0.49770  0.24870  0.99850  1.0000
  C   C4        1.0  0.50230  0.75130  0.00150  1.0000
  C   C5        1.0  0.49300  0.11810  0.86000  1.0000
  C   C6        1.0  0.50700  0.88190  0.14000  1.0000
  C   C7        1.0  0.36280  0.90040  0.63550  1.0000
  C   C8        1.0  0.63720  0.09960  0.36450  1.0000
  H   H3        1.0  0.27550  0.83830  0.56840  1.0000
  H   H4        1.0  0.72450  0.16170  0.43160  1.0000
  C   C9        1.0  0.36270  0.02510  0.75700  1.0000
  C   C10       1.0  0.63730  0.97490  0.24300  1.0000
  C   C11       1.0  0.62230  0.96230  0.71280  1.0000
  C   C12       1.0  0.37770  0.03770  0.28720  1.0000
  C   C13       1.0  0.49130  0.86680  0.61210  1.0000
  C   C14       1.0  0.50870  0.13320  0.38790  1.0000
  C   C15       1.0  0.62180  0.08620  0.83480  1.0000
  C   C16       1.0  0.37820  0.91380  0.16520  1.0000
  H   H5        1.0  0.70930  0.14930  0.90120  1.0000
  H   H6        1.0  0.29070  0.85070  0.09880  1.0000
  C   C17       1.0  0.48880  0.73270  0.47750  1.0000
  C   C18       1.0  0.51120  0.26730  0.52250  1.0000
  C   C19       1.0  0.76170  0.92350  0.69390  1.0000
  C   C20       1.0  0.23830  0.07650  0.30610  1.0000
