data_image0
_chemical_formula_structural       Li4Fe4C8O16C8O16C8O20H8
_chemical_formula_sum              "Li4 Fe4 C24 O52 H8"
_cell_length_a       8.7086
_cell_length_b       37.248
_cell_length_c       22.1051
_cell_angle_alpha    90
_cell_angle_beta     90.193
_cell_angle_gamma    90

_space_group_name_H-M_alt    "P 1"
_space_group_IT_number       1

loop_
  _space_group_symop_operation_xyz
  'x, y, z'

loop_
  _atom_site_type_symbol
  _atom_site_label
  _atom_site_symmetry_multiplicity
  _atom_site_fract_x
  _atom_site_fract_y
  _atom_site_fract_z
  _atom_site_occupancy
  Li  Li1       1.0  0.37600  0.74990  0.86660  1.0000
  Li  Li2       1.0  0.12400  0.24990  0.63340  1.0000
  Li  Li3       1.0  0.62400  0.25010  0.13340  1.0000
  Li  Li4       1.0  0.87600  0.75010  0.36660  1.0000
  Fe  Fe1       1.0  0.87260  0.75027  0.72824  1.0000
  Fe  Fe2       1.0  0.62740  0.25027  0.77176  1.0000
  Fe  Fe3       1.0  0.12740  0.24973  0.27176  1.0000
  Fe  Fe4       1.0  0.37260  0.74973  0.22824  1.0000
  C   C1        1.0  0.14400  0.73260  0.78790  1.0000
  C   C2        1.0  0.35600  0.23260  0.71210  1.0000
  C   C3        1.0  0.85600  0.26740  0.21210  1.0000
  C   C4        1.0  0.64400  0.76740  0.28790  1.0000
  C   C5        1.0  0.09280  0.76890  0.81650  1.0000
  C   C6        1.0  0.40720  0.26890  0.68350  1.0000
  C   C7        1.0  0.90720  0.23110  0.18350  1.0000
  C   C8        1.0  0.59280  0.73110  0.31650  1.0000
  O   O1        1.0  0.06640  0.72264  0.74210  1.0000
  O   O2        1.0  0.43360  0.22264  0.75790  1.0000
  O   O3        1.0  0.93360  0.27736  0.25790  1.0000
  O   O4        1.0  0.56640  0.77736  0.24210  1.0000
  O   O5        1.0  0.97440  0.78197  0.79260  1.0000
  O   O6        1.0  0.52560  0.28197  0.70740  1.0000
  O   O7        1.0  0.02560  0.21803  0.20740  1.0000
  O   O8        1.0  0.47440  0.71803  0.29260  1.0000
  O   O9        1.0  0.16980  0.78130  0.85690  1.0000
  O   O10       1.0  0.33020  0.28130  0.64310  1.0000
  O   O11       1.0  0.83020  0.21870  0.14310  1.0000
  O   O12       1.0  0.66980  0.71870  0.35690  1.0000
  O   O13       1.0  0.25520  0.71630  0.81010  1.0000
  O   O14       1.0  0.24480  0.21630  0.68990  1.0000
  O   O15       1.0  0.74480  0.28370  0.18990  1.0000
  O   O16       1.0  0.75520  0.78370  0.31010  1.0000
  C   C9        1.0  0.83410  0.73340  0.60600  1.0000
  C   C10       1.0  0.66590  0.23340  0.89400  1.0000
  C   C11       1.0  0.16590  0.26660  0.39400  1.0000
  C   C12       1.0  0.33410  0.76660  0.10600  1.0000
  C   C13       1.0  0.92810  0.76980  0.60790  1.0000
  C   C14       1.0  0.57190  0.26980  0.89210  1.0000
  C   C15       1.0  0.07190  0.23020  0.39210  1.0000
  C   C16       1.0  0.42810  0.73020  0.10790  1.0000
  O   O17       1.0  0.80310  0.72068  0.65790  1.0000
  O   O18       1.0  0.69690  0.22068  0.84210  1.0000
  O   O19       1.0  0.19690  0.27932  0.34210  1.0000
  O   O20       1.0  0.30310  0.77932  0.15790  1.0000
  O   O21       1.0  0.94580  0.78110  0.66180  1.0000
  O   O22       1.0  0.55420  0.28110  0.83820  1.0000
  O   O23       1.0  0.05420  0.21890  0.33820  1.0000
  O   O24       1.0  0.44580  0.71890  0.16180  1.0000
  O   O25       1.0  0.97390  0.78470  0.56170  1.0000
  O   O26       1.0  0.52610  0.28470  0.93830  1.0000
  O   O27       1.0  0.02610  0.21530  0.43830  1.0000
  O   O28       1.0  0.47390  0.71530  0.06170  1.0000
  O   O29       1.0  0.79650  0.71980  0.55720  1.0000
  O   O30       1.0  0.70350  0.21980  0.94280  1.0000
  O   O31       1.0  0.20350  0.28020  0.44280  1.0000
  O   O32       1.0  0.29650  0.78020  0.05720  1.0000
  C   C17       1.0  0.65100  0.73080  0.81170  1.0000
  C   C18       1.0  0.84900  0.23080  0.68830  1.0000
  C   C19       1.0  0.34900  0.26920  0.18830  1.0000
  C   C20       1.0  0.15100  0.76920  0.31170  1.0000
  C   C21       1.0  0.59690  0.76670  0.78530  1.0000
  C   C22       1.0  0.90310  0.26670  0.71470  1.0000
  C   C23       1.0  0.40310  0.23330  0.21470  1.0000
  C   C24       1.0  0.09690  0.73330  0.28530  1.0000
  O   O33       1.0  0.77120  0.71748  0.78960  1.0000
  O   O34       1.0  0.72880  0.21748  0.71040  1.0000
  O   O35       1.0  0.22880  0.28252  0.21040  1.0000
  O   O36       1.0  0.27120  0.78252  0.28960  1.0000
  O   O37       1.0  0.67810  0.77712  0.73990  1.0000
  O   O38       1.0  0.82190  0.27712  0.76010  1.0000
  O   O39       1.0  0.32190  0.22288  0.26010  1.0000
  O   O40       1.0  0.17810  0.72288  0.23990  1.0000
  O   O41       1.0  0.48590  0.78220  0.80570  1.0000
  O   O42       1.0  0.01410  0.28220  0.69430  1.0000
  O   O43       1.0  0.51410  0.21780  0.19430  1.0000
  O   O44       1.0  0.98590  0.71780  0.30570  1.0000
  O   O45       1.0  0.57410  0.71760  0.85350  1.0000
  O   O46       1.0  0.92590  0.21760  0.64650  1.0000
  O   O47       1.0  0.42590  0.28240  0.14650  1.0000
  O   O48       1.0  0.07410  0.78240  0.35350  1.0000
  O   O49       1.0  0.39280  0.74920  0.95150  1.0000
  O   O50       1.0  0.10720  0.24920  0.54850  1.0000
  O   O51       1.0  0.60720  0.25080  0.04850  1.0000
  O   O52       1.0  0.89280  0.75080  0.45150  1.0000
  H   H1        1.0  0.31880  0.74950  0.97650  1.0000
  H   H2        1.0  0.18120  0.24950  0.52350  1.0000
  H   H3        1.0  0.68120  0.25050  0.02350  1.0000
  H   H4        1.0  0.81880  0.75050  0.47650  1.0000
  H   H5        1.0  0.47390  0.75110  0.97280  1.0000
  H   H6        1.0  0.02610  0.25110  0.52720  1.0000
  H   H7        1.0  0.52610  0.24890  0.02720  1.0000
  H   H8        1.0  0.97390  0.74890  0.47280  1.0000
