data_image0
_chemical_formula_structural       O24C12Sc3
_chemical_formula_sum              "O24 C12 Sc3"
_cell_length_a       9.0093
_cell_length_b       9.0093
_cell_length_c       11.2503
_cell_angle_alpha    90
_cell_angle_beta     90
_cell_angle_gamma    120

_space_group_name_H-M_alt    "P 1"
_space_group_IT_number       1

loop_
  _space_group_symop_operation_xyz
  'x, y, z'

loop_
  _atom_site_type_symbol
  _atom_site_label
  _atom_site_symmetry_multiplicity
  _atom_site_fract_x
  _atom_site_fract_y
  _atom_site_fract_z
  _atom_site_occupancy
  O   O1        1.0  0.34250  0.07140  0.10310  1.0000
  O   O2        1.0  0.65750  0.92860  0.10310  1.0000
  O   O3        1.0  0.72890  0.65750  0.43643  1.0000
  O   O4        1.0  0.72890  0.07140  0.89690  1.0000
  O   O5        1.0  0.92860  0.65750  0.56357  1.0000
  O   O6        1.0  0.92860  0.27110  0.76977  1.0000
  O   O7        1.0  0.07140  0.72890  0.76977  1.0000
  O   O8        1.0  0.07140  0.34250  0.56357  1.0000
  O   O9        1.0  0.27110  0.92860  0.89690  1.0000
  O   O10       1.0  0.27110  0.34250  0.43643  1.0000
  O   O11       1.0  0.65750  0.72890  0.23023  1.0000
  O   O12       1.0  0.34250  0.27110  0.23023  1.0000
  O   O13       1.0  0.68330  0.44370  0.22520  1.0000
  O   O14       1.0  0.31670  0.55630  0.22520  1.0000
  O   O15       1.0  0.76040  0.31670  0.55853  1.0000
  O   O16       1.0  0.76040  0.44370  0.77480  1.0000
  O   O17       1.0  0.55630  0.31670  0.44147  1.0000
  O   O18       1.0  0.55630  0.23960  0.89187  1.0000
  O   O19       1.0  0.44370  0.76040  0.89187  1.0000
  O   O20       1.0  0.44370  0.68330  0.44147  1.0000
  O   O21       1.0  0.23960  0.55630  0.77480  1.0000
  O   O22       1.0  0.23960  0.68330  0.55853  1.0000
  O   O23       1.0  0.31670  0.76040  0.10813  1.0000
  O   O24       1.0  0.68330  0.23960  0.10813  1.0000
  C   C1        1.0  0.40590  0.20290  0.16667  1.0000
  C   C2        1.0  0.59410  0.79710  0.16667  1.0000
  C   C3        1.0  0.79700  0.59410  0.50000  1.0000
  C   C4        1.0  0.79700  0.20290  0.83333  1.0000
  C   C5        1.0  0.20290  0.79700  0.83334  1.0000
  C   C6        1.0  0.20290  0.40590  0.50000  1.0000
  C   C7        1.0  0.60470  0.30240  0.16667  1.0000
  C   C8        1.0  0.39530  0.69760  0.16667  1.0000
  C   C9        1.0  0.69770  0.39530  0.50000  1.0000
  C   C10       1.0  0.69770  0.30240  0.83333  1.0000
  C   C11       1.0  0.30240  0.69770  0.83334  1.0000
  C   C12       1.0  0.30240  0.60470  0.50000  1.0000
  Sc  Sc1       1.0  0.50000  0.00000  0.00000  1.0000
  Sc  Sc2       1.0  0.50000  0.50000  0.33333  1.0000
  Sc  Sc3       1.0  1.00000  0.50000  0.66667  1.0000
