data_image0
_chemical_formula_structural       N8Cd4C8N4C8N24C8
_chemical_formula_sum              "N36 Cd4 C24"
_cell_length_a       7.7042
_cell_length_b       14.457
_cell_length_c       17.549
_cell_angle_alpha    90
_cell_angle_beta     90
_cell_angle_gamma    90

_space_group_name_H-M_alt    "P 1"
_space_group_IT_number       1

loop_
  _space_group_symop_operation_xyz
  'x, y, z'

loop_
  _atom_site_type_symbol
  _atom_site_label
  _atom_site_symmetry_multiplicity
  _atom_site_fract_x
  _atom_site_fract_y
  _atom_site_fract_z
  _atom_site_occupancy
  N   N1        1.0  0.48680  0.15380  0.56280  1.0000
  N   N2        1.0  0.51320  0.84620  0.06280  1.0000
  N   N3        1.0  0.51320  0.65380  0.93720  1.0000
  N   N4        1.0  0.48680  0.34620  0.43720  1.0000
  N   N5        1.0  0.51320  0.84620  0.43720  1.0000
  N   N6        1.0  0.48680  0.15380  0.93720  1.0000
  N   N7        1.0  0.48680  0.34620  0.06280  1.0000
  N   N8        1.0  0.51320  0.65380  0.56280  1.0000
  Cd  Cd1       1.0  0.00000  0.00000  0.50000  1.0000
  Cd  Cd2       1.0  0.00000  0.00000  0.00000  1.0000
  Cd  Cd3       1.0  0.00000  0.50000  0.00000  1.0000
  Cd  Cd4       1.0  0.00000  0.50000  0.50000  1.0000
  C   C1        1.0  0.89720  0.04520  0.31470  1.0000
  C   C2        1.0  0.10280  0.95480  0.81470  1.0000
  C   C3        1.0  0.10280  0.54520  0.18530  1.0000
  C   C4        1.0  0.89720  0.45480  0.68530  1.0000
  C   C5        1.0  0.10280  0.95480  0.68530  1.0000
  C   C6        1.0  0.89720  0.04520  0.18530  1.0000
  C   C7        1.0  0.89720  0.45480  0.81470  1.0000
  C   C8        1.0  0.10280  0.54520  0.31470  1.0000
  N   N9        1.0  0.83100  0.06750  0.25000  1.0000
  N   N10       1.0  0.16900  0.93250  0.75000  1.0000
  N   N11       1.0  0.16900  0.56750  0.25000  1.0000
  N   N12       1.0  0.83100  0.43250  0.75000  1.0000
  C   C9        1.0  0.63570  0.12310  0.54380  1.0000
  C   C10       1.0  0.36430  0.87690  0.04380  1.0000
  C   C11       1.0  0.36430  0.62310  0.95620  1.0000
  C   C12       1.0  0.63570  0.37690  0.45620  1.0000
  C   C13       1.0  0.36430  0.87690  0.45620  1.0000
  C   C14       1.0  0.63570  0.12310  0.95620  1.0000
  C   C15       1.0  0.63570  0.37690  0.04380  1.0000
  C   C16       1.0  0.36430  0.62310  0.54380  1.0000
  N   N13       1.0  0.20990  0.11650  0.50820  1.0000
  N   N14       1.0  0.79010  0.88350  0.00820  1.0000
  N   N15       1.0  0.79010  0.61650  0.99180  1.0000
  N   N16       1.0  0.20990  0.38350  0.49180  1.0000
  N   N17       1.0  0.79010  0.88350  0.49180  1.0000
  N   N18       1.0  0.20990  0.11650  0.99180  1.0000
  N   N19       1.0  0.20990  0.38350  0.00820  1.0000
  N   N20       1.0  0.79010  0.61650  0.50820  1.0000
  N   N21       1.0  0.77430  0.10090  0.53570  1.0000
  N   N22       1.0  0.22570  0.89910  0.03570  1.0000
  N   N23       1.0  0.22570  0.60090  0.96430  1.0000
  N   N24       1.0  0.77430  0.39910  0.46430  1.0000
  N   N25       1.0  0.22570  0.89910  0.46430  1.0000
  N   N26       1.0  0.77430  0.10090  0.96430  1.0000
  N   N27       1.0  0.77430  0.39910  0.03570  1.0000
  N   N28       1.0  0.22570  0.60090  0.53570  1.0000
  N   N29       1.0  0.94640  0.03130  0.37423  1.0000
  N   N30       1.0  0.05360  0.96870  0.87423  1.0000
  N   N31       1.0  0.05360  0.53130  0.12577  1.0000
  N   N32       1.0  0.94640  0.46870  0.62577  1.0000
  N   N33       1.0  0.05360  0.96870  0.62577  1.0000
  N   N34       1.0  0.94640  0.03130  0.12577  1.0000
  N   N35       1.0  0.94640  0.46870  0.87423  1.0000
  N   N36       1.0  0.05360  0.53130  0.37423  1.0000
  C   C17       1.0  0.34330  0.13080  0.53050  1.0000
  C   C18       1.0  0.65670  0.86920  0.03050  1.0000
  C   C19       1.0  0.65670  0.63080  0.96950  1.0000
  C   C20       1.0  0.34330  0.36920  0.46950  1.0000
  C   C21       1.0  0.65670  0.86920  0.46950  1.0000
  C   C22       1.0  0.34330  0.13080  0.96950  1.0000
  C   C23       1.0  0.34330  0.36920  0.03050  1.0000
  C   C24       1.0  0.65670  0.63080  0.53050  1.0000
