data_image0
_chemical_formula_structural       CdS2O2H4O8N2C2H2C2H2C4H2C2H2
_chemical_formula_sum              "Cd1 S2 O10 H12 N2 C10"
_cell_length_a       7.015
_cell_length_b       9.4166
_cell_length_c       10.02
_cell_angle_alpha    74.69
_cell_angle_beta     88.95
_cell_angle_gamma    77.89

_space_group_name_H-M_alt    "P 1"
_space_group_IT_number       1

loop_
  _space_group_symop_operation_xyz
  'x, y, z'

loop_
  _atom_site_type_symbol
  _atom_site_label
  _atom_site_symmetry_multiplicity
  _atom_site_fract_x
  _atom_site_fract_y
  _atom_site_fract_z
  _atom_site_occupancy
  Cd  Cd1       1.0  0.00000  0.00000  0.00000  1.0000
  S   S1        1.0  0.29197  0.15768  0.17257  1.0000
  S   S2        1.0  0.70803  0.84232  0.82743  1.0000
  O   O1        1.0  0.19450  0.84005  0.88546  1.0000
  O   O2        1.0  0.80550  0.15995  0.11454  1.0000
  H   H1        1.0  0.13600  0.83300  0.82500  1.0000
  H   H2        1.0  0.86400  0.16700  0.17500  1.0000
  H   H3        1.0  0.29000  0.86800  0.84300  1.0000
  H   H4        1.0  0.71000  0.13200  0.15700  1.0000
  O   O3        1.0  0.25610  0.08582  0.06347  1.0000
  O   O4        1.0  0.74390  0.91418  0.93653  1.0000
  O   O5        1.0  0.30550  0.31472  0.10627  1.0000
  O   O6        1.0  0.69450  0.68528  0.89373  1.0000
  O   O7        1.0  0.13440  0.15595  0.27022  1.0000
  O   O8        1.0  0.86560  0.84405  0.72978  1.0000
  O   O9        1.0  0.47990  0.07560  0.24417  1.0000
  O   O10       1.0  0.52010  0.92440  0.75583  1.0000
  N   N1        1.0  0.02960  0.79779  0.20108  1.0000
  N   N2        1.0  0.97040  0.20221  0.79892  1.0000
  C   C1        1.0  0.05380  0.65520  0.19390  1.0000
  C   C2        1.0  0.94620  0.34480  0.80610  1.0000
  H   H5        1.0  0.07660  0.63560  0.10810  1.0000
  H   H6        1.0  0.92340  0.36440  0.89190  1.0000
  C   C3        1.0  0.04660  0.53560  0.30742  1.0000
  C   C4        1.0  0.95340  0.46440  0.69258  1.0000
  H   H7        1.0  0.06720  0.43810  0.29750  1.0000
  H   H8        1.0  0.93280  0.56190  0.70250  1.0000
  C   C5        1.0  0.00800  0.56194  0.43746  1.0000
  C   C6        1.0  0.99200  0.43806  0.56254  1.0000
  C   C7        1.0  0.98720  0.71020  0.44466  1.0000
  C   C8        1.0  0.01280  0.28980  0.55534  1.0000
  H   H9        1.0  0.96530  0.73340  0.52900  1.0000
  H   H10       1.0  0.03470  0.26660  0.47100  1.0000
  C   C9        1.0  0.99940  0.82240  0.32630  1.0000
  C   C10       1.0  0.00060  0.17760  0.67370  1.0000
  H   H11       1.0  0.98600  0.92040  0.33380  1.0000
  H   H12       1.0  0.01400  0.07960  0.66620  1.0000
