data_image0
_chemical_formula_structural       C84N40S24Mo4Ni4H88
_chemical_formula_sum              "C84 N40 S24 Mo4 Ni4 H88"
_cell_length_a       14.6508
_cell_length_b       28.7479
_cell_length_c       12.4509
_cell_angle_alpha    90
_cell_angle_beta     108.009
_cell_angle_gamma    90

_space_group_name_H-M_alt    "P 1"
_space_group_IT_number       1

loop_
  _space_group_symop_operation_xyz
  'x, y, z'

loop_
  _atom_site_type_symbol
  _atom_site_label
  _atom_site_symmetry_multiplicity
  _atom_site_fract_x
  _atom_site_fract_y
  _atom_site_fract_z
  _atom_site_occupancy
  C   C1        1.0  0.25720  0.62160  0.89130  1.0000
  C   C2        1.0  0.74280  0.12160  0.60870  1.0000
  C   C3        1.0  0.74280  0.37840  0.10870  1.0000
  C   C4        1.0  0.25720  0.87840  0.39130  1.0000
  C   C5        1.0  0.08750  0.61470  0.34360  1.0000
  C   C6        1.0  0.91250  0.11470  0.15640  1.0000
  C   C7        1.0  0.91250  0.38530  0.65640  1.0000
  C   C8        1.0  0.08750  0.88530  0.84360  1.0000
  C   C9        1.0  0.32150  0.53270  0.62850  1.0000
  C   C10       1.0  0.67850  0.03270  0.87150  1.0000
  C   C11       1.0  0.67850  0.46730  0.37150  1.0000
  C   C12       1.0  0.32150  0.96730  0.12850  1.0000
  C   C13       1.0  0.31790  0.69460  0.61420  1.0000
  C   C14       1.0  0.68210  0.19460  0.88580  1.0000
  C   C15       1.0  0.68210  0.30540  0.38580  1.0000
  C   C16       1.0  0.31790  0.80540  0.11420  1.0000
  C   C17       1.0  0.99390  0.68640  0.61250  1.0000
  C   C18       1.0  0.00610  0.18640  0.88750  1.0000
  C   C19       1.0  0.00610  0.31360  0.38750  1.0000
  C   C20       1.0  0.99390  0.81360  0.11250  1.0000
  C   C21       1.0  0.99150  0.54150  0.61700  1.0000
  C   C22       1.0  0.00850  0.04150  0.88300  1.0000
  C   C23       1.0  0.00850  0.45850  0.38300  1.0000
  C   C24       1.0  0.99150  0.95850  0.11700  1.0000
  C   C25       1.0  0.20000  0.52800  0.12320  1.0000
  C   C26       1.0  0.80000  0.02800  0.37680  1.0000
  C   C27       1.0  0.80000  0.47200  0.87680  1.0000
  C   C28       1.0  0.20000  0.97200  0.62320  1.0000
  C   C29       1.0  0.27200  0.54420  0.23850  1.0000
  C   C30       1.0  0.72800  0.04420  0.26150  1.0000
  C   C31       1.0  0.72800  0.45580  0.76150  1.0000
  C   C32       1.0  0.27200  0.95580  0.73850  1.0000
  C   C33       1.0  0.33610  0.60790  0.35650  1.0000
  C   C34       1.0  0.66390  0.10790  0.14350  1.0000
  C   C35       1.0  0.66390  0.39210  0.64350  1.0000
  C   C36       1.0  0.33610  0.89210  0.85650  1.0000
  C   C37       1.0  0.35670  0.65940  0.34730  1.0000
  C   C38       1.0  0.64330  0.15940  0.15270  1.0000
  C   C39       1.0  0.64330  0.34060  0.65270  1.0000
  C   C40       1.0  0.35670  0.84060  0.84730  1.0000
  C   C41       1.0  0.27120  0.69160  0.30630  1.0000
  C   C42       1.0  0.72880  0.19160  0.19370  1.0000
  C   C43       1.0  0.72880  0.30840  0.69370  1.0000
  C   C44       1.0  0.27120  0.80840  0.80630  1.0000
  C   C45       1.0  0.14880  0.72390  0.14170  1.0000
  C   C46       1.0  0.85120  0.22390  0.35830  1.0000
  C   C47       1.0  0.85120  0.27610  0.85830  1.0000
  C   C48       1.0  0.14880  0.77610  0.64170  1.0000
  C   C49       1.0  0.11420  0.72560  0.01110  1.0000
  C   C50       1.0  0.88580  0.22560  0.48890  1.0000
  C   C51       1.0  0.88580  0.27440  0.98890  1.0000
  C   C52       1.0  0.11420  0.77440  0.51110  1.0000
  C   C53       1.0  0.04380  0.68790  0.95410  1.0000
  C   C54       1.0  0.95620  0.18790  0.54590  1.0000
  C   C55       1.0  0.95620  0.31210  0.04590  1.0000
  C   C56       1.0  0.04380  0.81210  0.45410  1.0000
  C   C57       1.0  0.04210  0.60510  0.92220  1.0000
  C   C58       1.0  0.95790  0.10510  0.57780  1.0000
  C   C59       1.0  0.95790  0.39490  0.07780  1.0000
  C   C60       1.0  0.04210  0.89490  0.42220  1.0000
  C   C61       1.0  0.08800  0.56050  0.96770  1.0000
  C   C62       1.0  0.91200  0.06050  0.53230  1.0000
  C   C63       1.0  0.91200  0.43950  0.03230  1.0000
  C   C64       1.0  0.08800  0.93950  0.46770  1.0000
  C   C65       1.0  0.06690  0.51510  0.91580  1.0000
  C   C66       1.0  0.93310  0.01510  0.58420  1.0000
  C   C67       1.0  0.93310  0.48490  0.08420  1.0000
  C   C68       1.0  0.06690  0.98490  0.41580  1.0000
  C   C69       1.0  0.11450  0.47870  0.97570  1.0000
  C   C70       1.0  0.88550  0.97870  0.52430  1.0000
  C   C71       1.0  0.88550  0.52130  0.02430  1.0000
  C   C72       1.0  0.11450  0.02130  0.47570  1.0000
  C   C73       1.0  0.18440  0.48370  0.08440  1.0000
  C   C74       1.0  0.81560  0.98370  0.41560  1.0000
  C   C75       1.0  0.81560  0.51630  0.91560  1.0000
  C   C76       1.0  0.18440  0.01630  0.58440  1.0000
  C   C77       1.0  0.32690  0.50890  0.31560  1.0000
  C   C78       1.0  0.67310  0.00890  0.18440  1.0000
  C   C79       1.0  0.67310  0.49110  0.68440  1.0000
  C   C80       1.0  0.32690  0.99110  0.81560  1.0000
  C   C81       1.0  0.95430  0.60850  0.82170  1.0000
  C   C82       1.0  0.04570  0.10850  0.67830  1.0000
  C   C83       1.0  0.04570  0.39150  0.17830  1.0000
  C   C84       1.0  0.95430  0.89150  0.32170  1.0000
  N   N1        1.0  0.21440  0.61647  0.79550  1.0000
  N   N2        1.0  0.78560  0.11647  0.70450  1.0000
  N   N3        1.0  0.78560  0.38353  0.20450  1.0000
  N   N4        1.0  0.21440  0.88353  0.29550  1.0000
  N   N5        1.0  0.11750  0.61333  0.44130  1.0000
  N   N6        1.0  0.88250  0.11333  0.05870  1.0000
  N   N7        1.0  0.88250  0.38667  0.55870  1.0000
  N   N8        1.0  0.11750  0.88667  0.94130  1.0000
  N   N9        1.0  0.26480  0.56201  0.62080  1.0000
  N   N10       1.0  0.73520  0.06201  0.87920  1.0000
  N   N11       1.0  0.73520  0.43799  0.37920  1.0000
  N   N12       1.0  0.26480  0.93799  0.12080  1.0000
  N   N13       1.0  0.26340  0.66514  0.61150  1.0000
  N   N14       1.0  0.73660  0.16514  0.88850  1.0000
  N   N15       1.0  0.73660  0.33486  0.38850  1.0000
  N   N16       1.0  0.26340  0.83486  0.11150  1.0000
  N   N17       1.0  0.05890  0.66363  0.61480  1.0000
  N   N18       1.0  0.94110  0.16363  0.88520  1.0000
  N   N19       1.0  0.94110  0.33637  0.38520  1.0000
  N   N20       1.0  0.05890  0.83637  0.11480  1.0000
  N   N21       1.0  0.05900  0.56447  0.62090  1.0000
  N   N22       1.0  0.94100  0.06447  0.87910  1.0000
  N   N23       1.0  0.94100  0.43553  0.37910  1.0000
  N   N24       1.0  0.05900  0.93553  0.12090  1.0000
  N   N25       1.0  0.15360  0.56430  0.06700  1.0000
  N   N26       1.0  0.84640  0.06430  0.43300  1.0000
  N   N27       1.0  0.84640  0.43570  0.93300  1.0000
  N   N28       1.0  0.15360  0.93570  0.56700  1.0000
  N   N29       1.0  0.27520  0.58750  0.25280  1.0000
  N   N30       1.0  0.72480  0.08750  0.24720  1.0000
  N   N31       1.0  0.72480  0.41250  0.74720  1.0000
  N   N32       1.0  0.27520  0.91250  0.75280  1.0000
  N   N33       1.0  0.22450  0.68850  0.18360  1.0000
  N   N34       1.0  0.77550  0.18850  0.31640  1.0000
  N   N35       1.0  0.77550  0.31150  0.81640  1.0000
  N   N36       1.0  0.22450  0.81150  0.68360  1.0000
  N   N37       1.0  0.08140  0.64076  0.98440  1.0000
  N   N38       1.0  0.91860  0.14076  0.51560  1.0000
  N   N39       1.0  0.91860  0.35924  0.01560  1.0000
  N   N40       1.0  0.08140  0.85924  0.48440  1.0000
  S   S1        1.0  0.31769  0.62805  0.02280  1.0000
  S   S2        1.0  0.68231  0.12805  0.47720  1.0000
  S   S3        1.0  0.68231  0.37195  0.97720  1.0000
  S   S4        1.0  0.31769  0.87195  0.52280  1.0000
  S   S5        1.0  0.04427  0.61873  0.20678  1.0000
  S   S6        1.0  0.95573  0.11873  0.29322  1.0000
  S   S7        1.0  0.95573  0.38127  0.79322  1.0000
  S   S8        1.0  0.04427  0.88127  0.70678  1.0000
  S   S9        1.0  0.39759  0.49090  0.64320  1.0000
  S   S10       1.0  0.60241  0.99090  0.85680  1.0000
  S   S11       1.0  0.60241  0.50910  0.35680  1.0000
  S   S12       1.0  0.39759  0.00910  0.14320  1.0000
  S   S13       1.0  0.39180  0.73702  0.61916  1.0000
  S   S14       1.0  0.60820  0.23702  0.88084  1.0000
  S   S15       1.0  0.60820  0.26298  0.38084  1.0000
  S   S16       1.0  0.39180  0.76298  0.11916  1.0000
  S   S17       1.0  0.90200  0.71855  0.60790  1.0000
  S   S18       1.0  0.09800  0.21855  0.89210  1.0000
  S   S19       1.0  0.09800  0.28145  0.39210  1.0000
  S   S20       1.0  0.90200  0.78145  0.10790  1.0000
  S   S21       1.0  0.90103  0.50916  0.61488  1.0000
  S   S22       1.0  0.09897  0.00916  0.88512  1.0000
  S   S23       1.0  0.09897  0.49084  0.38512  1.0000
  S   S24       1.0  0.90103  0.99084  0.11488  1.0000
  Mo  Mo1       1.0  0.16366  0.61333  0.61718  1.0000
  Mo  Mo2       1.0  0.83634  0.11333  0.88282  1.0000
  Mo  Mo3       1.0  0.83634  0.38667  0.38282  1.0000
  Mo  Mo4       1.0  0.16366  0.88667  0.11718  1.0000
  Ni  Ni1       1.0  0.18431  0.62502  0.12532  1.0000
  Ni  Ni2       1.0  0.81569  0.12502  0.37468  1.0000
  Ni  Ni3       1.0  0.81569  0.37498  0.87468  1.0000
  Ni  Ni4       1.0  0.18431  0.87498  0.62532  1.0000
  H   H1        1.0  0.30390  0.60460  0.41350  1.0000
  H   H2        1.0  0.69610  0.10460  0.08650  1.0000
  H   H3        1.0  0.69610  0.39540  0.58650  1.0000
  H   H4        1.0  0.30390  0.89540  0.91350  1.0000
  H   H5        1.0  0.39650  0.59110  0.38110  1.0000
  H   H6        1.0  0.60350  0.09110  0.11890  1.0000
  H   H7        1.0  0.60350  0.40890  0.61890  1.0000
  H   H8        1.0  0.39650  0.90890  0.88110  1.0000
  H   H9        1.0  0.39610  0.67010  0.42090  1.0000
  H   H10       1.0  0.60390  0.17010  0.07910  1.0000
  H   H11       1.0  0.60390  0.32990  0.57910  1.0000
  H   H12       1.0  0.39610  0.82990  0.92090  1.0000
  H   H13       1.0  0.39240  0.66190  0.29350  1.0000
  H   H14       1.0  0.60760  0.16190  0.20650  1.0000
  H   H15       1.0  0.60760  0.33810  0.70650  1.0000
  H   H16       1.0  0.39240  0.83810  0.79350  1.0000
  H   H17       1.0  0.29410  0.72330  0.32340  1.0000
  H   H18       1.0  0.70590  0.22330  0.17660  1.0000
  H   H19       1.0  0.70590  0.27670  0.67660  1.0000
  H   H20       1.0  0.29410  0.77670  0.82340  1.0000
  H   H21       1.0  0.22440  0.68480  0.34470  1.0000
  H   H22       1.0  0.77560  0.18480  0.15530  1.0000
  H   H23       1.0  0.77560  0.31520  0.65530  1.0000
  H   H24       1.0  0.22440  0.81520  0.84470  1.0000
  H   H25       1.0  0.17510  0.75400  0.16970  1.0000
  H   H26       1.0  0.82490  0.25400  0.33030  1.0000
  H   H27       1.0  0.82490  0.24600  0.83030  1.0000
  H   H28       1.0  0.17510  0.74600  0.66970  1.0000
  H   H29       1.0  0.09460  0.71690  0.16870  1.0000
  H   H30       1.0  0.90540  0.21690  0.33130  1.0000
  H   H31       1.0  0.90540  0.28310  0.83130  1.0000
  H   H32       1.0  0.09460  0.78310  0.66870  1.0000
  H   H33       1.0  0.08360  0.75550  0.98860  1.0000
  H   H34       1.0  0.91640  0.25550  0.51140  1.0000
  H   H35       1.0  0.91640  0.24450  0.01140  1.0000
  H   H36       1.0  0.08360  0.74450  0.48860  1.0000
  H   H37       1.0  0.17010  0.72280  0.98510  1.0000
  H   H38       1.0  0.82990  0.22280  0.51490  1.0000
  H   H39       1.0  0.82990  0.27720  0.01490  1.0000
  H   H40       1.0  0.17010  0.77720  0.48510  1.0000
  H   H41       1.0  0.02780  0.69150  0.87280  1.0000
  H   H42       1.0  0.97220  0.19150  0.62720  1.0000
  H   H43       1.0  0.97220  0.30850  0.12720  1.0000
  H   H44       1.0  0.02780  0.80850  0.37280  1.0000
  H   H45       1.0  0.98580  0.69120  0.97500  1.0000
  H   H46       1.0  0.01420  0.19120  0.52500  1.0000
  H   H47       1.0  0.01420  0.30880  0.02500  1.0000
  H   H48       1.0  0.98580  0.80880  0.47500  1.0000
  H   H49       1.0  0.02080  0.51160  0.84550  1.0000
  H   H50       1.0  0.97920  0.01160  0.65450  1.0000
  H   H51       1.0  0.97920  0.48840  0.15450  1.0000
  H   H52       1.0  0.02080  0.98840  0.34550  1.0000
  H   H53       1.0  0.10180  0.44900  0.94380  1.0000
  H   H54       1.0  0.89820  0.94900  0.55620  1.0000
  H   H55       1.0  0.89820  0.55100  0.05620  1.0000
  H   H56       1.0  0.10180  0.05100  0.44380  1.0000
  H   H57       1.0  0.21670  0.45850  0.12540  1.0000
  H   H58       1.0  0.78330  0.95850  0.37460  1.0000
  H   H59       1.0  0.78330  0.54150  0.87460  1.0000
  H   H60       1.0  0.21670  0.04150  0.62540  1.0000
  H   H61       1.0  0.39290  0.51760  0.33510  1.0000
  H   H62       1.0  0.60710  0.01760  0.16490  1.0000
  H   H63       1.0  0.60710  0.48240  0.66490  1.0000
  H   H64       1.0  0.39290  0.98240  0.83510  1.0000
  H   H65       1.0  0.31600  0.47950  0.27760  1.0000
  H   H66       1.0  0.68400  0.97950  0.22240  1.0000
  H   H67       1.0  0.68400  0.52050  0.72240  1.0000
  H   H68       1.0  0.31600  0.02050  0.77760  1.0000
  H   H69       1.0  0.30660  0.50830  0.38160  1.0000
  H   H70       1.0  0.69340  0.00830  0.11840  1.0000
  H   H71       1.0  0.69340  0.49170  0.61840  1.0000
  H   H72       1.0  0.30660  0.99170  0.88160  1.0000
  H   H73       1.0  0.91330  0.63290  0.83540  1.0000
  H   H74       1.0  0.08670  0.13290  0.66460  1.0000
  H   H75       1.0  0.08670  0.36710  0.16460  1.0000
  H   H76       1.0  0.91330  0.86710  0.33540  1.0000
  H   H77       1.0  0.97480  0.61610  0.75630  1.0000
  H   H78       1.0  0.02520  0.11610  0.74370  1.0000
  H   H79       1.0  0.02520  0.38390  0.24370  1.0000
  H   H80       1.0  0.97480  0.88390  0.25630  1.0000
  H   H81       1.0  0.92170  0.57860  0.81170  1.0000
  H   H82       1.0  0.07830  0.07860  0.68830  1.0000
  H   H83       1.0  0.07830  0.42140  0.18830  1.0000
  H   H84       1.0  0.92170  0.92140  0.31170  1.0000
  H   H85       1.0  0.26870  0.69580  0.15440  1.0000
  H   H86       1.0  0.73130  0.19580  0.34560  1.0000
  H   H87       1.0  0.73130  0.30420  0.84560  1.0000
  H   H88       1.0  0.26870  0.80420  0.65440  1.0000
