data_image0
_chemical_formula_structural       C84N40S24Mo4Co4H88
_chemical_formula_sum              "C84 N40 S24 Mo4 Co4 H88"
_cell_length_a       14.67
_cell_length_b       28.721
_cell_length_c       12.4729
_cell_angle_alpha    90
_cell_angle_beta     107.844
_cell_angle_gamma    90

_space_group_name_H-M_alt    "P 1"
_space_group_IT_number       1

loop_
  _space_group_symop_operation_xyz
  'x, y, z'

loop_
  _atom_site_type_symbol
  _atom_site_label
  _atom_site_symmetry_multiplicity
  _atom_site_fract_x
  _atom_site_fract_y
  _atom_site_fract_z
  _atom_site_occupancy
  C   C1        1.0  0.25210  0.62330  0.88790  1.0000
  C   C2        1.0  0.74790  0.12330  0.61210  1.0000
  C   C3        1.0  0.74790  0.37670  0.11210  1.0000
  C   C4        1.0  0.25210  0.87670  0.38790  1.0000
  C   C5        1.0  0.08180  0.61520  0.34260  1.0000
  C   C6        1.0  0.91820  0.11520  0.15740  1.0000
  C   C7        1.0  0.91820  0.38480  0.65740  1.0000
  C   C8        1.0  0.08180  0.88480  0.84260  1.0000
  C   C9        1.0  0.31760  0.53550  0.62640  1.0000
  C   C10       1.0  0.68240  0.03550  0.87360  1.0000
  C   C11       1.0  0.68240  0.46450  0.37360  1.0000
  C   C12       1.0  0.31760  0.96450  0.12640  1.0000
  C   C13       1.0  0.31390  0.69610  0.61420  1.0000
  C   C14       1.0  0.68610  0.19610  0.88580  1.0000
  C   C15       1.0  0.68610  0.30390  0.38580  1.0000
  C   C16       1.0  0.31390  0.80390  0.11420  1.0000
  C   C17       1.0  0.98790  0.68730  0.61080  1.0000
  C   C18       1.0  0.01210  0.18730  0.88920  1.0000
  C   C19       1.0  0.01210  0.31270  0.38920  1.0000
  C   C20       1.0  0.98790  0.81270  0.11080  1.0000
  C   C21       1.0  0.98960  0.54170  0.61760  1.0000
  C   C22       1.0  0.01040  0.04170  0.88240  1.0000
  C   C23       1.0  0.01040  0.45830  0.38240  1.0000
  C   C24       1.0  0.98960  0.95830  0.11760  1.0000
  C   C25       1.0  0.19780  0.52880  0.12280  1.0000
  C   C26       1.0  0.80220  0.02880  0.37720  1.0000
  C   C27       1.0  0.80220  0.47120  0.87720  1.0000
  C   C28       1.0  0.19780  0.97120  0.62280  1.0000
  C   C29       1.0  0.26910  0.54610  0.23550  1.0000
  C   C30       1.0  0.73090  0.04610  0.26450  1.0000
  C   C31       1.0  0.73090  0.45390  0.76450  1.0000
  C   C32       1.0  0.26910  0.95390  0.73550  1.0000
  C   C33       1.0  0.32680  0.61000  0.34950  1.0000
  C   C34       1.0  0.67320  0.11000  0.15050  1.0000
  C   C35       1.0  0.67320  0.39000  0.65050  1.0000
  C   C36       1.0  0.32680  0.89000  0.84950  1.0000
  C   C37       1.0  0.34900  0.66100  0.34230  1.0000
  C   C38       1.0  0.65100  0.16100  0.15770  1.0000
  C   C39       1.0  0.65100  0.33900  0.65770  1.0000
  C   C40       1.0  0.34900  0.83900  0.84230  1.0000
  C   C41       1.0  0.26540  0.69210  0.30260  1.0000
  C   C42       1.0  0.73460  0.19210  0.19740  1.0000
  C   C43       1.0  0.73460  0.30790  0.69740  1.0000
  C   C44       1.0  0.26540  0.80790  0.80260  1.0000
  C   C45       1.0  0.14250  0.72410  0.13860  1.0000
  C   C46       1.0  0.85750  0.22410  0.36140  1.0000
  C   C47       1.0  0.85750  0.27590  0.86140  1.0000
  C   C48       1.0  0.14250  0.77590  0.63860  1.0000
  C   C49       1.0  0.10950  0.72530  0.01020  1.0000
  C   C50       1.0  0.89050  0.22530  0.48980  1.0000
  C   C51       1.0  0.89050  0.27470  0.98980  1.0000
  C   C52       1.0  0.10950  0.77470  0.51020  1.0000
  C   C53       1.0  0.04010  0.68770  0.95290  1.0000
  C   C54       1.0  0.95990  0.18770  0.54710  1.0000
  C   C55       1.0  0.95990  0.31230  0.04710  1.0000
  C   C56       1.0  0.04010  0.81230  0.45290  1.0000
  C   C57       1.0  0.03790  0.60520  0.92010  1.0000
  C   C58       1.0  0.96210  0.10520  0.57990  1.0000
  C   C59       1.0  0.96210  0.39480  0.07990  1.0000
  C   C60       1.0  0.03790  0.89480  0.42010  1.0000
  C   C61       1.0  0.08620  0.56080  0.96790  1.0000
  C   C62       1.0  0.91380  0.06080  0.53210  1.0000
  C   C63       1.0  0.91380  0.43920  0.03210  1.0000
  C   C64       1.0  0.08620  0.93920  0.46790  1.0000
  C   C65       1.0  0.06550  0.51540  0.91670  1.0000
  C   C66       1.0  0.93450  0.01540  0.58330  1.0000
  C   C67       1.0  0.93450  0.48460  0.08330  1.0000
  C   C68       1.0  0.06550  0.98460  0.41670  1.0000
  C   C69       1.0  0.11630  0.47870  0.97700  1.0000
  C   C70       1.0  0.88370  0.97870  0.52300  1.0000
  C   C71       1.0  0.88370  0.52130  0.02300  1.0000
  C   C72       1.0  0.11630  0.02130  0.47700  1.0000
  C   C73       1.0  0.18370  0.48420  0.08450  1.0000
  C   C74       1.0  0.81630  0.98420  0.41550  1.0000
  C   C75       1.0  0.81630  0.51580  0.91550  1.0000
  C   C76       1.0  0.18370  0.01580  0.58450  1.0000
  C   C77       1.0  0.32690  0.51160  0.31360  1.0000
  C   C78       1.0  0.67310  0.01160  0.18640  1.0000
  C   C79       1.0  0.67310  0.48840  0.68640  1.0000
  C   C80       1.0  0.32690  0.98840  0.81360  1.0000
  C   C81       1.0  0.95290  0.60830  0.82300  1.0000
  C   C82       1.0  0.04710  0.10830  0.67700  1.0000
  C   C83       1.0  0.04710  0.39170  0.17700  1.0000
  C   C84       1.0  0.95290  0.89170  0.32300  1.0000
  N   N1        1.0  0.21020  0.61740  0.79320  1.0000
  N   N2        1.0  0.78980  0.11740  0.70680  1.0000
  N   N3        1.0  0.78980  0.38260  0.20680  1.0000
  N   N4        1.0  0.21020  0.88260  0.29320  1.0000
  N   N5        1.0  0.11190  0.61400  0.44000  1.0000
  N   N6        1.0  0.88810  0.11400  0.06000  1.0000
  N   N7        1.0  0.88810  0.38600  0.56000  1.0000
  N   N8        1.0  0.11190  0.88600  0.94000  1.0000
  N   N9        1.0  0.26000  0.56360  0.61850  1.0000
  N   N10       1.0  0.74000  0.06360  0.88150  1.0000
  N   N11       1.0  0.74000  0.43640  0.38150  1.0000
  N   N12       1.0  0.26000  0.93640  0.11850  1.0000
  N   N13       1.0  0.25840  0.66660  0.60950  1.0000
  N   N14       1.0  0.74160  0.16660  0.89050  1.0000
  N   N15       1.0  0.74160  0.33340  0.39050  1.0000
  N   N16       1.0  0.25840  0.83340  0.10950  1.0000
  N   N17       1.0  0.05380  0.66470  0.61360  1.0000
  N   N18       1.0  0.94620  0.16470  0.88640  1.0000
  N   N19       1.0  0.94620  0.33530  0.38640  1.0000
  N   N20       1.0  0.05380  0.83530  0.11360  1.0000
  N   N21       1.0  0.05610  0.56480  0.62050  1.0000
  N   N22       1.0  0.94390  0.06480  0.87950  1.0000
  N   N23       1.0  0.94390  0.43520  0.37950  1.0000
  N   N24       1.0  0.05610  0.93520  0.12050  1.0000
  N   N25       1.0  0.15090  0.56540  0.06650  1.0000
  N   N26       1.0  0.84910  0.06540  0.43350  1.0000
  N   N27       1.0  0.84910  0.43460  0.93350  1.0000
  N   N28       1.0  0.15090  0.93460  0.56650  1.0000
  N   N29       1.0  0.26900  0.58960  0.24880  1.0000
  N   N30       1.0  0.73100  0.08960  0.25120  1.0000
  N   N31       1.0  0.73100  0.41040  0.75120  1.0000
  N   N32       1.0  0.26900  0.91040  0.74880  1.0000
  N   N33       1.0  0.21680  0.68780  0.18180  1.0000
  N   N34       1.0  0.78320  0.18780  0.31820  1.0000
  N   N35       1.0  0.78320  0.31220  0.81820  1.0000
  N   N36       1.0  0.21680  0.81220  0.68180  1.0000
  N   N37       1.0  0.07850  0.64070  0.98670  1.0000
  N   N38       1.0  0.92150  0.14070  0.51330  1.0000
  N   N39       1.0  0.92150  0.35930  0.01330  1.0000
  N   N40       1.0  0.07850  0.85930  0.48670  1.0000
  S   S1        1.0  0.31346  0.62949  0.01866  1.0000
  S   S2        1.0  0.68654  0.12949  0.48134  1.0000
  S   S3        1.0  0.68654  0.37051  0.98134  1.0000
  S   S4        1.0  0.31346  0.87051  0.51866  1.0000
  S   S5        1.0  0.03808  0.61811  0.20611  1.0000
  S   S6        1.0  0.96192  0.11811  0.29389  1.0000
  S   S7        1.0  0.96192  0.38189  0.79389  1.0000
  S   S8        1.0  0.03808  0.88189  0.70611  1.0000
  S   S9        1.0  0.39650  0.49425  0.64030  1.0000
  S   S10       1.0  0.60350  0.99425  0.85970  1.0000
  S   S11       1.0  0.60350  0.50575  0.35970  1.0000
  S   S12       1.0  0.39650  0.00575  0.14030  1.0000
  S   S13       1.0  0.38862  0.73792  0.62030  1.0000
  S   S14       1.0  0.61138  0.23792  0.87970  1.0000
  S   S15       1.0  0.61138  0.26208  0.37970  1.0000
  S   S16       1.0  0.38862  0.76208  0.12030  1.0000
  S   S17       1.0  0.89510  0.71844  0.60660  1.0000
  S   S18       1.0  0.10490  0.21844  0.89340  1.0000
  S   S19       1.0  0.10490  0.28156  0.39340  1.0000
  S   S20       1.0  0.89510  0.78156  0.10660  1.0000
  S   S21       1.0  0.89973  0.50857  0.61695  1.0000
  S   S22       1.0  0.10027  0.00857  0.88305  1.0000
  S   S23       1.0  0.10027  0.49143  0.38305  1.0000
  S   S24       1.0  0.89973  0.99143  0.11695  1.0000
  Mo  Mo1       1.0  0.15890  0.61446  0.61545  1.0000
  Mo  Mo2       1.0  0.84110  0.11446  0.88455  1.0000
  Mo  Mo3       1.0  0.84110  0.38554  0.38455  1.0000
  Mo  Mo4       1.0  0.15890  0.88554  0.11545  1.0000
  Co  Co1       1.0  0.17836  0.62424  0.12320  1.0000
  Co  Co2       1.0  0.82164  0.12424  0.37680  1.0000
  Co  Co3       1.0  0.82164  0.37576  0.87680  1.0000
  Co  Co4       1.0  0.17836  0.87576  0.62320  1.0000
  H   H1        1.0  0.29470  0.60650  0.40660  1.0000
  H   H2        1.0  0.70530  0.10650  0.09340  1.0000
  H   H3        1.0  0.70530  0.39350  0.59340  1.0000
  H   H4        1.0  0.29470  0.89350  0.90660  1.0000
  H   H5        1.0  0.38730  0.59330  0.37380  1.0000
  H   H6        1.0  0.61270  0.09330  0.12620  1.0000
  H   H7        1.0  0.61270  0.40670  0.62620  1.0000
  H   H8        1.0  0.38730  0.90670  0.87380  1.0000
  H   H9        1.0  0.38950  0.67200  0.41500  1.0000
  H   H10       1.0  0.61050  0.17200  0.08500  1.0000
  H   H11       1.0  0.61050  0.32800  0.58500  1.0000
  H   H12       1.0  0.38950  0.82800  0.91500  1.0000
  H   H13       1.0  0.38390  0.66370  0.28770  1.0000
  H   H14       1.0  0.61610  0.16370  0.21230  1.0000
  H   H15       1.0  0.61610  0.33630  0.71230  1.0000
  H   H16       1.0  0.38390  0.83630  0.78770  1.0000
  H   H17       1.0  0.28670  0.72390  0.31840  1.0000
  H   H18       1.0  0.71330  0.22390  0.18160  1.0000
  H   H19       1.0  0.71330  0.27610  0.68160  1.0000
  H   H20       1.0  0.28670  0.77610  0.81840  1.0000
  H   H21       1.0  0.22010  0.68460  0.34300  1.0000
  H   H22       1.0  0.77990  0.18460  0.15700  1.0000
  H   H23       1.0  0.77990  0.31540  0.65700  1.0000
  H   H24       1.0  0.22010  0.81540  0.84300  1.0000
  H   H25       1.0  0.16870  0.75430  0.16690  1.0000
  H   H26       1.0  0.83130  0.25430  0.33310  1.0000
  H   H27       1.0  0.83130  0.24570  0.83310  1.0000
  H   H28       1.0  0.16870  0.74570  0.66690  1.0000
  H   H29       1.0  0.08790  0.71720  0.16520  1.0000
  H   H30       1.0  0.91210  0.21720  0.33480  1.0000
  H   H31       1.0  0.91210  0.28280  0.83480  1.0000
  H   H32       1.0  0.08790  0.78280  0.66520  1.0000
  H   H33       1.0  0.07860  0.75510  0.98700  1.0000
  H   H34       1.0  0.92140  0.25510  0.51300  1.0000
  H   H35       1.0  0.92140  0.24490  0.01300  1.0000
  H   H36       1.0  0.07860  0.74490  0.48700  1.0000
  H   H37       1.0  0.16550  0.72270  0.98460  1.0000
  H   H38       1.0  0.83450  0.22270  0.51540  1.0000
  H   H39       1.0  0.83450  0.27730  0.01540  1.0000
  H   H40       1.0  0.16550  0.77730  0.48460  1.0000
  H   H41       1.0  0.02500  0.69080  0.87220  1.0000
  H   H42       1.0  0.97500  0.19080  0.62780  1.0000
  H   H43       1.0  0.97500  0.30920  0.12780  1.0000
  H   H44       1.0  0.02500  0.80920  0.37220  1.0000
  H   H45       1.0  0.98150  0.69130  0.97280  1.0000
  H   H46       1.0  0.01850  0.19130  0.52720  1.0000
  H   H47       1.0  0.01850  0.30870  0.02720  1.0000
  H   H48       1.0  0.98150  0.80870  0.47280  1.0000
  H   H49       1.0  0.01910  0.51180  0.84720  1.0000
  H   H50       1.0  0.98090  0.01180  0.65280  1.0000
  H   H51       1.0  0.98090  0.48820  0.15280  1.0000
  H   H52       1.0  0.01910  0.98820  0.34720  1.0000
  H   H53       1.0  0.10510  0.44890  0.94430  1.0000
  H   H54       1.0  0.89490  0.94890  0.55570  1.0000
  H   H55       1.0  0.89490  0.55110  0.05570  1.0000
  H   H56       1.0  0.10510  0.05110  0.44430  1.0000
  H   H57       1.0  0.21700  0.45930  0.12640  1.0000
  H   H58       1.0  0.78300  0.95930  0.37360  1.0000
  H   H59       1.0  0.78300  0.54070  0.87360  1.0000
  H   H60       1.0  0.21700  0.04070  0.62640  1.0000
  H   H61       1.0  0.38760  0.52570  0.35690  1.0000
  H   H62       1.0  0.61240  0.02570  0.14310  1.0000
  H   H63       1.0  0.61240  0.47430  0.64310  1.0000
  H   H64       1.0  0.38760  0.97430  0.85690  1.0000
  H   H65       1.0  0.33770  0.48500  0.26990  1.0000
  H   H66       1.0  0.66230  0.98500  0.23010  1.0000
  H   H67       1.0  0.66230  0.51500  0.73010  1.0000
  H   H68       1.0  0.33770  0.01500  0.76990  1.0000
  H   H69       1.0  0.29130  0.50160  0.36390  1.0000
  H   H70       1.0  0.70870  0.00160  0.13610  1.0000
  H   H71       1.0  0.70870  0.49840  0.63610  1.0000
  H   H72       1.0  0.29130  0.99840  0.86390  1.0000
  H   H73       1.0  0.94040  0.64040  0.80330  1.0000
  H   H74       1.0  0.05960  0.14040  0.69670  1.0000
  H   H75       1.0  0.05960  0.35960  0.19670  1.0000
  H   H76       1.0  0.94040  0.85960  0.30330  1.0000
  H   H77       1.0  0.96280  0.59150  0.76120  1.0000
  H   H78       1.0  0.03720  0.09150  0.73880  1.0000
  H   H79       1.0  0.03720  0.40850  0.23880  1.0000
  H   H80       1.0  0.96280  0.90850  0.26120  1.0000
  H   H81       1.0  0.90020  0.59490  0.84240  1.0000
  H   H82       1.0  0.09980  0.09490  0.65760  1.0000
  H   H83       1.0  0.09980  0.40510  0.15760  1.0000
  H   H84       1.0  0.90020  0.90510  0.34240  1.0000
  H   H85       1.0  0.26090  0.69500  0.15250  1.0000
  H   H86       1.0  0.73910  0.19500  0.34750  1.0000
  H   H87       1.0  0.73910  0.30500  0.84750  1.0000
  H   H88       1.0  0.26090  0.80500  0.65250  1.0000
