data_image0
_chemical_formula_structural       Sc4O32C16
_chemical_formula_sum              "Sc4 O32 C16"
_cell_length_a       8.1898
_cell_length_b       16.5549
_cell_length_c       8.2132
_cell_angle_alpha    90
_cell_angle_beta     105.637
_cell_angle_gamma    90

_space_group_name_H-M_alt    "P 1"
_space_group_IT_number       1

loop_
  _space_group_symop_operation_xyz
  'x, y, z'

loop_
  _atom_site_type_symbol
  _atom_site_label
  _atom_site_symmetry_multiplicity
  _atom_site_fract_x
  _atom_site_fract_y
  _atom_site_fract_z
  _atom_site_occupancy
  Sc  Sc1       1.0  0.75000  0.62431  0.50000  1.0000
  Sc  Sc2       1.0  0.25000  0.12431  0.00000  1.0000
  Sc  Sc3       1.0  0.25000  0.37569  0.50000  1.0000
  Sc  Sc4       1.0  0.75000  0.87569  0.00000  1.0000
  O   O1        1.0  0.49730  0.58095  0.36580  1.0000
  O   O2        1.0  0.00270  0.58095  0.63420  1.0000
  O   O3        1.0  0.99730  0.08095  0.86580  1.0000
  O   O4        1.0  0.50270  0.08095  0.13420  1.0000
  O   O5        1.0  0.50270  0.41905  0.63420  1.0000
  O   O6        1.0  0.99730  0.41905  0.36580  1.0000
  O   O7        1.0  0.00270  0.91905  0.13420  1.0000
  O   O8        1.0  0.49730  0.91905  0.86580  1.0000
  O   O9        1.0  0.30490  0.48451  0.35630  1.0000
  O   O10       1.0  0.19510  0.48451  0.64370  1.0000
  O   O11       1.0  0.80490  0.98451  0.85630  1.0000
  O   O12       1.0  0.69510  0.98451  0.14370  1.0000
  O   O13       1.0  0.69510  0.51549  0.64370  1.0000
  O   O14       1.0  0.80490  0.51549  0.35630  1.0000
  O   O15       1.0  0.19510  0.01549  0.14370  1.0000
  O   O16       1.0  0.30490  0.01549  0.85630  1.0000
  O   O17       1.0  0.60340  0.76902  0.86220  1.0000
  O   O18       1.0  0.89660  0.76902  0.13780  1.0000
  O   O19       1.0  0.10340  0.26902  0.36220  1.0000
  O   O20       1.0  0.39660  0.26902  0.63780  1.0000
  O   O21       1.0  0.39660  0.23098  0.13780  1.0000
  O   O22       1.0  0.10340  0.23098  0.86220  1.0000
  O   O23       1.0  0.89660  0.73098  0.63780  1.0000
  O   O24       1.0  0.60340  0.73098  0.36220  1.0000
  O   O25       1.0  0.61670  0.66879  0.68390  1.0000
  O   O26       1.0  0.88330  0.66879  0.31610  1.0000
  O   O27       1.0  0.11670  0.16879  0.18390  1.0000
  O   O28       1.0  0.38330  0.16879  0.81610  1.0000
  O   O29       1.0  0.38330  0.33121  0.31610  1.0000
  O   O30       1.0  0.11670  0.33121  0.68390  1.0000
  O   O31       1.0  0.88330  0.83121  0.81610  1.0000
  O   O32       1.0  0.61670  0.83121  0.18390  1.0000
  C   C1        1.0  0.44350  0.51840  0.41930  1.0000
  C   C2        1.0  0.05650  0.51840  0.58070  1.0000
  C   C3        1.0  0.94350  0.01840  0.91930  1.0000
  C   C4        1.0  0.55650  0.01840  0.08070  1.0000
  C   C5        1.0  0.55650  0.48160  0.58070  1.0000
  C   C6        1.0  0.94350  0.48160  0.41930  1.0000
  C   C7        1.0  0.05650  0.98160  0.08070  1.0000
  C   C8        1.0  0.44350  0.98160  0.91930  1.0000
  C   C9        1.0  0.66880  0.73220  0.76270  1.0000
  C   C10       1.0  0.83120  0.73220  0.23730  1.0000
  C   C11       1.0  0.16880  0.23220  0.26270  1.0000
  C   C12       1.0  0.33120  0.23220  0.73730  1.0000
  C   C13       1.0  0.33120  0.26780  0.23730  1.0000
  C   C14       1.0  0.16880  0.26780  0.76270  1.0000
  C   C15       1.0  0.83120  0.76780  0.73730  1.0000
  C   C16       1.0  0.66880  0.76780  0.26270  1.0000
