data_image0
_chemical_formula_structural       Dy4O8H8O28C16
_chemical_formula_sum              "Dy4 O36 H8 C16"
_cell_length_a       9.6239
_cell_length_b       11.603
_cell_length_c       14.305
_cell_angle_alpha    90
_cell_angle_beta     122.463
_cell_angle_gamma    90

_space_group_name_H-M_alt    "P 1"
_space_group_IT_number       1

loop_
  _space_group_symop_operation_xyz
  'x, y, z'

loop_
  _atom_site_type_symbol
  _atom_site_label
  _atom_site_symmetry_multiplicity
  _atom_site_fract_x
  _atom_site_fract_y
  _atom_site_fract_z
  _atom_site_occupancy
  Dy  Dy1       1.0  0.11766  0.98689  0.83232  1.0000
  Dy  Dy2       1.0  0.88234  0.48689  0.66768  1.0000
  Dy  Dy3       1.0  0.88234  0.01311  0.16768  1.0000
  Dy  Dy4       1.0  0.11766  0.51311  0.33232  1.0000
  O   O1        1.0  0.20480  0.78776  0.84376  1.0000
  O   O2        1.0  0.79520  0.28776  0.65624  1.0000
  O   O3        1.0  0.79520  0.21224  0.15624  1.0000
  O   O4        1.0  0.20480  0.71224  0.34376  1.0000
  O   O5        1.0  0.10530  0.97935  0.65680  1.0000
  O   O6        1.0  0.89470  0.47935  0.84320  1.0000
  O   O7        1.0  0.89470  0.02065  0.34320  1.0000
  O   O8        1.0  0.10530  0.52065  0.15680  1.0000
  H   H1        1.0  0.03600  0.93900  0.60400  1.0000
  H   H2        1.0  0.96400  0.43900  0.89600  1.0000
  H   H3        1.0  0.96400  0.06100  0.39600  1.0000
  H   H4        1.0  0.03600  0.56100  0.10400  1.0000
  H   H5        1.0  0.10600  0.04010  0.62500  1.0000
  H   H6        1.0  0.89400  0.54010  0.87500  1.0000
  H   H7        1.0  0.89400  0.95990  0.37500  1.0000
  H   H8        1.0  0.10600  0.45990  0.12500  1.0000
  O   O9        1.0  0.89700  0.86288  0.70709  1.0000
  O   O10       1.0  0.10300  0.36288  0.79291  1.0000
  O   O11       1.0  0.10300  0.13712  0.29291  1.0000
  O   O12       1.0  0.89700  0.63712  0.20709  1.0000
  O   O13       1.0  0.80610  0.68170  0.67093  1.0000
  O   O14       1.0  0.19390  0.18170  0.82907  1.0000
  O   O15       1.0  0.19390  0.31830  0.32907  1.0000
  O   O16       1.0  0.80610  0.81830  0.17093  1.0000
  O   O17       1.0  0.11690  0.60625  0.79662  1.0000
  O   O18       1.0  0.88310  0.10625  0.70338  1.0000
  O   O19       1.0  0.88310  0.39375  0.20338  1.0000
  O   O20       1.0  0.11690  0.89375  0.29662  1.0000
  O   O21       1.0  0.34000  0.98878  0.02214  1.0000
  O   O22       1.0  0.66000  0.48878  0.47786  1.0000
  O   O23       1.0  0.66000  0.01122  0.97786  1.0000
  O   O24       1.0  0.34000  0.51122  0.52214  1.0000
  O   O25       1.0  0.01920  0.88221  0.93259  1.0000
  O   O26       1.0  0.98080  0.38221  0.56741  1.0000
  O   O27       1.0  0.98080  0.11779  0.06741  1.0000
  O   O28       1.0  0.01920  0.61779  0.43259  1.0000
  O   O29       1.0  0.96190  0.88866  0.06433  1.0000
  O   O30       1.0  0.03810  0.38866  0.43567  1.0000
  O   O31       1.0  0.03810  0.11134  0.93567  1.0000
  O   O32       1.0  0.96190  0.61134  0.56433  1.0000
  O   O33       1.0  0.61060  0.01101  0.14319  1.0000
  O   O34       1.0  0.38940  0.51101  0.35681  1.0000
  O   O35       1.0  0.38940  0.98899  0.85681  1.0000
  O   O36       1.0  0.61060  0.48899  0.64319  1.0000
  C   C1        1.0  0.09650  0.71280  0.79310  1.0000
  C   C2        1.0  0.90350  0.21280  0.70690  1.0000
  C   C3        1.0  0.90350  0.28720  0.20690  1.0000
  C   C4        1.0  0.09650  0.78720  0.29310  1.0000
  C   C5        1.0  0.91710  0.75650  0.71680  1.0000
  C   C6        1.0  0.08290  0.25650  0.78320  1.0000
  C   C7        1.0  0.08290  0.24350  0.28320  1.0000
  C   C8        1.0  0.91710  0.74350  0.21680  1.0000
  C   C9        1.0  0.48560  0.99990  0.04830  1.0000
  C   C10       1.0  0.51440  0.49990  0.45170  1.0000
  C   C11       1.0  0.51440  0.00010  0.95170  1.0000
  C   C12       1.0  0.48560  0.50010  0.54830  1.0000
  C   C13       1.0  0.99450  0.93360  0.99900  1.0000
  C   C14       1.0  0.00550  0.43360  0.50100  1.0000
  C   C15       1.0  0.00550  0.06640  0.00100  1.0000
  C   C16       1.0  0.99450  0.56640  0.49900  1.0000
