data_image0
_chemical_formula_structural       Dy4O24H8O12C16
_chemical_formula_sum              "Dy4 O36 H8 C16"
_cell_length_a       9.6191
_cell_length_b       11.6023
_cell_length_c       14.3044
_cell_angle_alpha    90
_cell_angle_beta     122.456
_cell_angle_gamma    90

_space_group_name_H-M_alt    "P 1"
_space_group_IT_number       1

loop_
  _space_group_symop_operation_xyz
  'x, y, z'

loop_
  _atom_site_type_symbol
  _atom_site_label
  _atom_site_symmetry_multiplicity
  _atom_site_fract_x
  _atom_site_fract_y
  _atom_site_fract_z
  _atom_site_occupancy
  Dy  Dy1       1.0  0.38234  0.51298  0.66760  1.0000
  Dy  Dy2       1.0  0.61766  0.01298  0.83240  1.0000
  Dy  Dy3       1.0  0.61766  0.48702  0.33240  1.0000
  Dy  Dy4       1.0  0.38234  0.98702  0.16760  1.0000
  O   O1        1.0  0.60320  0.63700  0.79320  1.0000
  O   O2        1.0  0.39680  0.13700  0.70680  1.0000
  O   O3        1.0  0.39680  0.36300  0.20680  1.0000
  O   O4        1.0  0.60320  0.86300  0.29320  1.0000
  O   O5        1.0  0.38400  0.89370  0.70350  1.0000
  O   O6        1.0  0.61600  0.39370  0.79650  1.0000
  O   O7        1.0  0.61600  0.10630  0.29650  1.0000
  O   O8        1.0  0.38400  0.60630  0.20350  1.0000
  O   O9        1.0  0.29520  0.71170  0.65660  1.0000
  O   O10       1.0  0.70480  0.21170  0.84340  1.0000
  O   O11       1.0  0.70480  0.28830  0.34340  1.0000
  O   O12       1.0  0.29520  0.78830  0.15660  1.0000
  O   O13       1.0  0.48000  0.61770  0.56700  1.0000
  O   O14       1.0  0.52000  0.11770  0.93300  1.0000
  O   O15       1.0  0.52000  0.38230  0.43300  1.0000
  O   O16       1.0  0.48000  0.88230  0.06700  1.0000
  O   O17       1.0  0.69330  0.81800  0.82860  1.0000
  O   O18       1.0  0.30670  0.31800  0.67140  1.0000
  O   O19       1.0  0.30670  0.18200  0.17140  1.0000
  O   O20       1.0  0.69330  0.68200  0.32860  1.0000
  O   O21       1.0  0.39530  0.51990  0.84300  1.0000
  O   O22       1.0  0.60470  0.01990  0.65700  1.0000
  O   O23       1.0  0.60470  0.48010  0.15700  1.0000
  O   O24       1.0  0.39530  0.98010  0.34300  1.0000
  H   H1        1.0  0.43120  0.58070  0.89020  1.0000
  H   H2        1.0  0.56880  0.08070  0.60980  1.0000
  H   H3        1.0  0.56880  0.41930  0.10980  1.0000
  H   H4        1.0  0.43120  0.91930  0.39020  1.0000
  H   H5        1.0  0.36530  0.46210  0.87150  1.0000
  H   H6        1.0  0.63470  0.96210  0.62850  1.0000
  H   H7        1.0  0.63470  0.53790  0.12850  1.0000
  H   H8        1.0  0.36530  0.03790  0.37150  1.0000
  O   O25       1.0  0.53830  0.61130  0.43610  1.0000
  O   O26       1.0  0.46170  0.11130  0.06390  1.0000
  O   O27       1.0  0.46170  0.38870  0.56390  1.0000
  O   O28       1.0  0.53830  0.88870  0.93610  1.0000
  O   O29       1.0  0.11110  0.51050  0.64350  1.0000
  O   O30       1.0  0.88890  0.01050  0.85650  1.0000
  O   O31       1.0  0.88890  0.48950  0.35650  1.0000
  O   O32       1.0  0.11110  0.98950  0.14350  1.0000
  O   O33       1.0  0.83920  0.48860  0.52170  1.0000
  O   O34       1.0  0.16080  0.98860  0.97830  1.0000
  O   O35       1.0  0.16080  0.51140  0.47830  1.0000
  O   O36       1.0  0.83920  0.01140  0.02170  1.0000
  C   C1        1.0  0.58340  0.74290  0.78340  1.0000
  C   C2        1.0  0.41660  0.24290  0.71660  1.0000
  C   C3        1.0  0.41660  0.25710  0.21660  1.0000
  C   C4        1.0  0.58340  0.75710  0.28340  1.0000
  C   C5        1.0  0.50560  0.56580  0.50090  1.0000
  C   C6        1.0  0.49440  0.06580  0.99910  1.0000
  C   C7        1.0  0.49440  0.43420  0.49910  1.0000
  C   C8        1.0  0.50560  0.93420  0.00090  1.0000
  C   C9        1.0  0.40340  0.78680  0.70690  1.0000
  C   C10       1.0  0.59660  0.28680  0.79310  1.0000
  C   C11       1.0  0.59660  0.21320  0.29310  1.0000
  C   C12       1.0  0.40340  0.71320  0.20690  1.0000
  C   C13       1.0  0.98450  0.49980  0.54720  1.0000
  C   C14       1.0  0.01550  0.99980  0.95280  1.0000
  C   C15       1.0  0.01550  0.50020  0.45280  1.0000
  C   C16       1.0  0.98450  0.00020  0.04720  1.0000
