data_image0
_chemical_formula_structural       S16Na8O64C24N8C16N8C8H8C8H8C8H8C8H8C8H24C8H24C8H24C8H24C8H8
_chemical_formula_sum              "S16 Na8 O64 C112 N16 H136"
_cell_length_a       25.4766
_cell_length_b       7.171
_cell_length_c       31.5592
_cell_angle_alpha    90
_cell_angle_beta     90.31
_cell_angle_gamma    90

_space_group_name_H-M_alt    "P 1"
_space_group_IT_number       1

loop_
  _space_group_symop_operation_xyz
  'x, y, z'

loop_
  _atom_site_type_symbol
  _atom_site_label
  _atom_site_symmetry_multiplicity
  _atom_site_fract_x
  _atom_site_fract_y
  _atom_site_fract_z
  _atom_site_occupancy
  S   S1        1.0  0.47503  0.04222  0.35390  1.0000
  S   S2        1.0  0.52497  0.04222  0.14610  1.0000
  S   S3        1.0  0.97503  0.54222  0.85390  1.0000
  S   S4        1.0  0.02497  0.54222  0.64610  1.0000
  S   S5        1.0  0.52497  0.95778  0.64610  1.0000
  S   S6        1.0  0.47503  0.95778  0.85390  1.0000
  S   S7        1.0  0.02497  0.45778  0.14610  1.0000
  S   S8        1.0  0.97503  0.45778  0.35390  1.0000
  S   S9        1.0  0.66383  0.01841  0.43401  1.0000
  S   S10       1.0  0.33617  0.01841  0.06599  1.0000
  S   S11       1.0  0.16383  0.51841  0.93401  1.0000
  S   S12       1.0  0.83617  0.51841  0.56599  1.0000
  S   S13       1.0  0.33617  0.98159  0.56599  1.0000
  S   S14       1.0  0.66383  0.98159  0.93401  1.0000
  S   S15       1.0  0.83617  0.48159  0.06599  1.0000
  S   S16       1.0  0.16383  0.48159  0.43401  1.0000
  Na  Na1       1.0  0.74965  0.77870  0.50463  1.0000
  Na  Na2       1.0  0.25035  0.77870  0.99537  1.0000
  Na  Na3       1.0  0.24965  0.27870  0.00463  1.0000
  Na  Na4       1.0  0.75035  0.27870  0.49537  1.0000
  Na  Na5       1.0  0.25035  0.22130  0.49537  1.0000
  Na  Na6       1.0  0.74965  0.22130  0.00463  1.0000
  Na  Na7       1.0  0.75035  0.72130  0.99537  1.0000
  Na  Na8       1.0  0.24965  0.72130  0.50463  1.0000
  O   O1        1.0  0.51559  0.04430  0.32133  1.0000
  O   O2        1.0  0.48441  0.04430  0.17867  1.0000
  O   O3        1.0  0.01559  0.54430  0.82133  1.0000
  O   O4        1.0  0.98441  0.54430  0.67867  1.0000
  O   O5        1.0  0.48441  0.95570  0.67867  1.0000
  O   O6        1.0  0.51559  0.95570  0.82133  1.0000
  O   O7        1.0  0.98441  0.45570  0.17867  1.0000
  O   O8        1.0  0.01559  0.45570  0.32133  1.0000
  O   O9        1.0  0.44633  0.21660  0.35596  1.0000
  O   O10       1.0  0.55367  0.21660  0.14404  1.0000
  O   O11       1.0  0.94633  0.71660  0.85596  1.0000
  O   O12       1.0  0.05367  0.71660  0.64404  1.0000
  O   O13       1.0  0.55367  0.78340  0.64404  1.0000
  O   O14       1.0  0.44633  0.78340  0.85596  1.0000
  O   O15       1.0  0.05367  0.28340  0.14404  1.0000
  O   O16       1.0  0.94633  0.28340  0.35596  1.0000
  O   O17       1.0  0.68173  0.85620  0.45733  1.0000
  O   O18       1.0  0.31827  0.85620  0.04267  1.0000
  O   O19       1.0  0.18173  0.35620  0.95733  1.0000
  O   O20       1.0  0.81827  0.35620  0.54267  1.0000
  O   O21       1.0  0.31827  0.14380  0.54267  1.0000
  O   O22       1.0  0.68173  0.14380  0.95733  1.0000
  O   O23       1.0  0.81827  0.64380  0.04267  1.0000
  O   O24       1.0  0.18173  0.64380  0.45733  1.0000
  O   O25       1.0  0.67979  0.19340  0.45330  1.0000
  O   O26       1.0  0.32021  0.19340  0.04670  1.0000
  O   O27       1.0  0.17979  0.69340  0.95330  1.0000
  O   O28       1.0  0.82021  0.69340  0.54670  1.0000
  O   O29       1.0  0.32021  0.80660  0.54670  1.0000
  O   O30       1.0  0.67979  0.80660  0.95330  1.0000
  O   O31       1.0  0.82021  0.30660  0.04670  1.0000
  O   O32       1.0  0.17979  0.30660  0.45330  1.0000
  O   O33       1.0  0.44160  0.88010  0.35091  1.0000
  O   O34       1.0  0.55840  0.88010  0.14909  1.0000
  O   O35       1.0  0.94160  0.38010  0.85091  1.0000
  O   O36       1.0  0.05840  0.38010  0.64909  1.0000
  O   O37       1.0  0.55840  0.11990  0.64909  1.0000
  O   O38       1.0  0.44160  0.11990  0.85091  1.0000
  O   O39       1.0  0.05840  0.61990  0.14909  1.0000
  O   O40       1.0  0.94160  0.61990  0.35091  1.0000
  O   O41       1.0  0.67445  0.00640  0.38916  1.0000
  O   O42       1.0  0.32555  0.00640  0.11084  1.0000
  O   O43       1.0  0.17445  0.50640  0.88916  1.0000
  O   O44       1.0  0.82555  0.50640  0.61084  1.0000
  O   O45       1.0  0.32555  0.99360  0.61084  1.0000
  O   O46       1.0  0.67445  0.99360  0.88916  1.0000
  O   O47       1.0  0.82555  0.49360  0.11084  1.0000
  O   O48       1.0  0.17445  0.49360  0.38916  1.0000
  O   O49       1.0  0.69771  0.51780  0.53176  1.0000
  O   O50       1.0  0.30229  0.51780  0.96824  1.0000
  O   O51       1.0  0.19771  0.01780  0.03176  1.0000
  O   O52       1.0  0.80229  0.01780  0.46824  1.0000
  O   O53       1.0  0.30229  0.48220  0.46824  1.0000
  O   O54       1.0  0.69771  0.48220  0.03176  1.0000
  O   O55       1.0  0.80229  0.98220  0.96824  1.0000
  O   O56       1.0  0.19771  0.98220  0.53176  1.0000
  O   O57       1.0  0.77285  0.53970  0.45158  1.0000
  O   O58       1.0  0.22715  0.53970  0.04842  1.0000
  O   O59       1.0  0.27285  0.03970  0.95158  1.0000
  O   O60       1.0  0.72715  0.03970  0.54842  1.0000
  O   O61       1.0  0.22715  0.46030  0.54842  1.0000
  O   O62       1.0  0.77285  0.46030  0.95158  1.0000
  O   O63       1.0  0.72715  0.96030  0.04842  1.0000
  O   O64       1.0  0.27285  0.96030  0.45158  1.0000
  C   C1        1.0  0.59379  0.01600  0.43858  1.0000
  C   C2        1.0  0.40621  0.01600  0.06142  1.0000
  C   C3        1.0  0.09379  0.51600  0.93858  1.0000
  C   C4        1.0  0.90621  0.51600  0.56142  1.0000
  C   C5        1.0  0.40621  0.98400  0.56142  1.0000
  C   C6        1.0  0.59379  0.98400  0.93858  1.0000
  C   C7        1.0  0.90621  0.48400  0.06142  1.0000
  C   C8        1.0  0.09379  0.48400  0.43858  1.0000
  C   C9        1.0  0.48306  0.01410  0.44177  1.0000
  C   C10       1.0  0.51694  0.01410  0.05823  1.0000
  C   C11       1.0  0.98306  0.51410  0.94177  1.0000
  C   C12       1.0  0.01694  0.51410  0.55823  1.0000
  C   C13       1.0  0.51694  0.98590  0.55823  1.0000
  C   C14       1.0  0.48306  0.98590  0.94177  1.0000
  C   C15       1.0  0.01694  0.48590  0.05823  1.0000
  C   C16       1.0  0.98306  0.48590  0.44177  1.0000
  C   C17       1.0  0.51001  0.02420  0.40287  1.0000
  C   C18       1.0  0.48999  0.02420  0.09713  1.0000
  C   C19       1.0  0.01001  0.52420  0.90287  1.0000
  C   C20       1.0  0.98999  0.52420  0.59713  1.0000
  C   C21       1.0  0.48999  0.97580  0.59713  1.0000
  C   C22       1.0  0.51001  0.97580  0.90287  1.0000
  C   C23       1.0  0.98999  0.47580  0.09713  1.0000
  C   C24       1.0  0.01001  0.47580  0.40287  1.0000
  N   N1        1.0  0.78538  0.52840  0.38007  1.0000
  N   N2        1.0  0.21462  0.52840  0.11993  1.0000
  N   N3        1.0  0.28538  0.02840  0.88007  1.0000
  N   N4        1.0  0.71462  0.02840  0.61993  1.0000
  N   N5        1.0  0.21462  0.47160  0.61993  1.0000
  N   N6        1.0  0.78538  0.47160  0.88007  1.0000
  N   N7        1.0  0.71462  0.97160  0.11993  1.0000
  N   N8        1.0  0.28538  0.97160  0.38007  1.0000
  C   C25       1.0  0.51317  0.00530  0.47994  1.0000
  C   C26       1.0  0.48683  0.00530  0.02006  1.0000
  C   C27       1.0  0.01317  0.50530  0.97994  1.0000
  C   C28       1.0  0.98683  0.50530  0.52006  1.0000
  C   C29       1.0  0.48683  0.99470  0.52006  1.0000
  C   C30       1.0  0.51317  0.99470  0.97994  1.0000
  C   C31       1.0  0.98683  0.49470  0.02006  1.0000
  C   C32       1.0  0.01317  0.49470  0.47994  1.0000
  C   C33       1.0  0.56928  0.00760  0.47856  1.0000
  C   C34       1.0  0.43072  0.00760  0.02144  1.0000
  C   C35       1.0  0.06928  0.50760  0.97856  1.0000
  C   C36       1.0  0.93072  0.50760  0.52144  1.0000
  C   C37       1.0  0.43072  0.99240  0.52144  1.0000
  C   C38       1.0  0.56928  0.99240  0.97856  1.0000
  C   C39       1.0  0.93072  0.49240  0.02144  1.0000
  C   C40       1.0  0.06928  0.49240  0.47856  1.0000
  N   N9        1.0  0.61145  0.48930  0.54728  1.0000
  N   N10       1.0  0.38855  0.48930  0.95272  1.0000
  N   N11       1.0  0.11145  0.98930  0.04728  1.0000
  N   N12       1.0  0.88855  0.98930  0.45272  1.0000
  N   N13       1.0  0.38855  0.51070  0.45272  1.0000
  N   N14       1.0  0.61145  0.51070  0.04728  1.0000
  N   N15       1.0  0.88855  0.01070  0.95272  1.0000
  N   N16       1.0  0.11145  0.01070  0.54728  1.0000
  C   C41       1.0  0.42691  0.01170  0.44468  1.0000
  C   C42       1.0  0.57309  0.01170  0.05532  1.0000
  C   C43       1.0  0.92691  0.51170  0.94468  1.0000
  C   C44       1.0  0.07309  0.51170  0.55532  1.0000
  C   C45       1.0  0.57309  0.98830  0.55532  1.0000
  C   C46       1.0  0.42691  0.98830  0.94468  1.0000
  C   C47       1.0  0.07309  0.48830  0.05532  1.0000
  C   C48       1.0  0.92691  0.48830  0.44468  1.0000
  H   H1        1.0  0.40700  0.01860  0.41990  1.0000
  H   H2        1.0  0.59300  0.01860  0.08010  1.0000
  H   H3        1.0  0.90700  0.51860  0.91990  1.0000
  H   H4        1.0  0.09300  0.51860  0.58010  1.0000
  H   H5        1.0  0.59300  0.98140  0.58010  1.0000
  H   H6        1.0  0.40700  0.98140  0.91990  1.0000
  H   H7        1.0  0.09300  0.48140  0.08010  1.0000
  H   H8        1.0  0.90700  0.48140  0.41990  1.0000
  C   C49       1.0  0.56436  0.02460  0.40160  1.0000
  C   C50       1.0  0.43564  0.02460  0.09840  1.0000
  C   C51       1.0  0.06436  0.52460  0.90160  1.0000
  C   C52       1.0  0.93564  0.52460  0.59840  1.0000
  C   C53       1.0  0.43564  0.97540  0.59840  1.0000
  C   C54       1.0  0.56436  0.97540  0.90160  1.0000
  C   C55       1.0  0.93564  0.47540  0.09840  1.0000
  C   C56       1.0  0.06436  0.47540  0.40160  1.0000
  H   H9        1.0  0.58130  0.03060  0.37560  1.0000
  H   H10       1.0  0.41870  0.03060  0.12440  1.0000
  H   H11       1.0  0.08130  0.53060  0.87560  1.0000
  H   H12       1.0  0.91870  0.53060  0.62440  1.0000
  H   H13       1.0  0.41870  0.96940  0.62440  1.0000
  H   H14       1.0  0.58130  0.96940  0.87560  1.0000
  H   H15       1.0  0.91870  0.46940  0.12440  1.0000
  H   H16       1.0  0.08130  0.46940  0.37560  1.0000
  C   C57       1.0  0.40202  0.99970  0.48236  1.0000
  C   C58       1.0  0.59798  0.99970  0.01764  1.0000
  C   C59       1.0  0.90202  0.49970  0.98236  1.0000
  C   C60       1.0  0.09798  0.49970  0.51764  1.0000
  C   C61       1.0  0.59798  0.00030  0.51764  1.0000
  C   C62       1.0  0.40202  0.00030  0.98236  1.0000
  C   C63       1.0  0.09798  0.50030  0.01764  1.0000
  C   C64       1.0  0.90202  0.50030  0.48236  1.0000
  H   H17       1.0  0.36550  0.99620  0.48290  1.0000
  H   H18       1.0  0.63450  0.99620  0.01710  1.0000
  H   H19       1.0  0.86550  0.49620  0.98290  1.0000
  H   H20       1.0  0.13450  0.49620  0.51710  1.0000
  H   H21       1.0  0.63450  0.00380  0.51710  1.0000
  H   H22       1.0  0.36550  0.00380  0.98290  1.0000
  H   H23       1.0  0.13450  0.50380  0.01710  1.0000
  H   H24       1.0  0.86550  0.50380  0.48290  1.0000
  C   C65       1.0  0.77128  0.61140  0.41610  1.0000
  C   C66       1.0  0.22872  0.61140  0.08390  1.0000
  C   C67       1.0  0.27128  0.11140  0.91610  1.0000
  C   C68       1.0  0.72872  0.11140  0.58390  1.0000
  C   C69       1.0  0.22872  0.38860  0.58390  1.0000
  C   C70       1.0  0.77128  0.38860  0.91610  1.0000
  C   C71       1.0  0.72872  0.88860  0.08390  1.0000
  C   C72       1.0  0.27128  0.88860  0.41610  1.0000
  H   H25       1.0  0.75930  0.73360  0.41430  1.0000
  H   H26       1.0  0.24070  0.73360  0.08570  1.0000
  H   H27       1.0  0.25930  0.23360  0.91430  1.0000
  H   H28       1.0  0.74070  0.23360  0.58570  1.0000
  H   H29       1.0  0.24070  0.26640  0.58570  1.0000
  H   H30       1.0  0.75930  0.26640  0.91430  1.0000
  H   H31       1.0  0.74070  0.76640  0.08570  1.0000
  H   H32       1.0  0.25930  0.76640  0.41430  1.0000
  C   C73       1.0  0.80350  0.33500  0.38013  1.0000
  C   C74       1.0  0.19650  0.33500  0.11987  1.0000
  C   C75       1.0  0.30350  0.83500  0.88013  1.0000
  C   C76       1.0  0.69650  0.83500  0.61987  1.0000
  C   C77       1.0  0.19650  0.66500  0.61987  1.0000
  C   C78       1.0  0.80350  0.66500  0.88013  1.0000
  C   C79       1.0  0.69650  0.16500  0.11987  1.0000
  C   C80       1.0  0.30350  0.16500  0.38013  1.0000
  H   H33       1.0  0.81210  0.29820  0.35180  1.0000
  H   H34       1.0  0.18790  0.29820  0.14820  1.0000
  H   H35       1.0  0.31210  0.79820  0.85180  1.0000
  H   H36       1.0  0.68790  0.79820  0.64820  1.0000
  H   H37       1.0  0.18790  0.70180  0.64820  1.0000
  H   H38       1.0  0.81210  0.70180  0.85180  1.0000
  H   H39       1.0  0.68790  0.20180  0.14820  1.0000
  H   H40       1.0  0.31210  0.20180  0.35180  1.0000
  H   H41       1.0  0.77630  0.25570  0.39080  1.0000
  H   H42       1.0  0.22370  0.25570  0.10920  1.0000
  H   H43       1.0  0.27630  0.75570  0.89080  1.0000
  H   H44       1.0  0.72370  0.75570  0.60920  1.0000
  H   H45       1.0  0.22370  0.74430  0.60920  1.0000
  H   H46       1.0  0.77630  0.74430  0.89080  1.0000
  H   H47       1.0  0.72370  0.24430  0.10920  1.0000
  H   H48       1.0  0.27630  0.24430  0.39080  1.0000
  H   H49       1.0  0.83410  0.32420  0.39780  1.0000
  H   H50       1.0  0.16590  0.32420  0.10220  1.0000
  H   H51       1.0  0.33410  0.82420  0.89780  1.0000
  H   H52       1.0  0.66590  0.82420  0.60220  1.0000
  H   H53       1.0  0.16590  0.67580  0.60220  1.0000
  H   H54       1.0  0.83410  0.67580  0.89780  1.0000
  H   H55       1.0  0.66590  0.17580  0.10220  1.0000
  H   H56       1.0  0.33410  0.17580  0.39780  1.0000
  C   C81       1.0  0.78550  0.62760  0.34048  1.0000
  C   C82       1.0  0.21450  0.62760  0.15952  1.0000
  C   C83       1.0  0.28550  0.12760  0.84048  1.0000
  C   C84       1.0  0.71450  0.12760  0.65952  1.0000
  C   C85       1.0  0.21450  0.37240  0.65952  1.0000
  C   C86       1.0  0.78550  0.37240  0.84048  1.0000
  C   C87       1.0  0.71450  0.87240  0.15952  1.0000
  C   C88       1.0  0.28550  0.87240  0.34048  1.0000
  H   H57       1.0  0.79680  0.54560  0.31830  1.0000
  H   H58       1.0  0.20320  0.54560  0.18170  1.0000
  H   H59       1.0  0.29680  0.04560  0.81830  1.0000
  H   H60       1.0  0.70320  0.04560  0.68170  1.0000
  H   H61       1.0  0.20320  0.45440  0.68170  1.0000
  H   H62       1.0  0.79680  0.45440  0.81830  1.0000
  H   H63       1.0  0.70320  0.95440  0.18170  1.0000
  H   H64       1.0  0.29680  0.95440  0.31830  1.0000
  H   H65       1.0  0.80910  0.73170  0.34240  1.0000
  H   H66       1.0  0.19090  0.73170  0.15760  1.0000
  H   H67       1.0  0.30910  0.23170  0.84240  1.0000
  H   H68       1.0  0.69090  0.23170  0.65760  1.0000
  H   H69       1.0  0.19090  0.26830  0.65760  1.0000
  H   H70       1.0  0.80910  0.26830  0.84240  1.0000
  H   H71       1.0  0.69090  0.76830  0.15760  1.0000
  H   H72       1.0  0.30910  0.76830  0.34240  1.0000
  H   H73       1.0  0.75070  0.67190  0.33430  1.0000
  H   H74       1.0  0.24930  0.67190  0.16570  1.0000
  H   H75       1.0  0.25070  0.17190  0.83430  1.0000
  H   H76       1.0  0.74930  0.17190  0.66570  1.0000
  H   H77       1.0  0.24930  0.32810  0.66570  1.0000
  H   H78       1.0  0.75070  0.32810  0.83430  1.0000
  H   H79       1.0  0.74930  0.82810  0.16570  1.0000
  H   H80       1.0  0.25070  0.82810  0.33430  1.0000
  C   C89       1.0  0.55767  0.50000  0.53200  1.0000
  C   C90       1.0  0.44233  0.50000  0.96800  1.0000
  C   C91       1.0  0.05767  0.00000  0.03200  1.0000
  C   C92       1.0  0.94233  0.00000  0.46800  1.0000
  C   C93       1.0  0.44233  0.50000  0.46800  1.0000
  C   C94       1.0  0.55767  0.50000  0.03200  1.0000
  C   C95       1.0  0.94233  0.00000  0.96800  1.0000
  C   C96       1.0  0.05767  0.00000  0.53200  1.0000
  H   H81       1.0  0.53410  0.47350  0.55490  1.0000
  H   H82       1.0  0.46590  0.47350  0.94510  1.0000
  H   H83       1.0  0.03410  0.97350  0.05490  1.0000
  H   H84       1.0  0.96590  0.97350  0.44510  1.0000
  H   H85       1.0  0.46590  0.52650  0.44510  1.0000
  H   H86       1.0  0.53410  0.52650  0.05490  1.0000
  H   H87       1.0  0.96590  0.02650  0.94510  1.0000
  H   H88       1.0  0.03410  0.02650  0.55490  1.0000
  H   H89       1.0  0.55250  0.41060  0.50970  1.0000
  H   H90       1.0  0.44750  0.41060  0.99030  1.0000
  H   H91       1.0  0.05250  0.91060  0.00970  1.0000
  H   H92       1.0  0.94750  0.91060  0.49030  1.0000
  H   H93       1.0  0.44750  0.58940  0.49030  1.0000
  H   H94       1.0  0.55250  0.58940  0.00970  1.0000
  H   H95       1.0  0.94750  0.08940  0.99030  1.0000
  H   H96       1.0  0.05250  0.08940  0.50970  1.0000
  H   H97       1.0  0.55090  0.62310  0.52130  1.0000
  H   H98       1.0  0.44910  0.62310  0.97870  1.0000
  H   H99       1.0  0.05090  0.12310  0.02130  1.0000
  H   H100      1.0  0.94910  0.12310  0.47870  1.0000
  H   H101      1.0  0.44910  0.37690  0.47870  1.0000
  H   H102      1.0  0.55090  0.37690  0.02130  1.0000
  H   H103      1.0  0.94910  0.87690  0.97870  1.0000
  H   H104      1.0  0.05090  0.87690  0.52130  1.0000
  C   C97       1.0  0.61920  0.44650  0.59108  1.0000
  C   C98       1.0  0.38080  0.44650  0.90892  1.0000
  C   C99       1.0  0.11920  0.94650  0.09108  1.0000
  C   C100      1.0  0.88080  0.94650  0.40892  1.0000
  C   C101      1.0  0.38080  0.55350  0.40892  1.0000
  C   C102      1.0  0.61920  0.55350  0.09108  1.0000
  C   C103      1.0  0.88080  0.05350  0.90892  1.0000
  C   C104      1.0  0.11920  0.05350  0.59108  1.0000
  H   H105      1.0  0.58570  0.42860  0.60440  1.0000
  H   H106      1.0  0.41430  0.42860  0.89560  1.0000
  H   H107      1.0  0.08570  0.92860  0.10440  1.0000
  H   H108      1.0  0.91430  0.92860  0.39560  1.0000
  H   H109      1.0  0.41430  0.57140  0.39560  1.0000
  H   H110      1.0  0.58570  0.57140  0.10440  1.0000
  H   H111      1.0  0.91430  0.07140  0.89560  1.0000
  H   H112      1.0  0.08570  0.07140  0.60440  1.0000
  H   H113      1.0  0.63740  0.54760  0.60470  1.0000
  H   H114      1.0  0.36260  0.54760  0.89530  1.0000
  H   H115      1.0  0.13740  0.04760  0.10470  1.0000
  H   H116      1.0  0.86260  0.04760  0.39530  1.0000
  H   H117      1.0  0.36260  0.45240  0.39530  1.0000
  H   H118      1.0  0.63740  0.45240  0.10470  1.0000
  H   H119      1.0  0.86260  0.95240  0.89530  1.0000
  H   H120      1.0  0.13740  0.95240  0.60470  1.0000
  H   H121      1.0  0.63960  0.33460  0.59370  1.0000
  H   H122      1.0  0.36040  0.33460  0.90630  1.0000
  H   H123      1.0  0.13960  0.83460  0.09370  1.0000
  H   H124      1.0  0.86040  0.83460  0.40630  1.0000
  H   H125      1.0  0.36040  0.66540  0.40630  1.0000
  H   H126      1.0  0.63960  0.66540  0.09370  1.0000
  H   H127      1.0  0.86040  0.16540  0.90630  1.0000
  H   H128      1.0  0.13960  0.16540  0.59370  1.0000
  C   C105      1.0  0.65121  0.52050  0.52150  1.0000
  C   C106      1.0  0.34879  0.52050  0.97850  1.0000
  C   C107      1.0  0.15121  0.02050  0.02150  1.0000
  C   C108      1.0  0.84879  0.02050  0.47850  1.0000
  C   C109      1.0  0.34879  0.47950  0.47850  1.0000
  C   C110      1.0  0.65121  0.47950  0.02150  1.0000
  C   C111      1.0  0.84879  0.97950  0.97850  1.0000
  C   C112      1.0  0.15121  0.97950  0.52150  1.0000
  H   H129      1.0  0.64330  0.54640  0.49330  1.0000
  H   H130      1.0  0.35670  0.54640  0.00670  1.0000
  H   H131      1.0  0.14330  0.04640  0.99330  1.0000
  H   H132      1.0  0.85670  0.04640  0.50670  1.0000
  H   H133      1.0  0.35670  0.45360  0.50670  1.0000
  H   H134      1.0  0.64330  0.45360  0.99330  1.0000
  H   H135      1.0  0.85670  0.95360  0.00670  1.0000
  H   H136      1.0  0.14330  0.95360  0.49330  1.0000
