data_image0
_chemical_formula_structural       Mg4P4O8H8O8H4O12C4
_chemical_formula_sum              "Mg4 P4 O28 H12 C4"
_cell_length_a       5.4112
_cell_length_b       14.2338
_cell_length_c       8.9052
_cell_angle_alpha    90
_cell_angle_beta     95.922
_cell_angle_gamma    90

_space_group_name_H-M_alt    "P 1"
_space_group_IT_number       1

loop_
  _space_group_symop_operation_xyz
  'x, y, z'

loop_
  _atom_site_type_symbol
  _atom_site_label
  _atom_site_symmetry_multiplicity
  _atom_site_fract_x
  _atom_site_fract_y
  _atom_site_fract_z
  _atom_site_occupancy
  Mg  Mg1       1.0  0.69495  0.17970  0.47691  1.0000
  Mg  Mg2       1.0  0.80505  0.67970  0.02309  1.0000
  Mg  Mg3       1.0  0.30505  0.82030  0.52309  1.0000
  Mg  Mg4       1.0  0.19495  0.32030  0.97691  1.0000
  P   P1        1.0  0.14953  0.17364  0.24878  1.0000
  P   P2        1.0  0.35047  0.67364  0.25122  1.0000
  P   P3        1.0  0.85047  0.82636  0.75122  1.0000
  P   P4        1.0  0.64953  0.32636  0.74878  1.0000
  O   O1        1.0  0.41320  0.19775  0.31274  1.0000
  O   O2        1.0  0.08680  0.69775  0.18726  1.0000
  O   O3        1.0  0.58680  0.80225  0.68726  1.0000
  O   O4        1.0  0.91320  0.30225  0.81274  1.0000
  O   O5        1.0  0.97160  0.15067  0.65803  1.0000
  O   O6        1.0  0.52840  0.65067  0.84197  1.0000
  O   O7        1.0  0.02840  0.84933  0.34197  1.0000
  O   O8        1.0  0.47160  0.34933  0.15803  1.0000
  H   H1        1.0  0.98740  0.20460  0.70070  1.0000
  H   H2        1.0  0.51260  0.70460  0.79930  1.0000
  H   H3        1.0  0.01260  0.79540  0.29930  1.0000
  H   H4        1.0  0.48740  0.29540  0.20070  1.0000
  H   H5        1.0  0.10860  0.14280  0.62030  1.0000
  H   H6        1.0  0.39140  0.64280  0.87970  1.0000
  H   H7        1.0  0.89140  0.85720  0.37970  1.0000
  H   H8        1.0  0.60860  0.35720  0.12030  1.0000
  O   O9        1.0  0.11150  0.19795  0.08093  1.0000
  O   O10       1.0  0.38850  0.69795  0.41907  1.0000
  O   O11       1.0  0.88850  0.80205  0.91907  1.0000
  O   O12       1.0  0.61150  0.30205  0.58093  1.0000
  O   O13       1.0  0.12890  0.06142  0.25453  1.0000
  O   O14       1.0  0.37110  0.56142  0.24547  1.0000
  O   O15       1.0  0.87110  0.93858  0.74547  1.0000
  O   O16       1.0  0.62890  0.43858  0.75453  1.0000
  H   H9        1.0  0.01110  0.04660  0.30050  1.0000
  H   H10       1.0  0.48890  0.54660  0.19950  1.0000
  H   H11       1.0  0.98890  0.95340  0.69950  1.0000
  H   H12       1.0  0.51110  0.45340  0.80050  1.0000
  O   O17       1.0  0.95600  0.21656  0.33847  1.0000
  O   O18       1.0  0.54400  0.71656  0.16153  1.0000
  O   O19       1.0  0.04400  0.78344  0.66153  1.0000
  O   O20       1.0  0.45600  0.28344  0.83847  1.0000
  O   O21       1.0  0.74270  0.03973  0.40555  1.0000
  O   O22       1.0  0.75730  0.53973  0.09445  1.0000
  O   O23       1.0  0.25730  0.96027  0.59445  1.0000
  O   O24       1.0  0.24270  0.46027  0.90555  1.0000
  O   O25       1.0  0.55480  0.89953  0.39705  1.0000
  O   O26       1.0  0.94520  0.39953  0.10295  1.0000
  O   O27       1.0  0.44520  0.10047  0.60295  1.0000
  O   O28       1.0  0.05480  0.60047  0.89705  1.0000
  C   C1        1.0  0.58590  0.98244  0.44260  1.0000
  C   C2        1.0  0.91410  0.48244  0.05740  1.0000
  C   C3        1.0  0.41410  0.01756  0.55740  1.0000
  C   C4        1.0  0.08590  0.51756  0.94260  1.0000
