data_image0
_chemical_formula_structural       Mg16P12O24H8O8H8O16H8O64C32
_chemical_formula_sum              "Mg16 P12 O112 H24 C32"
_cell_length_a       15.1014
_cell_length_b       10.9686
_cell_length_c       22.3338
_cell_angle_alpha    90
_cell_angle_beta     103.099
_cell_angle_gamma    90

_space_group_name_H-M_alt    "P 1"
_space_group_IT_number       1

loop_
  _space_group_symop_operation_xyz
  'x, y, z'

loop_
  _atom_site_type_symbol
  _atom_site_label
  _atom_site_symmetry_multiplicity
  _atom_site_fract_x
  _atom_site_fract_y
  _atom_site_fract_z
  _atom_site_occupancy
  Mg  Mg1       1.0  0.48037  0.52588  0.56888  1.0000
  Mg  Mg2       1.0  0.51963  0.52588  0.93112  1.0000
  Mg  Mg3       1.0  0.98037  0.02588  0.56888  1.0000
  Mg  Mg4       1.0  0.01963  0.02588  0.93112  1.0000
  Mg  Mg5       1.0  0.51963  0.47412  0.43112  1.0000
  Mg  Mg6       1.0  0.48037  0.47412  0.06888  1.0000
  Mg  Mg7       1.0  0.01963  0.97412  0.43112  1.0000
  Mg  Mg8       1.0  0.98037  0.97412  0.06888  1.0000
  Mg  Mg9       1.0  0.35481  0.97919  0.62141  1.0000
  Mg  Mg10      1.0  0.64519  0.97919  0.87859  1.0000
  Mg  Mg11      1.0  0.85481  0.47919  0.62141  1.0000
  Mg  Mg12      1.0  0.14519  0.47919  0.87859  1.0000
  Mg  Mg13      1.0  0.64519  0.02081  0.37859  1.0000
  Mg  Mg14      1.0  0.35481  0.02081  0.12141  1.0000
  Mg  Mg15      1.0  0.14519  0.52081  0.37859  1.0000
  Mg  Mg16      1.0  0.85481  0.52081  0.12141  1.0000
  P   P1        1.0  0.38217  0.26051  0.57263  1.0000
  P   P2        1.0  0.61783  0.26051  0.92737  1.0000
  P   P3        1.0  0.88217  0.76051  0.57263  1.0000
  P   P4        1.0  0.11783  0.76051  0.92737  1.0000
  P   P5        1.0  0.61783  0.73949  0.42737  1.0000
  P   P6        1.0  0.38217  0.73949  0.07263  1.0000
  P   P7        1.0  0.11783  0.23949  0.42737  1.0000
  P   P8        1.0  0.88217  0.23949  0.07263  1.0000
  P   P9        1.0  0.50000  0.90285  0.75000  1.0000
  P   P10       1.0  0.00000  0.40285  0.75000  1.0000
  P   P11       1.0  0.50000  0.09715  0.25000  1.0000
  P   P12       1.0  0.00000  0.59715  0.25000  1.0000
  O   O1        1.0  0.45352  0.35575  0.59081  1.0000
  O   O2        1.0  0.54648  0.35575  0.90919  1.0000
  O   O3        1.0  0.95352  0.85575  0.59081  1.0000
  O   O4        1.0  0.04648  0.85575  0.90919  1.0000
  O   O5        1.0  0.54648  0.64425  0.40919  1.0000
  O   O6        1.0  0.45352  0.64425  0.09081  1.0000
  O   O7        1.0  0.04648  0.14425  0.40919  1.0000
  O   O8        1.0  0.95352  0.14425  0.09081  1.0000
  O   O9        1.0  0.39567  0.15167  0.61322  1.0000
  O   O10       1.0  0.60433  0.15167  0.88678  1.0000
  O   O11       1.0  0.89567  0.65167  0.61322  1.0000
  O   O12       1.0  0.10433  0.65167  0.88678  1.0000
  O   O13       1.0  0.60433  0.84833  0.38678  1.0000
  O   O14       1.0  0.39567  0.84833  0.11322  1.0000
  O   O15       1.0  0.10433  0.34833  0.38678  1.0000
  O   O16       1.0  0.89567  0.34833  0.11322  1.0000
  O   O17       1.0  0.28861  0.32050  0.57308  1.0000
  O   O18       1.0  0.71139  0.32050  0.92692  1.0000
  O   O19       1.0  0.78861  0.82050  0.57308  1.0000
  O   O20       1.0  0.21139  0.82050  0.92692  1.0000
  O   O21       1.0  0.71139  0.67950  0.42692  1.0000
  O   O22       1.0  0.28861  0.67950  0.07308  1.0000
  O   O23       1.0  0.21139  0.17950  0.42692  1.0000
  O   O24       1.0  0.78861  0.17950  0.07308  1.0000
  H   H1        1.0  0.24800  0.28330  0.54950  1.0000
  H   H2        1.0  0.75200  0.28330  0.95050  1.0000
  H   H3        1.0  0.74800  0.78330  0.54950  1.0000
  H   H4        1.0  0.25200  0.78330  0.95050  1.0000
  H   H5        1.0  0.75200  0.71670  0.45050  1.0000
  H   H6        1.0  0.24800  0.71670  0.04950  1.0000
  H   H7        1.0  0.25200  0.21670  0.45050  1.0000
  H   H8        1.0  0.74800  0.21670  0.04950  1.0000
  O   O25       1.0  0.37244  0.22180  0.50333  1.0000
  O   O26       1.0  0.62756  0.22180  0.99667  1.0000
  O   O27       1.0  0.87244  0.72180  0.50333  1.0000
  O   O28       1.0  0.12756  0.72180  0.99667  1.0000
  O   O29       1.0  0.62756  0.77820  0.49667  1.0000
  O   O30       1.0  0.37244  0.77820  0.00333  1.0000
  O   O31       1.0  0.12756  0.27820  0.49667  1.0000
  O   O32       1.0  0.87244  0.27820  0.00333  1.0000
  H   H9        1.0  0.42130  0.23100  0.49380  1.0000
  H   H10       1.0  0.57870  0.23100  0.00620  1.0000
  H   H11       1.0  0.92130  0.73100  0.49380  1.0000
  H   H12       1.0  0.07870  0.73100  0.00620  1.0000
  H   H13       1.0  0.57870  0.76900  0.50620  1.0000
  H   H14       1.0  0.42130  0.76900  0.99380  1.0000
  H   H15       1.0  0.07870  0.26900  0.50620  1.0000
  H   H16       1.0  0.92130  0.26900  0.99380  1.0000
  O   O33       1.0  0.44018  0.97817  0.70376  1.0000
  O   O34       1.0  0.55982  0.97817  0.79624  1.0000
  O   O35       1.0  0.94018  0.47817  0.70376  1.0000
  O   O36       1.0  0.05982  0.47817  0.79624  1.0000
  O   O37       1.0  0.55982  0.02183  0.29624  1.0000
  O   O38       1.0  0.44018  0.02183  0.20376  1.0000
  O   O39       1.0  0.05982  0.52183  0.29624  1.0000
  O   O40       1.0  0.94018  0.52183  0.20376  1.0000
  O   O41       1.0  0.44789  0.81710  0.78617  1.0000
  O   O42       1.0  0.55211  0.81710  0.71383  1.0000
  O   O43       1.0  0.94789  0.31710  0.78617  1.0000
  O   O44       1.0  0.05211  0.31710  0.71383  1.0000
  O   O45       1.0  0.55211  0.18290  0.21383  1.0000
  O   O46       1.0  0.44789  0.18290  0.28617  1.0000
  O   O47       1.0  0.05211  0.68290  0.21383  1.0000
  O   O48       1.0  0.94789  0.68290  0.28617  1.0000
  H   H17       1.0  0.43480  0.75340  0.76700  1.0000
  H   H18       1.0  0.56520  0.75340  0.73300  1.0000
  H   H19       1.0  0.93480  0.25340  0.76700  1.0000
  H   H20       1.0  0.06520  0.25340  0.73300  1.0000
  H   H21       1.0  0.56520  0.24660  0.23300  1.0000
  H   H22       1.0  0.43480  0.24660  0.26700  1.0000
  H   H23       1.0  0.06520  0.74660  0.23300  1.0000
  H   H24       1.0  0.93480  0.74660  0.26700  1.0000
  O   O49       1.0  0.49868  0.71672  0.55183  1.0000
  O   O50       1.0  0.50132  0.71672  0.94817  1.0000
  O   O51       1.0  0.99868  0.21672  0.55183  1.0000
  O   O52       1.0  0.00132  0.21672  0.94817  1.0000
  O   O53       1.0  0.50132  0.28328  0.44817  1.0000
  O   O54       1.0  0.49868  0.28328  0.05183  1.0000
  O   O55       1.0  0.00132  0.78328  0.44817  1.0000
  O   O56       1.0  0.99868  0.78328  0.05183  1.0000
  O   O57       1.0  0.44511  0.89928  0.57289  1.0000
  O   O58       1.0  0.55489  0.89928  0.92711  1.0000
  O   O59       1.0  0.94511  0.39928  0.57289  1.0000
  O   O60       1.0  0.05489  0.39928  0.92711  1.0000
  O   O61       1.0  0.55489  0.10072  0.42711  1.0000
  O   O62       1.0  0.44511  0.10072  0.07289  1.0000
  O   O63       1.0  0.05489  0.60072  0.42711  1.0000
  O   O64       1.0  0.94511  0.60072  0.07289  1.0000
  O   O65       1.0  0.38947  0.60680  0.61245  1.0000
  O   O66       1.0  0.61053  0.60680  0.88755  1.0000
  O   O67       1.0  0.88947  0.10680  0.61245  1.0000
  O   O68       1.0  0.11053  0.10680  0.88755  1.0000
  O   O69       1.0  0.61053  0.39320  0.38755  1.0000
  O   O70       1.0  0.38947  0.39320  0.11245  1.0000
  O   O71       1.0  0.11053  0.89320  0.38755  1.0000
  O   O72       1.0  0.88947  0.89320  0.11245  1.0000
  O   O73       1.0  0.32852  0.78565  0.62815  1.0000
  O   O74       1.0  0.67148  0.78565  0.87185  1.0000
  O   O75       1.0  0.82852  0.28565  0.62815  1.0000
  O   O76       1.0  0.17148  0.28565  0.87185  1.0000
  O   O77       1.0  0.67148  0.21435  0.37185  1.0000
  O   O78       1.0  0.32852  0.21435  0.12815  1.0000
  O   O79       1.0  0.17148  0.71435  0.37185  1.0000
  O   O80       1.0  0.82852  0.71435  0.12815  1.0000
  O   O81       1.0  0.58832  0.49040  0.52357  1.0000
  O   O82       1.0  0.41168  0.49040  0.97643  1.0000
  O   O83       1.0  0.08832  0.99040  0.52357  1.0000
  O   O84       1.0  0.91168  0.99040  0.97643  1.0000
  O   O85       1.0  0.41168  0.50960  0.47643  1.0000
  O   O86       1.0  0.58832  0.50960  0.02357  1.0000
  O   O87       1.0  0.91168  0.00960  0.47643  1.0000
  O   O88       1.0  0.08832  0.00960  0.02357  1.0000
  O   O89       1.0  0.74054  0.48181  0.54412  1.0000
  O   O90       1.0  0.25946  0.48181  0.95588  1.0000
  O   O91       1.0  0.24054  0.98181  0.54412  1.0000
  O   O92       1.0  0.75946  0.98181  0.95588  1.0000
  O   O93       1.0  0.25946  0.51819  0.45588  1.0000
  O   O94       1.0  0.74054  0.51819  0.04412  1.0000
  O   O95       1.0  0.75946  0.01819  0.45588  1.0000
  O   O96       1.0  0.24054  0.01819  0.04412  1.0000
  O   O97       1.0  0.59438  0.52987  0.64161  1.0000
  O   O98       1.0  0.40562  0.52987  0.85839  1.0000
  O   O99       1.0  0.09438  0.02987  0.64161  1.0000
  O   O100      1.0  0.90562  0.02987  0.85839  1.0000
  O   O101      1.0  0.40562  0.47013  0.35839  1.0000
  O   O102      1.0  0.59438  0.47013  0.14161  1.0000
  O   O103      1.0  0.90562  0.97013  0.35839  1.0000
  O   O104      1.0  0.09438  0.97013  0.14161  1.0000
  O   O105      1.0  0.74560  0.51379  0.66293  1.0000
  O   O106      1.0  0.25440  0.51379  0.83707  1.0000
  O   O107      1.0  0.24560  0.01379  0.66293  1.0000
  O   O108      1.0  0.75440  0.01379  0.83707  1.0000
  O   O109      1.0  0.25440  0.48621  0.33707  1.0000
  O   O110      1.0  0.74560  0.48621  0.16293  1.0000
  O   O111      1.0  0.75440  0.98621  0.33707  1.0000
  O   O112      1.0  0.24560  0.98621  0.16293  1.0000
  C   C1        1.0  0.44854  0.78680  0.57483  1.0000
  C   C2        1.0  0.55146  0.78680  0.92517  1.0000
  C   C3        1.0  0.94854  0.28680  0.57483  1.0000
  C   C4        1.0  0.05146  0.28680  0.92517  1.0000
  C   C5        1.0  0.55146  0.21320  0.42517  1.0000
  C   C6        1.0  0.44854  0.21320  0.07483  1.0000
  C   C7        1.0  0.05146  0.71320  0.42517  1.0000
  C   C8        1.0  0.94854  0.71320  0.07483  1.0000
  C   C9        1.0  0.38303  0.72040  0.60843  1.0000
  C   C10       1.0  0.61697  0.72040  0.89157  1.0000
  C   C11       1.0  0.88303  0.22040  0.60843  1.0000
  C   C12       1.0  0.11697  0.22040  0.89157  1.0000
  C   C13       1.0  0.61697  0.27960  0.39157  1.0000
  C   C14       1.0  0.38303  0.27960  0.10843  1.0000
  C   C15       1.0  0.11697  0.77960  0.39157  1.0000
  C   C16       1.0  0.88303  0.77960  0.10843  1.0000
  C   C17       1.0  0.66698  0.49410  0.55839  1.0000
  C   C18       1.0  0.33302  0.49410  0.94161  1.0000
  C   C19       1.0  0.16698  0.99410  0.55839  1.0000
  C   C20       1.0  0.83302  0.99410  0.94161  1.0000
  C   C21       1.0  0.33302  0.50590  0.44161  1.0000
  C   C22       1.0  0.66698  0.50590  0.05839  1.0000
  C   C23       1.0  0.83302  0.00590  0.44161  1.0000
  C   C24       1.0  0.16698  0.00590  0.05839  1.0000
  C   C25       1.0  0.66945  0.51520  0.62757  1.0000
  C   C26       1.0  0.33055  0.51520  0.87243  1.0000
  C   C27       1.0  0.16945  0.01520  0.62757  1.0000
  C   C28       1.0  0.83055  0.01520  0.87243  1.0000
  C   C29       1.0  0.33055  0.48480  0.37243  1.0000
  C   C30       1.0  0.66945  0.48480  0.12757  1.0000
  C   C31       1.0  0.83055  0.98480  0.37243  1.0000
  C   C32       1.0  0.16945  0.98480  0.12757  1.0000
