data_image0
_chemical_formula_structural       Mg8P8O24H8O8H8O32C16
_chemical_formula_sum              "Mg8 P8 O64 H16 C16"
_cell_length_a       8.23203
_cell_length_b       16.3423
_cell_length_c       13.2813
_cell_angle_alpha    90
_cell_angle_beta     90
_cell_angle_gamma    90

_space_group_name_H-M_alt    "P 1"
_space_group_IT_number       1

loop_
  _space_group_symop_operation_xyz
  'x, y, z'

loop_
  _atom_site_type_symbol
  _atom_site_label
  _atom_site_symmetry_multiplicity
  _atom_site_fract_x
  _atom_site_fract_y
  _atom_site_fract_z
  _atom_site_occupancy
  Mg  Mg1       1.0  0.79894  0.58229  0.63166  1.0000
  Mg  Mg2       1.0  0.70106  0.91771  0.63166  1.0000
  Mg  Mg3       1.0  0.20106  0.08229  0.86834  1.0000
  Mg  Mg4       1.0  0.29894  0.41771  0.86834  1.0000
  Mg  Mg5       1.0  0.20106  0.41771  0.36834  1.0000
  Mg  Mg6       1.0  0.29894  0.08229  0.36834  1.0000
  Mg  Mg7       1.0  0.79894  0.91771  0.13166  1.0000
  Mg  Mg8       1.0  0.70106  0.58229  0.13166  1.0000
  P   P1        1.0  0.93283  0.43414  0.77734  1.0000
  P   P2        1.0  0.56717  0.06586  0.77734  1.0000
  P   P3        1.0  0.06717  0.93414  0.72266  1.0000
  P   P4        1.0  0.43283  0.56586  0.72266  1.0000
  P   P5        1.0  0.06717  0.56586  0.22266  1.0000
  P   P6        1.0  0.43283  0.93414  0.22266  1.0000
  P   P7        1.0  0.93283  0.06586  0.27734  1.0000
  P   P8        1.0  0.56717  0.43414  0.27734  1.0000
  O   O1        1.0  0.86310  0.51606  0.75269  1.0000
  O   O2        1.0  0.63690  0.98394  0.75269  1.0000
  O   O3        1.0  0.13690  0.01606  0.74731  1.0000
  O   O4        1.0  0.36310  0.48394  0.74731  1.0000
  O   O5        1.0  0.13690  0.48394  0.24731  1.0000
  O   O6        1.0  0.36310  0.01606  0.24731  1.0000
  O   O7        1.0  0.86310  0.98394  0.25269  1.0000
  O   O8        1.0  0.63690  0.51606  0.25269  1.0000
  O   O9        1.0  0.05610  0.43500  0.85987  1.0000
  O   O10       1.0  0.44390  0.06500  0.85987  1.0000
  O   O11       1.0  0.94390  0.93500  0.64013  1.0000
  O   O12       1.0  0.55610  0.56500  0.64013  1.0000
  O   O13       1.0  0.94390  0.56500  0.14013  1.0000
  O   O14       1.0  0.55610  0.93500  0.14013  1.0000
  O   O15       1.0  0.05610  0.06500  0.35987  1.0000
  O   O16       1.0  0.44390  0.43500  0.35987  1.0000
  O   O17       1.0  0.00900  0.39595  0.67865  1.0000
  O   O18       1.0  0.49100  0.10405  0.67865  1.0000
  O   O19       1.0  0.99100  0.89595  0.82135  1.0000
  O   O20       1.0  0.50900  0.60405  0.82135  1.0000
  O   O21       1.0  0.99100  0.60405  0.32135  1.0000
  O   O22       1.0  0.50900  0.89595  0.32135  1.0000
  O   O23       1.0  0.00900  0.10405  0.17865  1.0000
  O   O24       1.0  0.49100  0.39595  0.17865  1.0000
  H   H1        1.0  0.09310  0.37170  0.69300  1.0000
  H   H2        1.0  0.40690  0.12830  0.69300  1.0000
  H   H3        1.0  0.90690  0.87170  0.80700  1.0000
  H   H4        1.0  0.59310  0.62830  0.80700  1.0000
  H   H5        1.0  0.90690  0.62830  0.30700  1.0000
  H   H6        1.0  0.59310  0.87170  0.30700  1.0000
  H   H7        1.0  0.09310  0.12830  0.19300  1.0000
  H   H8        1.0  0.40690  0.37170  0.19300  1.0000
  O   O25       1.0  0.79380  0.37207  0.80180  1.0000
  O   O26       1.0  0.70620  0.12793  0.80180  1.0000
  O   O27       1.0  0.20620  0.87207  0.69820  1.0000
  O   O28       1.0  0.29380  0.62793  0.69820  1.0000
  O   O29       1.0  0.20620  0.62793  0.19820  1.0000
  O   O30       1.0  0.29380  0.87207  0.19820  1.0000
  O   O31       1.0  0.79380  0.12793  0.30180  1.0000
  O   O32       1.0  0.70620  0.37207  0.30180  1.0000
  H   H9        1.0  0.73470  0.39130  0.84560  1.0000
  H   H10       1.0  0.76530  0.10870  0.84560  1.0000
  H   H11       1.0  0.26530  0.89130  0.65440  1.0000
  H   H12       1.0  0.23470  0.60870  0.65440  1.0000
  H   H13       1.0  0.26530  0.60870  0.15440  1.0000
  H   H14       1.0  0.23470  0.89130  0.15440  1.0000
  H   H15       1.0  0.73470  0.10870  0.34560  1.0000
  H   H16       1.0  0.76530  0.39130  0.34560  1.0000
  O   O33       1.0  0.79060  0.49525  0.51554  1.0000
  O   O34       1.0  0.70940  0.00475  0.51554  1.0000
  O   O35       1.0  0.20940  0.99525  0.98446  1.0000
  O   O36       1.0  0.29060  0.50475  0.98446  1.0000
  O   O37       1.0  0.20940  0.50475  0.48446  1.0000
  O   O38       1.0  0.29060  0.99525  0.48446  1.0000
  O   O39       1.0  0.79060  0.00475  0.01554  1.0000
  O   O40       1.0  0.70940  0.49525  0.01554  1.0000
  O   O41       1.0  0.95360  0.42332  0.41374  1.0000
  O   O42       1.0  0.54640  0.07668  0.41374  1.0000
  O   O43       1.0  0.04640  0.92332  0.08626  1.0000
  O   O44       1.0  0.45360  0.57668  0.08626  1.0000
  O   O45       1.0  0.04640  0.57668  0.58626  1.0000
  O   O46       1.0  0.45360  0.92332  0.58626  1.0000
  O   O47       1.0  0.95360  0.07668  0.91374  1.0000
  O   O48       1.0  0.54640  0.42332  0.91374  1.0000
  O   O49       1.0  0.76870  0.68207  0.53270  1.0000
  O   O50       1.0  0.73130  0.81793  0.53270  1.0000
  O   O51       1.0  0.23130  0.18207  0.96730  1.0000
  O   O52       1.0  0.26870  0.31793  0.96730  1.0000
  O   O53       1.0  0.23130  0.31793  0.46730  1.0000
  O   O54       1.0  0.26870  0.18207  0.46730  1.0000
  O   O55       1.0  0.76870  0.81793  0.03270  1.0000
  O   O56       1.0  0.73130  0.68207  0.03270  1.0000
  O   O57       1.0  0.71820  0.81663  0.73321  1.0000
  O   O58       1.0  0.78180  0.68337  0.73321  1.0000
  O   O59       1.0  0.28180  0.31663  0.76679  1.0000
  O   O60       1.0  0.21820  0.18337  0.76679  1.0000
  O   O61       1.0  0.28180  0.18337  0.26679  1.0000
  O   O62       1.0  0.21820  0.31663  0.26679  1.0000
  O   O63       1.0  0.71820  0.68337  0.23321  1.0000
  O   O64       1.0  0.78180  0.81663  0.23321  1.0000
  C   C1        1.0  0.92520  0.47666  0.47940  1.0000
  C   C2        1.0  0.57480  0.02334  0.47940  1.0000
  C   C3        1.0  0.07480  0.97666  0.02060  1.0000
  C   C4        1.0  0.42520  0.52334  0.02060  1.0000
  C   C5        1.0  0.07480  0.52334  0.52060  1.0000
  C   C6        1.0  0.42520  0.97666  0.52060  1.0000
  C   C7        1.0  0.92520  0.02334  0.97940  1.0000
  C   C8        1.0  0.57480  0.47666  0.97940  1.0000
  C   C9        1.0  0.75000  0.75000  0.57420  1.0000
  C   C10       1.0  0.25000  0.25000  0.92580  1.0000
  C   C11       1.0  0.25000  0.25000  0.42580  1.0000
  C   C12       1.0  0.75000  0.75000  0.07420  1.0000
  C   C13       1.0  0.75000  0.75000  0.69170  1.0000
  C   C14       1.0  0.25000  0.25000  0.80830  1.0000
  C   C15       1.0  0.25000  0.25000  0.30830  1.0000
  C   C16       1.0  0.75000  0.75000  0.19170  1.0000
