data_image0
_chemical_formula_structural       Mg4P3O3HOHO4HO3HOHO16C8
_chemical_formula_sum              "Mg4 P3 O28 H5 C8"
_cell_length_a       7.7738
_cell_length_b       9.484
_cell_length_c       11.9243
_cell_angle_alpha    78.102
_cell_angle_beta     78.574
_cell_angle_gamma    86.183

_space_group_name_H-M_alt    "P 1"
_space_group_IT_number       1

loop_
  _space_group_symop_operation_xyz
  'x, y, z'

loop_
  _atom_site_type_symbol
  _atom_site_label
  _atom_site_symmetry_multiplicity
  _atom_site_fract_x
  _atom_site_fract_y
  _atom_site_fract_z
  _atom_site_occupancy
  Mg  Mg1       1.0  0.99660  0.58361  0.18645  1.0000
  Mg  Mg2       1.0  0.31510  0.47640  0.99669  1.0000
  Mg  Mg3       1.0  0.12550  0.02620  0.39627  1.0000
  Mg  Mg4       1.0  0.21590  0.04510  0.77128  1.0000
  P   P1        1.0  0.61886  0.50132  0.15414  1.0000
  P   P2        1.0  0.43332  0.14659  0.49998  1.0000
  P   P3        1.0  0.94541  0.88414  0.67153  1.0000
  O   O1        1.0  0.52020  0.52700  0.05490  1.0000
  O   O2        1.0  0.80250  0.55130  0.11410  1.0000
  O   O3        1.0  0.52950  0.59440  0.24800  1.0000
  H   H1        1.0  0.42340  0.58190  0.26380  1.0000
  O   O4        1.0  0.60970  0.34190  0.21750  1.0000
  H   H2        1.0  0.54660  0.33570  0.28210  1.0000
  O   O5        1.0  0.35880  0.04730  0.43940  1.0000
  O   O6        1.0  0.32980  0.15300  0.61800  1.0000
  O   O7        1.0  0.47350  0.29530  0.42620  1.0000
  O   O8        1.0  0.62210  0.07350  0.52180  1.0000
  H   H3        1.0  0.69450  0.13660  0.50930  1.0000
  O   O9        1.0  0.03210  0.89460  0.54710  1.0000
  O   O10       1.0  0.98810  0.00160  0.72750  1.0000
  O   O11       1.0  0.73960  0.87490  0.68820  1.0000
  H   H4        1.0  0.69810  0.95400  0.66280  1.0000
  O   O12       1.0  0.99510  0.73500  0.74210  1.0000
  H   H5        1.0  0.90540  0.69390  0.77850  1.0000
  O   O13       1.0  0.87900  0.77120  0.23590  1.0000
  O   O14       1.0  0.92730  0.95420  0.31630  1.0000
  O   O15       1.0  0.18800  0.65490  0.26570  1.0000
  O   O16       1.0  0.25300  0.84740  0.32790  1.0000
  O   O17       1.0  0.16030  0.40570  0.15800  1.0000
  O   O18       1.0  0.19950  0.17290  0.23570  1.0000
  O   O19       1.0  0.91680  0.43410  0.34300  1.0000
  O   O20       1.0  0.96060  0.20360  0.42450  1.0000
  O   O21       1.0  0.35050  0.85070  0.75260  1.0000
  O   O22       1.0  0.39130  0.62510  0.84160  1.0000
  O   O23       1.0  0.12700  0.89880  0.94400  1.0000
  O   O24       1.0  0.15720  0.66570  0.02640  1.0000
  O   O25       1.0  0.07780  0.21770  0.83670  1.0000
  O   O26       1.0  0.11820  0.39970  0.92240  1.0000
  O   O27       1.0  0.39870  0.11780  0.85490  1.0000
  O   O28       1.0  0.44070  0.29530  0.94230  1.0000
  C   C1        1.0  0.96860  0.84110  0.28100  1.0000
  C   C2        1.0  0.15370  0.77560  0.29300  1.0000
  C   C3        1.0  0.13080  0.29350  0.23740  1.0000
  C   C4        1.0  0.98750  0.31320  0.34550  1.0000
  C   C5        1.0  0.32220  0.74780  0.83640  1.0000
  C   C6        1.0  0.18860  0.77520  0.94600  1.0000
  C   C7        1.0  0.16500  0.28840  0.88280  1.0000
  C   C8        1.0  0.35210  0.22740  0.89400  1.0000
