data_image0
_chemical_formula_structural       Mg4P4O8H2O4H2O2H2O20H4C8
_chemical_formula_sum              "Mg4 P4 O34 H10 C8"
_cell_length_a       9.3254
_cell_length_b       9.428
_cell_length_c       14.306
_cell_angle_alpha    96.449
_cell_angle_beta     103.879
_cell_angle_gamma    104.35

_space_group_name_H-M_alt    "P 1"
_space_group_IT_number       1

loop_
  _space_group_symop_operation_xyz
  'x, y, z'

loop_
  _atom_site_type_symbol
  _atom_site_label
  _atom_site_symmetry_multiplicity
  _atom_site_fract_x
  _atom_site_fract_y
  _atom_site_fract_z
  _atom_site_occupancy
  Mg  Mg1       1.0  0.20695  0.48237  0.89214  1.0000
  Mg  Mg2       1.0  0.79305  0.51763  0.10786  1.0000
  Mg  Mg3       1.0  0.16084  0.29821  0.53675  1.0000
  Mg  Mg4       1.0  0.83916  0.70179  0.46325  1.0000
  P   P1        1.0  0.33949  0.59343  0.71123  1.0000
  P   P2        1.0  0.66051  0.40657  0.28877  1.0000
  P   P3        1.0  0.38416  0.14903  0.43207  1.0000
  P   P4        1.0  0.61584  0.85097  0.56793  1.0000
  O   O1        1.0  0.25911  0.59703  0.79062  1.0000
  O   O2        1.0  0.74089  0.40297  0.20938  1.0000
  O   O3        1.0  0.31249  0.44102  0.65459  1.0000
  O   O4        1.0  0.68751  0.55898  0.34541  1.0000
  O   O5        1.0  0.51454  0.66767  0.75113  1.0000
  O   O6        1.0  0.48546  0.33233  0.24887  1.0000
  O   O7        1.0  0.27001  0.69471  0.64198  1.0000
  O   O8        1.0  0.72999  0.30529  0.35802  1.0000
  H   H1        1.0  0.33180  0.73040  0.61270  1.0000
  H   H2        1.0  0.66820  0.26960  0.38730  1.0000
  O   O9        1.0  0.33980  0.26533  0.48894  1.0000
  O   O10       1.0  0.66020  0.73467  0.51106  1.0000
  O   O11       1.0  0.33020  0.14850  0.32177  1.0000
  O   O12       1.0  0.66980  0.85150  0.67823  1.0000
  H   H3        1.0  0.39170  0.21470  0.30710  1.0000
  H   H4        1.0  0.60830  0.78530  0.69290  1.0000
  O   O13       1.0  0.29260  0.99020  0.44178  1.0000
  O   O14       1.0  0.70740  0.00980  0.55822  1.0000
  H   H5        1.0  0.35250  0.95010  0.47250  1.0000
  H   H6        1.0  0.64750  0.04990  0.52750  1.0000
  O   O15       1.0  0.55640  0.17150  0.46475  1.0000
  O   O16       1.0  0.44360  0.82850  0.53525  1.0000
  O   O17       1.0  0.05086  0.60278  0.91350  1.0000
  O   O18       1.0  0.94914  0.39722  0.08650  1.0000
  O   O19       1.0  0.88683  0.62010  0.00228  1.0000
  O   O20       1.0  0.11317  0.37990  0.99772  1.0000
  O   O21       1.0  0.39429  0.62770  0.00460  1.0000
  O   O22       1.0  0.60571  0.37230  0.99540  1.0000
  O   O23       1.0  0.63122  0.63904  0.09309  1.0000
  O   O24       1.0  0.36878  0.36096  0.90691  1.0000
  O   O25       1.0  0.99605  0.12868  0.42257  1.0000
  O   O26       1.0  0.00395  0.87132  0.57743  1.0000
  O   O27       1.0  0.87423  0.88553  0.39272  1.0000
  O   O28       1.0  0.12577  0.11447  0.60728  1.0000
  O   O29       1.0  0.12749  0.44567  0.44259  1.0000
  O   O30       1.0  0.87251  0.55433  0.55741  1.0000
  O   O31       1.0  0.01410  0.62725  0.42108  1.0000
  O   O32       1.0  0.98590  0.37275  0.57892  1.0000
  O   O33       1.0  0.05290  0.31170  0.78648  1.0000
  O   O34       1.0  0.94710  0.68830  0.21352  1.0000
  H   H7        1.0  0.97730  0.24770  0.79400  1.0000
  H   H8        1.0  0.02270  0.75230  0.20600  1.0000
  H   H9        1.0  0.03120  0.32050  0.72740  1.0000
  H   H10       1.0  0.96880  0.67950  0.27260  1.0000
  C   C1        1.0  0.98180  0.56550  0.97538  1.0000
  C   C2        1.0  0.01820  0.43450  0.02462  1.0000
  C   C3        1.0  0.50640  0.57750  0.02772  1.0000
  C   C4        1.0  0.49360  0.42250  0.97228  1.0000
  C   C5        1.0  0.96220  0.00460  0.44620  1.0000
  C   C6        1.0  0.03780  0.99540  0.55380  1.0000
  C   C7        1.0  0.04110  0.52240  0.46020  1.0000
  C   C8        1.0  0.95890  0.47760  0.53980  1.0000
