data_image0
_chemical_formula_structural       W40Sb4Mn4O100H8O44C4H8C4H8N4H8N4H12
_chemical_formula_sum              "W40 Sb4 Mn4 O144 H44 C8 N8"
_cell_length_a       13.2483
_cell_length_b       18.2721
_cell_length_c       17.7852
_cell_angle_alpha    90
_cell_angle_beta     90.178
_cell_angle_gamma    90

_space_group_name_H-M_alt    "P 1"
_space_group_IT_number       1

loop_
  _space_group_symop_operation_xyz
  'x, y, z'

loop_
  _atom_site_type_symbol
  _atom_site_label
  _atom_site_symmetry_multiplicity
  _atom_site_fract_x
  _atom_site_fract_y
  _atom_site_fract_z
  _atom_site_occupancy
  W   W1        1.0  0.46305  0.86884  0.02762  1.0000
  W   W2        1.0  0.03695  0.36884  0.47238  1.0000
  W   W3        1.0  0.53695  0.13116  0.97238  1.0000
  W   W4        1.0  0.96305  0.63116  0.52762  1.0000
  W   W5        1.0  0.29543  0.92483  0.77479  1.0000
  W   W6        1.0  0.20457  0.42483  0.72521  1.0000
  W   W7        1.0  0.70457  0.07517  0.22521  1.0000
  W   W8        1.0  0.79543  0.57517  0.27479  1.0000
  W   W9        1.0  0.38990  0.25659  0.05725  1.0000
  W   W10       1.0  0.11010  0.75659  0.44275  1.0000
  W   W11       1.0  0.61010  0.74341  0.94275  1.0000
  W   W12       1.0  0.88990  0.24341  0.55725  1.0000
  W   W13       1.0  0.37027  0.76480  0.88688  1.0000
  W   W14       1.0  0.12973  0.26480  0.61312  1.0000
  W   W15       1.0  0.62973  0.23520  0.11312  1.0000
  W   W16       1.0  0.87027  0.73520  0.38688  1.0000
  W   W17       1.0  0.19523  0.12232  0.10696  1.0000
  W   W18       1.0  0.30477  0.62232  0.39304  1.0000
  W   W19       1.0  0.80477  0.87768  0.89304  1.0000
  W   W20       1.0  0.69523  0.37768  0.60696  1.0000
  W   W21       1.0  0.29200  0.21671  0.24710  1.0000
  W   W22       1.0  0.20800  0.71671  0.25290  1.0000
  W   W23       1.0  0.70800  0.78329  0.75290  1.0000
  W   W24       1.0  0.79200  0.28329  0.74710  1.0000
  W   W25       1.0  0.24986  0.03613  0.26835  1.0000
  W   W26       1.0  0.25014  0.53613  0.23165  1.0000
  W   W27       1.0  0.75014  0.96387  0.73165  1.0000
  W   W28       1.0  0.74986  0.46387  0.76835  1.0000
  W   W29       1.0  0.51316  0.01526  0.33010  1.0000
  W   W30       1.0  0.98684  0.51526  0.16990  1.0000
  W   W31       1.0  0.48684  0.98474  0.66990  1.0000
  W   W32       1.0  0.01316  0.48474  0.83010  1.0000
  W   W33       1.0  0.44127  0.80439  0.69118  1.0000
  W   W34       1.0  0.05873  0.30439  0.80882  1.0000
  W   W35       1.0  0.55873  0.19561  0.30882  1.0000
  W   W36       1.0  0.94127  0.69561  0.19118  1.0000
  W   W37       1.0  0.28306  0.02156  0.94917  1.0000
  W   W38       1.0  0.21694  0.52156  0.55083  1.0000
  W   W39       1.0  0.71694  0.97844  0.05083  1.0000
  W   W40       1.0  0.78306  0.47844  0.44917  1.0000
  Sb  Sb1       1.0  0.54464  0.93542  0.85716  1.0000
  Sb  Sb2       1.0  0.95536  0.43542  0.64284  1.0000
  Sb  Sb3       1.0  0.45536  0.06458  0.14284  1.0000
  Sb  Sb4       1.0  0.04464  0.56458  0.35716  1.0000
  Mn  Mn1       1.0  0.38928  0.86602  0.23587  1.0000
  Mn  Mn2       1.0  0.11072  0.36602  0.26413  1.0000
  Mn  Mn3       1.0  0.61072  0.13398  0.76413  1.0000
  Mn  Mn4       1.0  0.88928  0.63398  0.73587  1.0000
  O   O1        1.0  0.18090  0.20190  0.17420  1.0000
  O   O2        1.0  0.31910  0.70190  0.32580  1.0000
  O   O3        1.0  0.81910  0.79810  0.82580  1.0000
  O   O4        1.0  0.68090  0.29810  0.67420  1.0000
  O   O5        1.0  0.41910  0.85960  0.12040  1.0000
  O   O6        1.0  0.08090  0.35960  0.37960  1.0000
  O   O7        1.0  0.58090  0.14040  0.87960  1.0000
  O   O8        1.0  0.91910  0.64040  0.62040  1.0000
  O   O9        1.0  0.41300  0.21000  0.30060  1.0000
  O   O10       1.0  0.08700  0.71000  0.19940  1.0000
  O   O11       1.0  0.58700  0.79000  0.69940  1.0000
  O   O12       1.0  0.91300  0.29000  0.80060  1.0000
  O   O13       1.0  0.22970  0.14170  0.30300  1.0000
  O   O14       1.0  0.27030  0.64170  0.19700  1.0000
  O   O15       1.0  0.77030  0.85830  0.69700  1.0000
  O   O16       1.0  0.72970  0.35830  0.80300  1.0000
  O   O17       1.0  0.37150  0.04160  0.32810  1.0000
  O   O18       1.0  0.12850  0.54160  0.17190  1.0000
  O   O19       1.0  0.62850  0.95840  0.67190  1.0000
  O   O20       1.0  0.87150  0.45840  0.82810  1.0000
  O   O21       1.0  0.26390  0.04530  0.05510  1.0000
  O   O22       1.0  0.23610  0.54530  0.44490  1.0000
  O   O23       1.0  0.73610  0.95470  0.94490  1.0000
  O   O24       1.0  0.76390  0.45470  0.55510  1.0000
  O   O25       1.0  0.33880  0.98300  0.69270  1.0000
  O   O26       1.0  0.16120  0.48300  0.80730  1.0000
  O   O27       1.0  0.66120  0.01700  0.30730  1.0000
  O   O28       1.0  0.83880  0.51700  0.19270  1.0000
  O   O29       1.0  0.35940  0.26040  0.16420  1.0000
  O   O30       1.0  0.14060  0.76040  0.33580  1.0000
  O   O31       1.0  0.64060  0.73960  0.83580  1.0000
  O   O32       1.0  0.85940  0.23960  0.66420  1.0000
  O   O33       1.0  0.33790  0.98960  0.85010  1.0000
  O   O34       1.0  0.16210  0.48960  0.64990  1.0000
  O   O35       1.0  0.66210  0.01040  0.14990  1.0000
  O   O36       1.0  0.83790  0.51040  0.35010  1.0000
  O   O37       1.0  0.57730  0.92200  0.03870  1.0000
  O   O38       1.0  0.92270  0.42200  0.46130  1.0000
  O   O39       1.0  0.42270  0.07800  0.96130  1.0000
  O   O40       1.0  0.07730  0.57800  0.53870  1.0000
  O   O41       1.0  0.28250  0.18790  0.05070  1.0000
  O   O42       1.0  0.21750  0.68790  0.44930  1.0000
  O   O43       1.0  0.71750  0.81210  0.94930  1.0000
  O   O44       1.0  0.78250  0.31210  0.55070  1.0000
  O   O45       1.0  0.44890  0.22350  0.96830  1.0000
  O   O46       1.0  0.05110  0.72350  0.53170  1.0000
  O   O47       1.0  0.55110  0.77650  0.03170  1.0000
  O   O48       1.0  0.94890  0.27650  0.46830  1.0000
  O   O49       1.0  0.46550  0.90620  0.76620  1.0000
  O   O50       1.0  0.03450  0.40620  0.73380  1.0000
  O   O51       1.0  0.53450  0.09380  0.23380  1.0000
  O   O52       1.0  0.96550  0.59380  0.26620  1.0000
  O   O53       1.0  0.29640  0.96050  0.21750  1.0000
  O   O54       1.0  0.20360  0.46050  0.28250  1.0000
  O   O55       1.0  0.70360  0.03950  0.78250  1.0000
  O   O56       1.0  0.79640  0.53950  0.71750  1.0000
  O   O57       1.0  0.66760  0.88920  0.81250  1.0000
  O   O58       1.0  0.83240  0.38920  0.68750  1.0000
  O   O59       1.0  0.33240  0.11080  0.18750  1.0000
  O   O60       1.0  0.16760  0.61080  0.31250  1.0000
  O   O61       1.0  0.27640  0.69930  0.88390  1.0000
  O   O62       1.0  0.22360  0.19930  0.61610  1.0000
  O   O63       1.0  0.72360  0.30070  0.11610  1.0000
  O   O64       1.0  0.77640  0.80070  0.38390  1.0000
  O   O65       1.0  0.53590  0.11680  0.37450  1.0000
  O   O66       1.0  0.96410  0.61680  0.12550  1.0000
  O   O67       1.0  0.46410  0.88320  0.62550  1.0000
  O   O68       1.0  0.03590  0.38320  0.87450  1.0000
  O   O69       1.0  0.51680  0.29900  0.08710  1.0000
  O   O70       1.0  0.98320  0.79900  0.41290  1.0000
  O   O71       1.0  0.48320  0.70100  0.91290  1.0000
  O   O72       1.0  0.01680  0.20100  0.58710  1.0000
  O   O73       1.0  0.36050  0.79460  0.98730  1.0000
  O   O74       1.0  0.13950  0.29460  0.51270  1.0000
  O   O75       1.0  0.63950  0.20540  0.01270  1.0000
  O   O76       1.0  0.86050  0.70540  0.48730  1.0000
  O   O77       1.0  0.30130  0.84810  0.85050  1.0000
  O   O78       1.0  0.19870  0.34810  0.64950  1.0000
  O   O79       1.0  0.69870  0.15190  0.14950  1.0000
  O   O80       1.0  0.80130  0.65190  0.35050  1.0000
  O   O81       1.0  0.23840  0.29280  0.28910  1.0000
  O   O82       1.0  0.26160  0.79280  0.21090  1.0000
  O   O83       1.0  0.76160  0.70720  0.71090  1.0000
  O   O84       1.0  0.73840  0.20720  0.78910  1.0000
  O   O85       1.0  0.16500  0.99820  0.33120  1.0000
  O   O86       1.0  0.33500  0.49820  0.16880  1.0000
  O   O87       1.0  0.83500  0.00180  0.66880  1.0000
  O   O88       1.0  0.66500  0.50180  0.83120  1.0000
  O   O89       1.0  0.49560  0.94710  0.26100  1.0000
  O   O90       1.0  0.00440  0.44710  0.23900  1.0000
  O   O91       1.0  0.50440  0.05290  0.73900  1.0000
  O   O92       1.0  0.99560  0.55290  0.76100  1.0000
  O   O93       1.0  0.41410  0.73560  0.62860  1.0000
  O   O94       1.0  0.08590  0.23560  0.87140  1.0000
  O   O95       1.0  0.58590  0.26440  0.37140  1.0000
  O   O96       1.0  0.91410  0.76440  0.12860  1.0000
  O   O97       1.0  0.33950  0.86540  0.35450  1.0000
  O   O98       1.0  0.16050  0.36540  0.14550  1.0000
  O   O99       1.0  0.66050  0.13460  0.64550  1.0000
  O   O100      1.0  0.83950  0.63460  0.85450  1.0000
  H   H1        1.0  0.36830  0.82410  0.38020  1.0000
  H   H2        1.0  0.13170  0.32410  0.11980  1.0000
  H   H3        1.0  0.63170  0.17590  0.61980  1.0000
  H   H4        1.0  0.86830  0.67590  0.88020  1.0000
  H   H5        1.0  0.26720  0.86190  0.35550  1.0000
  H   H6        1.0  0.23280  0.36190  0.14450  1.0000
  H   H7        1.0  0.73280  0.13810  0.64450  1.0000
  H   H8        1.0  0.76720  0.63810  0.85550  1.0000
  O   O101      1.0  0.38170  0.93960  0.99060  1.0000
  O   O102      1.0  0.11830  0.43960  0.50940  1.0000
  O   O103      1.0  0.61830  0.06040  0.00940  1.0000
  O   O104      1.0  0.88170  0.56040  0.49060  1.0000
  O   O105      1.0  0.08130  0.12900  0.05920  1.0000
  O   O106      1.0  0.41870  0.62900  0.44080  1.0000
  O   O107      1.0  0.91870  0.87100  0.94080  1.0000
  O   O108      1.0  0.58130  0.37100  0.55920  1.0000
  O   O109      1.0  0.50890  0.84320  0.91090  1.0000
  O   O110      1.0  0.99110  0.34320  0.58910  1.0000
  O   O111      1.0  0.49110  0.15680  0.08910  1.0000
  O   O112      1.0  0.00890  0.65680  0.41090  1.0000
  O   O113      1.0  0.30640  0.84140  0.70610  1.0000
  O   O114      1.0  0.19360  0.34140  0.79390  1.0000
  O   O115      1.0  0.69360  0.15860  0.29390  1.0000
  O   O116      1.0  0.80640  0.65860  0.20610  1.0000
  O   O117      1.0  0.42520  0.75660  0.78530  1.0000
  O   O118      1.0  0.07480  0.25660  0.71470  1.0000
  O   O119      1.0  0.57480  0.24340  0.21470  1.0000
  O   O120      1.0  0.92520  0.74340  0.28530  1.0000
  O   O121      1.0  0.15300  0.05830  0.18640  1.0000
  O   O122      1.0  0.34700  0.55830  0.31360  1.0000
  O   O123      1.0  0.84700  0.94170  0.81360  1.0000
  O   O124      1.0  0.65300  0.44170  0.68640  1.0000
  O   O125      1.0  0.51850  0.96830  0.41460  1.0000
  O   O126      1.0  0.98150  0.46830  0.08540  1.0000
  O   O127      1.0  0.48150  0.03170  0.58540  1.0000
  O   O128      1.0  0.01850  0.53170  0.91460  1.0000
  O   O129      1.0  0.22620  0.09920  0.91080  1.0000
  O   O130      1.0  0.27380  0.59920  0.58920  1.0000
  O   O131      1.0  0.77380  0.90080  0.08920  1.0000
  O   O132      1.0  0.72620  0.40080  0.41080  1.0000
  O   O133      1.0  0.32900  0.33520  0.02680  1.0000
  O   O134      1.0  0.17100  0.83520  0.47320  1.0000
  O   O135      1.0  0.67100  0.66480  0.97320  1.0000
  O   O136      1.0  0.82900  0.16480  0.52680  1.0000
  O   O137      1.0  0.18080  0.95950  0.94670  1.0000
  O   O138      1.0  0.31920  0.45950  0.55330  1.0000
  O   O139      1.0  0.81920  0.04050  0.05330  1.0000
  O   O140      1.0  0.68080  0.54050  0.44670  1.0000
  O   O141      1.0  0.16670  0.93930  0.76950  1.0000
  O   O142      1.0  0.33330  0.43930  0.73050  1.0000
  O   O143      1.0  0.83330  0.06070  0.23050  1.0000
  O   O144      1.0  0.66670  0.56070  0.26950  1.0000
  C   C1        1.0  0.59500  0.77970  0.27680  1.0000
  C   C2        1.0  0.90500  0.27970  0.22320  1.0000
  C   C3        1.0  0.40500  0.22030  0.72320  1.0000
  C   C4        1.0  0.09500  0.72030  0.77680  1.0000
  H   H9        1.0  0.62500  0.73190  0.28450  1.0000
  H   H10       1.0  0.87500  0.23190  0.21550  1.0000
  H   H11       1.0  0.37500  0.26810  0.71550  1.0000
  H   H12       1.0  0.12500  0.76810  0.78450  1.0000
  H   H13       1.0  0.59560  0.80510  0.32470  1.0000
  H   H14       1.0  0.90440  0.30510  0.17530  1.0000
  H   H15       1.0  0.40440  0.19490  0.67530  1.0000
  H   H16       1.0  0.09560  0.69490  0.82470  1.0000
  C   C5        1.0  0.65910  0.82190  0.22200  1.0000
  C   C6        1.0  0.84090  0.32190  0.27800  1.0000
  C   C7        1.0  0.34090  0.17810  0.77800  1.0000
  C   C8        1.0  0.15910  0.67810  0.72200  1.0000
  H   H17       1.0  0.62270  0.86550  0.20660  1.0000
  H   H18       1.0  0.87730  0.36550  0.29340  1.0000
  H   H19       1.0  0.37730  0.13450  0.79340  1.0000
  H   H20       1.0  0.12270  0.63450  0.70660  1.0000
  H   H21       1.0  0.72030  0.83750  0.24730  1.0000
  H   H22       1.0  0.77970  0.33750  0.25270  1.0000
  H   H23       1.0  0.27970  0.16250  0.75270  1.0000
  H   H24       1.0  0.22030  0.66250  0.74730  1.0000
  N   N1        1.0  0.49170  0.77030  0.25270  1.0000
  N   N2        1.0  0.00830  0.27030  0.24730  1.0000
  N   N3        1.0  0.50830  0.22970  0.74730  1.0000
  N   N4        1.0  0.99170  0.72970  0.75270  1.0000
  H   H25       1.0  0.46220  0.74110  0.28610  1.0000
  H   H26       1.0  0.03780  0.24110  0.21390  1.0000
  H   H27       1.0  0.53780  0.25890  0.71390  1.0000
  H   H28       1.0  0.96220  0.75890  0.78610  1.0000
  H   H29       1.0  0.49320  0.74590  0.20940  1.0000
  H   H30       1.0  0.00680  0.24590  0.29060  1.0000
  H   H31       1.0  0.50680  0.25410  0.79060  1.0000
  H   H32       1.0  0.99320  0.75410  0.70940  1.0000
  N   N5        1.0  0.68670  0.78000  0.15440  1.0000
  N   N6        1.0  0.81330  0.28000  0.34560  1.0000
  N   N7        1.0  0.31330  0.22000  0.84560  1.0000
  N   N8        1.0  0.18670  0.72000  0.65440  1.0000
  H   H33       1.0  0.72200  0.74060  0.16790  1.0000
  H   H34       1.0  0.77800  0.24060  0.33210  1.0000
  H   H35       1.0  0.27800  0.25940  0.83210  1.0000
  H   H36       1.0  0.22200  0.75940  0.66790  1.0000
  H   H37       1.0  0.72390  0.80790  0.12430  1.0000
  H   H38       1.0  0.77610  0.30790  0.37570  1.0000
  H   H39       1.0  0.27610  0.19210  0.87570  1.0000
  H   H40       1.0  0.22390  0.69210  0.62430  1.0000
  H   H41       1.0  0.63100  0.76610  0.13030  1.0000
  H   H42       1.0  0.86900  0.26610  0.36970  1.0000
  H   H43       1.0  0.36900  0.23390  0.86970  1.0000
  H   H44       1.0  0.13100  0.73390  0.63030  1.0000
