data_image0
_chemical_formula_structural       W40Sb4Co4O100H8O44C4H8C4H8N4H8N4H12
_chemical_formula_sum              "W40 Sb4 Co4 O144 H44 C8 N8"
_cell_length_a       13.2483
_cell_length_b       18.2721
_cell_length_c       17.7852
_cell_angle_alpha    90
_cell_angle_beta     90.178
_cell_angle_gamma    90

_space_group_name_H-M_alt    "P 1"
_space_group_IT_number       1

loop_
  _space_group_symop_operation_xyz
  'x, y, z'

loop_
  _atom_site_type_symbol
  _atom_site_label
  _atom_site_symmetry_multiplicity
  _atom_site_fract_x
  _atom_site_fract_y
  _atom_site_fract_z
  _atom_site_occupancy
  W   W1        1.0  0.46381  0.86702  0.02839  1.0000
  W   W2        1.0  0.03619  0.36702  0.47161  1.0000
  W   W3        1.0  0.53619  0.13298  0.97161  1.0000
  W   W4        1.0  0.96381  0.63298  0.52839  1.0000
  W   W5        1.0  0.29795  0.92595  0.77423  1.0000
  W   W6        1.0  0.20205  0.42595  0.72577  1.0000
  W   W7        1.0  0.70205  0.07405  0.22577  1.0000
  W   W8        1.0  0.79795  0.57405  0.27423  1.0000
  W   W9        1.0  0.38726  0.25556  0.05863  1.0000
  W   W10       1.0  0.11274  0.75556  0.44137  1.0000
  W   W11       1.0  0.61274  0.74444  0.94137  1.0000
  W   W12       1.0  0.88726  0.24444  0.55863  1.0000
  W   W13       1.0  0.37391  0.76517  0.88513  1.0000
  W   W14       1.0  0.12609  0.26517  0.61487  1.0000
  W   W15       1.0  0.62609  0.23483  0.11487  1.0000
  W   W16       1.0  0.87391  0.73483  0.38513  1.0000
  W   W17       1.0  0.19509  0.11940  0.10745  1.0000
  W   W18       1.0  0.30491  0.61940  0.39255  1.0000
  W   W19       1.0  0.80491  0.88060  0.89255  1.0000
  W   W20       1.0  0.69509  0.38060  0.60745  1.0000
  W   W21       1.0  0.28887  0.21455  0.24832  1.0000
  W   W22       1.0  0.21113  0.71455  0.25168  1.0000
  W   W23       1.0  0.71113  0.78545  0.75168  1.0000
  W   W24       1.0  0.78887  0.28545  0.74832  1.0000
  W   W25       1.0  0.25004  0.03260  0.26799  1.0000
  W   W26       1.0  0.24996  0.53260  0.23201  1.0000
  W   W27       1.0  0.74996  0.96740  0.73201  1.0000
  W   W28       1.0  0.75004  0.46740  0.76799  1.0000
  W   W29       1.0  0.51179  0.01172  0.32898  1.0000
  W   W30       1.0  0.98821  0.51172  0.17102  1.0000
  W   W31       1.0  0.48821  0.98828  0.67102  1.0000
  W   W32       1.0  0.01179  0.48828  0.82898  1.0000
  W   W33       1.0  0.44471  0.80670  0.68954  1.0000
  W   W34       1.0  0.05529  0.30670  0.81046  1.0000
  W   W35       1.0  0.55529  0.19330  0.31046  1.0000
  W   W36       1.0  0.94471  0.69330  0.18954  1.0000
  W   W37       1.0  0.28708  0.02062  0.95021  1.0000
  W   W38       1.0  0.21292  0.52062  0.54979  1.0000
  W   W39       1.0  0.71292  0.97938  0.04979  1.0000
  W   W40       1.0  0.78708  0.47938  0.45021  1.0000
  Sb  Sb1       1.0  0.54582  0.93633  0.85766  1.0000
  Sb  Sb2       1.0  0.95418  0.43633  0.64234  1.0000
  Sb  Sb3       1.0  0.45418  0.06367  0.14234  1.0000
  Sb  Sb4       1.0  0.04582  0.56367  0.35766  1.0000
  Co  Co1       1.0  0.38845  0.86511  0.23342  1.0000
  Co  Co2       1.0  0.11155  0.36511  0.26658  1.0000
  Co  Co3       1.0  0.61155  0.13489  0.76658  1.0000
  Co  Co4       1.0  0.88845  0.63489  0.73342  1.0000
  O   O1        1.0  0.17930  0.19830  0.17530  1.0000
  O   O2        1.0  0.32070  0.69830  0.32470  1.0000
  O   O3        1.0  0.82070  0.80170  0.82470  1.0000
  O   O4        1.0  0.67930  0.30170  0.67530  1.0000
  O   O5        1.0  0.42180  0.85900  0.12080  1.0000
  O   O6        1.0  0.07820  0.35900  0.37920  1.0000
  O   O7        1.0  0.57820  0.14100  0.87920  1.0000
  O   O8        1.0  0.92180  0.64100  0.62080  1.0000
  O   O9        1.0  0.41100  0.20890  0.30040  1.0000
  O   O10       1.0  0.08900  0.70890  0.19960  1.0000
  O   O11       1.0  0.58900  0.79110  0.69960  1.0000
  O   O12       1.0  0.91100  0.29110  0.80040  1.0000
  O   O13       1.0  0.23110  0.13890  0.30370  1.0000
  O   O14       1.0  0.26890  0.63890  0.19630  1.0000
  O   O15       1.0  0.76890  0.86110  0.69630  1.0000
  O   O16       1.0  0.73110  0.36110  0.80370  1.0000
  O   O17       1.0  0.37160  0.03910  0.32790  1.0000
  O   O18       1.0  0.12840  0.53910  0.17210  1.0000
  O   O19       1.0  0.62840  0.96090  0.67210  1.0000
  O   O20       1.0  0.87160  0.46090  0.82790  1.0000
  O   O21       1.0  0.26460  0.04350  0.05690  1.0000
  O   O22       1.0  0.23540  0.54350  0.44310  1.0000
  O   O23       1.0  0.73540  0.95650  0.94310  1.0000
  O   O24       1.0  0.76460  0.45650  0.55690  1.0000
  O   O25       1.0  0.34110  0.98570  0.69270  1.0000
  O   O26       1.0  0.15890  0.48570  0.80730  1.0000
  O   O27       1.0  0.65890  0.01430  0.30730  1.0000
  O   O28       1.0  0.84110  0.51430  0.19270  1.0000
  O   O29       1.0  0.35510  0.25770  0.16520  1.0000
  O   O30       1.0  0.14490  0.75770  0.33480  1.0000
  O   O31       1.0  0.64490  0.74230  0.83480  1.0000
  O   O32       1.0  0.85510  0.24230  0.66520  1.0000
  O   O33       1.0  0.33810  0.99080  0.84900  1.0000
  O   O34       1.0  0.16190  0.49080  0.65100  1.0000
  O   O35       1.0  0.66190  0.00920  0.15100  1.0000
  O   O36       1.0  0.83810  0.50920  0.34900  1.0000
  O   O37       1.0  0.57710  0.92150  0.03820  1.0000
  O   O38       1.0  0.92290  0.42150  0.46180  1.0000
  O   O39       1.0  0.42290  0.07850  0.96180  1.0000
  O   O40       1.0  0.07710  0.57850  0.53820  1.0000
  O   O41       1.0  0.28000  0.18600  0.05190  1.0000
  O   O42       1.0  0.22000  0.68600  0.44810  1.0000
  O   O43       1.0  0.72000  0.81400  0.94810  1.0000
  O   O44       1.0  0.78000  0.31400  0.55190  1.0000
  O   O45       1.0  0.44660  0.22360  0.96890  1.0000
  O   O46       1.0  0.05340  0.72360  0.53110  1.0000
  O   O47       1.0  0.55340  0.77640  0.03110  1.0000
  O   O48       1.0  0.94660  0.27640  0.46890  1.0000
  O   O49       1.0  0.46700  0.90770  0.76570  1.0000
  O   O50       1.0  0.03300  0.40770  0.73430  1.0000
  O   O51       1.0  0.53300  0.09230  0.23430  1.0000
  O   O52       1.0  0.96700  0.59230  0.26570  1.0000
  O   O53       1.0  0.29620  0.95640  0.21760  1.0000
  O   O54       1.0  0.20380  0.45640  0.28240  1.0000
  O   O55       1.0  0.70380  0.04360  0.78240  1.0000
  O   O56       1.0  0.79620  0.54360  0.71760  1.0000
  O   O57       1.0  0.66890  0.89110  0.81220  1.0000
  O   O58       1.0  0.83110  0.39110  0.68780  1.0000
  O   O59       1.0  0.33110  0.10890  0.18780  1.0000
  O   O60       1.0  0.16890  0.60890  0.31220  1.0000
  O   O61       1.0  0.28080  0.70100  0.88200  1.0000
  O   O62       1.0  0.21920  0.20100  0.61800  1.0000
  O   O63       1.0  0.71920  0.29900  0.11800  1.0000
  O   O64       1.0  0.78080  0.79900  0.38200  1.0000
  O   O65       1.0  0.53370  0.11370  0.37580  1.0000
  O   O66       1.0  0.96630  0.61370  0.12420  1.0000
  O   O67       1.0  0.46630  0.88630  0.62420  1.0000
  O   O68       1.0  0.03370  0.38630  0.87580  1.0000
  O   O69       1.0  0.51420  0.29830  0.08760  1.0000
  O   O70       1.0  0.98580  0.79830  0.41240  1.0000
  O   O71       1.0  0.48580  0.70170  0.91240  1.0000
  O   O72       1.0  0.01420  0.20170  0.58760  1.0000
  O   O73       1.0  0.36410  0.79300  0.98640  1.0000
  O   O74       1.0  0.13590  0.29300  0.51360  1.0000
  O   O75       1.0  0.63590  0.20700  0.01360  1.0000
  O   O76       1.0  0.86410  0.70700  0.48640  1.0000
  O   O77       1.0  0.30350  0.84880  0.84980  1.0000
  O   O78       1.0  0.19650  0.34880  0.65020  1.0000
  O   O79       1.0  0.69650  0.15120  0.15020  1.0000
  O   O80       1.0  0.80350  0.65120  0.34980  1.0000
  O   O81       1.0  0.23300  0.29000  0.29050  1.0000
  O   O82       1.0  0.26700  0.79000  0.20950  1.0000
  O   O83       1.0  0.76700  0.71000  0.70950  1.0000
  O   O84       1.0  0.73300  0.21000  0.79050  1.0000
  O   O85       1.0  0.16690  0.99470  0.33110  1.0000
  O   O86       1.0  0.33310  0.49470  0.16890  1.0000
  O   O87       1.0  0.83310  0.00530  0.66890  1.0000
  O   O88       1.0  0.66690  0.50530  0.83110  1.0000
  O   O89       1.0  0.49190  0.94290  0.26090  1.0000
  O   O90       1.0  0.00810  0.44290  0.23910  1.0000
  O   O91       1.0  0.50810  0.05710  0.73910  1.0000
  O   O92       1.0  0.99190  0.55710  0.76090  1.0000
  O   O93       1.0  0.41630  0.73840  0.62640  1.0000
  O   O94       1.0  0.08370  0.23840  0.87360  1.0000
  O   O95       1.0  0.58370  0.26160  0.37360  1.0000
  O   O96       1.0  0.91630  0.76160  0.12640  1.0000
  O   O97       1.0  0.33870  0.86460  0.34690  1.0000
  O   O98       1.0  0.16130  0.36460  0.15310  1.0000
  O   O99       1.0  0.66130  0.13540  0.65310  1.0000
  O   O100      1.0  0.83870  0.63540  0.84690  1.0000
  H   H1        1.0  0.36750  0.82340  0.37260  1.0000
  H   H2        1.0  0.13250  0.32340  0.12740  1.0000
  H   H3        1.0  0.63250  0.17660  0.62740  1.0000
  H   H4        1.0  0.86750  0.67660  0.87260  1.0000
  H   H5        1.0  0.26650  0.86110  0.34790  1.0000
  H   H6        1.0  0.23350  0.36110  0.15210  1.0000
  H   H7        1.0  0.73350  0.13890  0.65210  1.0000
  H   H8        1.0  0.76650  0.63890  0.84790  1.0000
  O   O101      1.0  0.38420  0.93790  0.99120  1.0000
  O   O102      1.0  0.11580  0.43790  0.50880  1.0000
  O   O103      1.0  0.61580  0.06210  0.00880  1.0000
  O   O104      1.0  0.88420  0.56210  0.49120  1.0000
  O   O105      1.0  0.08400  0.12570  0.05900  1.0000
  O   O106      1.0  0.41600  0.62570  0.44100  1.0000
  O   O107      1.0  0.91600  0.87430  0.94100  1.0000
  O   O108      1.0  0.58400  0.37430  0.55900  1.0000
  O   O109      1.0  0.50980  0.84360  0.91050  1.0000
  O   O110      1.0  0.99020  0.34360  0.58950  1.0000
  O   O111      1.0  0.49020  0.15640  0.08950  1.0000
  O   O112      1.0  0.00980  0.65640  0.41050  1.0000
  O   O113      1.0  0.30980  0.84290  0.70610  1.0000
  O   O114      1.0  0.19020  0.34290  0.79390  1.0000
  O   O115      1.0  0.69020  0.15710  0.29390  1.0000
  O   O116      1.0  0.80980  0.65710  0.20610  1.0000
  O   O117      1.0  0.42870  0.75820  0.78400  1.0000
  O   O118      1.0  0.07130  0.25820  0.71600  1.0000
  O   O119      1.0  0.57130  0.24180  0.21600  1.0000
  O   O120      1.0  0.92870  0.74180  0.28400  1.0000
  O   O121      1.0  0.15310  0.05580  0.18680  1.0000
  O   O122      1.0  0.34690  0.55580  0.31320  1.0000
  O   O123      1.0  0.84690  0.94420  0.81320  1.0000
  O   O124      1.0  0.65310  0.44420  0.68680  1.0000
  O   O125      1.0  0.51760  0.96490  0.41240  1.0000
  O   O126      1.0  0.98240  0.46490  0.08760  1.0000
  O   O127      1.0  0.48240  0.03510  0.58760  1.0000
  O   O128      1.0  0.01760  0.53510  0.91240  1.0000
  O   O129      1.0  0.22370  0.09970  0.91250  1.0000
  O   O130      1.0  0.27630  0.59970  0.58750  1.0000
  O   O131      1.0  0.77630  0.90030  0.08750  1.0000
  O   O132      1.0  0.72370  0.40030  0.41250  1.0000
  O   O133      1.0  0.32770  0.33270  0.02830  1.0000
  O   O134      1.0  0.17230  0.83270  0.47170  1.0000
  O   O135      1.0  0.67230  0.66730  0.97170  1.0000
  O   O136      1.0  0.82770  0.16730  0.52830  1.0000
  O   O137      1.0  0.18130  0.95630  0.94630  1.0000
  O   O138      1.0  0.31870  0.45630  0.55370  1.0000
  O   O139      1.0  0.81870  0.04370  0.05370  1.0000
  O   O140      1.0  0.68130  0.54370  0.44630  1.0000
  O   O141      1.0  0.17020  0.93900  0.76970  1.0000
  O   O142      1.0  0.32980  0.43900  0.73030  1.0000
  O   O143      1.0  0.82980  0.06100  0.23030  1.0000
  O   O144      1.0  0.67020  0.56100  0.26970  1.0000
  C   C1        1.0  0.59010  0.78490  0.27750  1.0000
  C   C2        1.0  0.90990  0.28490  0.22250  1.0000
  C   C3        1.0  0.40990  0.21510  0.72250  1.0000
  C   C4        1.0  0.09010  0.71510  0.77750  1.0000
  H   H9        1.0  0.61900  0.73670  0.28540  1.0000
  H   H10       1.0  0.88100  0.23670  0.21460  1.0000
  H   H11       1.0  0.38100  0.26330  0.71460  1.0000
  H   H12       1.0  0.11900  0.76330  0.78540  1.0000
  H   H13       1.0  0.59080  0.81010  0.32550  1.0000
  H   H14       1.0  0.90920  0.31010  0.17450  1.0000
  H   H15       1.0  0.40920  0.18990  0.67450  1.0000
  H   H16       1.0  0.09080  0.68990  0.82550  1.0000
  C   C5        1.0  0.65710  0.82720  0.22220  1.0000
  C   C6        1.0  0.84290  0.32720  0.27780  1.0000
  C   C7        1.0  0.34290  0.17280  0.77780  1.0000
  C   C8        1.0  0.15710  0.67280  0.72220  1.0000
  H   H17       1.0  0.62050  0.86940  0.20350  1.0000
  H   H18       1.0  0.87950  0.36940  0.29650  1.0000
  H   H19       1.0  0.37950  0.13060  0.79650  1.0000
  H   H20       1.0  0.12050  0.63060  0.70350  1.0000
  H   H21       1.0  0.71690  0.84450  0.24830  1.0000
  H   H22       1.0  0.78310  0.34450  0.25170  1.0000
  H   H23       1.0  0.28310  0.15550  0.75170  1.0000
  H   H24       1.0  0.21690  0.65550  0.74830  1.0000
  N   N1        1.0  0.48570  0.77630  0.25310  1.0000
  N   N2        1.0  0.01430  0.27630  0.24690  1.0000
  N   N3        1.0  0.51430  0.22370  0.74690  1.0000
  N   N4        1.0  0.98570  0.72370  0.75310  1.0000
  H   H25       1.0  0.45530  0.74790  0.28760  1.0000
  H   H26       1.0  0.04470  0.24790  0.21240  1.0000
  H   H27       1.0  0.54470  0.25210  0.71240  1.0000
  H   H28       1.0  0.95530  0.75210  0.78760  1.0000
  H   H29       1.0  0.48730  0.75020  0.21020  1.0000
  H   H30       1.0  0.01270  0.25020  0.28980  1.0000
  H   H31       1.0  0.51270  0.24980  0.78980  1.0000
  H   H32       1.0  0.98730  0.74980  0.71020  1.0000
  N   N5        1.0  0.68770  0.78060  0.15800  1.0000
  N   N6        1.0  0.81230  0.28060  0.34200  1.0000
  N   N7        1.0  0.31230  0.21940  0.84200  1.0000
  N   N8        1.0  0.18770  0.71940  0.65800  1.0000
  H   H33       1.0  0.72750  0.74470  0.17450  1.0000
  H   H34       1.0  0.77250  0.24470  0.32550  1.0000
  H   H35       1.0  0.27250  0.25530  0.82550  1.0000
  H   H36       1.0  0.22750  0.75530  0.67450  1.0000
  H   H37       1.0  0.72100  0.80760  0.12460  1.0000
  H   H38       1.0  0.77900  0.30760  0.37540  1.0000
  H   H39       1.0  0.27900  0.19240  0.87540  1.0000
  H   H40       1.0  0.22100  0.69240  0.62460  1.0000
  H   H41       1.0  0.63310  0.76140  0.13640  1.0000
  H   H42       1.0  0.86690  0.26140  0.36360  1.0000
  H   H43       1.0  0.36690  0.23860  0.86360  1.0000
  H   H44       1.0  0.13310  0.73860  0.63640  1.0000
