data_image0
_chemical_formula_structural       Ce4O32H16C8O4C12H4O4C8H4C8H4C12H4C4H4C4H4C8O4
_chemical_formula_sum              "Ce4 O44 H40 C64"
_cell_length_a       16.2883
_cell_length_b       8.5827
_cell_length_c       19.2359
_cell_angle_alpha    90
_cell_angle_beta     114.725
_cell_angle_gamma    90

_space_group_name_H-M_alt    "P 1"
_space_group_IT_number       1

loop_
  _space_group_symop_operation_xyz
  'x, y, z'

loop_
  _atom_site_type_symbol
  _atom_site_label
  _atom_site_symmetry_multiplicity
  _atom_site_fract_x
  _atom_site_fract_y
  _atom_site_fract_z
  _atom_site_occupancy
  Ce  Ce1       1.0  0.13445  0.08935  0.53701  1.0000
  Ce  Ce2       1.0  0.86555  0.58935  0.96299  1.0000
  Ce  Ce3       1.0  0.86555  0.91065  0.46299  1.0000
  Ce  Ce4       1.0  0.13445  0.41065  0.03701  1.0000
  O   O1        1.0  0.23437  0.19590  0.67517  1.0000
  O   O2        1.0  0.76563  0.69590  0.82483  1.0000
  O   O3        1.0  0.76563  0.80410  0.32483  1.0000
  O   O4        1.0  0.23437  0.30410  0.17517  1.0000
  O   O5        1.0  0.09103  0.14190  0.64566  1.0000
  O   O6        1.0  0.90897  0.64190  0.85434  1.0000
  O   O7        1.0  0.90897  0.85810  0.35434  1.0000
  O   O8        1.0  0.09103  0.35810  0.14566  1.0000
  O   O9        1.0  0.11268  0.87450  0.43735  1.0000
  O   O10       1.0  0.88732  0.37450  0.06265  1.0000
  O   O11       1.0  0.88732  0.12550  0.56265  1.0000
  O   O12       1.0  0.11268  0.62550  0.93735  1.0000
  O   O13       1.0  0.09616  0.38370  0.53692  1.0000
  O   O14       1.0  0.90384  0.88370  0.96308  1.0000
  O   O15       1.0  0.90384  0.61630  0.46308  1.0000
  O   O16       1.0  0.09616  0.11630  0.03692  1.0000
  O   O17       1.0  0.22678  0.87400  0.61166  1.0000
  O   O18       1.0  0.77322  0.37400  0.88834  1.0000
  O   O19       1.0  0.77322  0.12600  0.38834  1.0000
  O   O20       1.0  0.22678  0.62600  0.11166  1.0000
  O   O21       1.0  0.03400  0.86480  0.54965  1.0000
  O   O22       1.0  0.96600  0.36480  0.95035  1.0000
  O   O23       1.0  0.96600  0.13520  0.45035  1.0000
  O   O24       1.0  0.03400  0.63520  0.04965  1.0000
  O   O25       1.0  0.06168  0.18920  0.39995  1.0000
  O   O26       1.0  0.93832  0.68920  0.10005  1.0000
  O   O27       1.0  0.93832  0.81080  0.60005  1.0000
  O   O28       1.0  0.06168  0.31080  0.89995  1.0000
  O   O29       1.0  0.26934  0.15460  0.52479  1.0000
  O   O30       1.0  0.73066  0.65460  0.97521  1.0000
  O   O31       1.0  0.73066  0.84540  0.47521  1.0000
  O   O32       1.0  0.26934  0.34540  0.02479  1.0000
  H   H1        1.0  0.13130  0.79304  0.46464  1.0000
  H   H2        1.0  0.86870  0.29304  0.03536  1.0000
  H   H3        1.0  0.86870  0.20696  0.53536  1.0000
  H   H4        1.0  0.13130  0.70696  0.96464  1.0000
  H   H5        1.0  0.05547  0.86532  0.41674  1.0000
  H   H6        1.0  0.94453  0.36532  0.08326  1.0000
  H   H7        1.0  0.94453  0.13468  0.58326  1.0000
  H   H8        1.0  0.05547  0.63468  0.91674  1.0000
  H   H9        1.0  0.07940  0.47745  0.52486  1.0000
  H   H10       1.0  0.92060  0.97745  0.97514  1.0000
  H   H11       1.0  0.92060  0.52255  0.47514  1.0000
  H   H12       1.0  0.07940  0.02255  0.02486  1.0000
  H   H13       1.0  0.10390  0.37594  0.58331  1.0000
  H   H14       1.0  0.89610  0.87594  0.91669  1.0000
  H   H15       1.0  0.89610  0.62406  0.41669  1.0000
  H   H16       1.0  0.10390  0.12406  0.08331  1.0000
  C   C1        1.0  0.30060  0.16630  0.47450  1.0000
  C   C2        1.0  0.69940  0.66630  0.02550  1.0000
  C   C3        1.0  0.69940  0.83370  0.52550  1.0000
  C   C4        1.0  0.30060  0.33370  0.97450  1.0000
  C   C5        1.0  0.25362  0.27910  0.41057  1.0000
  C   C6        1.0  0.74638  0.77910  0.08943  1.0000
  C   C7        1.0  0.74638  0.72090  0.58943  1.0000
  C   C8        1.0  0.25362  0.22090  0.91057  1.0000
  O   O33       1.0  0.36840  0.09490  0.47794  1.0000
  O   O34       1.0  0.63160  0.59490  0.02206  1.0000
  O   O35       1.0  0.63160  0.90510  0.52206  1.0000
  O   O36       1.0  0.36840  0.40510  0.97794  1.0000
  C   C9        1.0  0.22530  0.42080  0.42785  1.0000
  C   C10       1.0  0.77470  0.92080  0.07215  1.0000
  C   C11       1.0  0.77470  0.57920  0.57215  1.0000
  C   C12       1.0  0.22530  0.07920  0.92785  1.0000
  C   C13       1.0  0.23607  0.24880  0.33455  1.0000
  C   C14       1.0  0.76393  0.74880  0.16545  1.0000
  C   C15       1.0  0.76393  0.75120  0.66545  1.0000
  C   C16       1.0  0.23607  0.25120  0.83455  1.0000
  C   C17       1.0  0.18250  0.53040  0.37255  1.0000
  C   C18       1.0  0.81750  0.03040  0.12745  1.0000
  C   C19       1.0  0.81750  0.46960  0.62745  1.0000
  C   C20       1.0  0.18250  0.96960  0.87255  1.0000
  H   H17       1.0  0.23572  0.44189  0.47827  1.0000
  H   H18       1.0  0.76428  0.94189  0.02173  1.0000
  H   H19       1.0  0.76428  0.55811  0.52173  1.0000
  H   H20       1.0  0.23572  0.05811  0.97827  1.0000
  O   O37       1.0  0.26557  0.10880  0.31663  1.0000
  O   O38       1.0  0.73443  0.60880  0.18337  1.0000
  O   O39       1.0  0.73443  0.89120  0.68337  1.0000
  O   O40       1.0  0.26557  0.39120  0.81663  1.0000
  C   C21       1.0  0.19070  0.35600  0.27745  1.0000
  C   C22       1.0  0.80930  0.85600  0.22255  1.0000
  C   C23       1.0  0.80930  0.64400  0.72255  1.0000
  C   C24       1.0  0.19070  0.14400  0.77745  1.0000
  C   C25       1.0  0.16410  0.49680  0.29752  1.0000
  C   C26       1.0  0.83590  0.99680  0.20248  1.0000
  C   C27       1.0  0.83590  0.50320  0.70248  1.0000
  C   C28       1.0  0.16410  0.00320  0.79752  1.0000
  H   H21       1.0  0.16614  0.62615  0.38559  1.0000
  H   H22       1.0  0.83386  0.12615  0.11441  1.0000
  H   H23       1.0  0.83386  0.37385  0.61441  1.0000
  H   H24       1.0  0.16614  0.87385  0.88559  1.0000
  C   C29       1.0  0.20168  0.01130  0.26503  1.0000
  C   C30       1.0  0.79832  0.51130  0.23497  1.0000
  C   C31       1.0  0.79832  0.98870  0.73497  1.0000
  C   C32       1.0  0.20168  0.48870  0.76503  1.0000
  C   C33       1.0  0.17130  0.33330  0.19450  1.0000
  C   C34       1.0  0.82870  0.83330  0.30550  1.0000
  C   C35       1.0  0.82870  0.66670  0.80550  1.0000
  C   C36       1.0  0.17130  0.16670  0.69450  1.0000
  H   H25       1.0  0.13341  0.56937  0.25960  1.0000
  H   H26       1.0  0.86659  0.06937  0.24040  1.0000
  H   H27       1.0  0.86659  0.43063  0.74040  1.0000
  H   H28       1.0  0.13341  0.93063  0.75960  1.0000
  C   C37       1.0  0.11675  0.98910  0.26342  1.0000
  C   C38       1.0  0.88325  0.48910  0.23658  1.0000
  C   C39       1.0  0.88325  0.01090  0.73658  1.0000
  C   C40       1.0  0.11675  0.51090  0.76342  1.0000
  C   C41       1.0  0.22802  0.93230  0.21497  1.0000
  C   C42       1.0  0.77198  0.43230  0.28503  1.0000
  C   C43       1.0  0.77198  0.06770  0.78503  1.0000
  C   C44       1.0  0.22802  0.56770  0.71497  1.0000
  C   C45       1.0  0.05810  0.88710  0.21009  1.0000
  C   C46       1.0  0.94190  0.38710  0.28991  1.0000
  C   C47       1.0  0.94190  0.11290  0.78991  1.0000
  C   C48       1.0  0.05810  0.61290  0.71009  1.0000
  H   H29       1.0  0.09951  0.04162  0.29747  1.0000
  H   H30       1.0  0.90049  0.54162  0.20253  1.0000
  H   H31       1.0  0.90049  0.95838  0.70253  1.0000
  H   H32       1.0  0.09951  0.45838  0.79747  1.0000
  C   C49       1.0  0.16864  0.83170  0.16079  1.0000
  C   C50       1.0  0.83136  0.33170  0.33921  1.0000
  C   C51       1.0  0.83136  0.16830  0.83921  1.0000
  C   C52       1.0  0.16864  0.66830  0.66079  1.0000
  H   H33       1.0  0.28588  0.94670  0.21769  1.0000
  H   H34       1.0  0.71412  0.44670  0.28231  1.0000
  H   H35       1.0  0.71412  0.05330  0.78231  1.0000
  H   H36       1.0  0.28588  0.55330  0.71769  1.0000
  C   C53       1.0  0.08261  0.80740  0.15827  1.0000
  C   C54       1.0  0.91739  0.30740  0.34173  1.0000
  C   C55       1.0  0.91739  0.19260  0.84173  1.0000
  C   C56       1.0  0.08261  0.69260  0.65827  1.0000
  H   H37       1.0  0.00093  0.87117  0.20865  1.0000
  H   H38       1.0  0.99907  0.37117  0.29135  1.0000
  H   H39       1.0  0.99907  0.12883  0.79135  1.0000
  H   H40       1.0  0.00093  0.62883  0.70865  1.0000
  C   C57       1.0  0.19756  0.76380  0.10221  1.0000
  C   C58       1.0  0.80244  0.26380  0.39779  1.0000
  C   C59       1.0  0.80244  0.23620  0.89779  1.0000
  C   C60       1.0  0.19756  0.73620  0.60221  1.0000
  C   C61       1.0  0.01495  0.70370  0.10045  1.0000
  C   C62       1.0  0.98505  0.20370  0.39955  1.0000
  C   C63       1.0  0.98505  0.29630  0.89955  1.0000
  C   C64       1.0  0.01495  0.79630  0.60045  1.0000
  O   O41       1.0  0.19200  0.85120  0.04870  1.0000
  O   O42       1.0  0.80800  0.35120  0.45130  1.0000
  O   O43       1.0  0.80800  0.14880  0.95130  1.0000
  O   O44       1.0  0.19200  0.64880  0.54870  1.0000
