data_image0
_chemical_formula_structural       La4O32H16C4O4C12O4C8H4C12H4C8H4C4H4C4H8C12O4
_chemical_formula_sum              "La4 O44 H40 C64"
_cell_length_a       16.398
_cell_length_b       8.627
_cell_length_c       19.391
_cell_angle_alpha    90
_cell_angle_beta     115.01
_cell_angle_gamma    90

_space_group_name_H-M_alt    "P 1"
_space_group_IT_number       1

loop_
  _space_group_symop_operation_xyz
  'x, y, z'

loop_
  _atom_site_type_symbol
  _atom_site_label
  _atom_site_symmetry_multiplicity
  _atom_site_fract_x
  _atom_site_fract_y
  _atom_site_fract_z
  _atom_site_occupancy
  La  La1       1.0  0.86535  0.09040  0.96277  1.0000
  La  La2       1.0  0.13465  0.59040  0.53723  1.0000
  La  La3       1.0  0.13465  0.90960  0.03723  1.0000
  La  La4       1.0  0.86535  0.40960  0.46277  1.0000
  O   O1        1.0  0.96540  0.86600  0.94940  1.0000
  O   O2        1.0  0.03460  0.36600  0.55060  1.0000
  O   O3        1.0  0.03460  0.13400  0.05060  1.0000
  O   O4        1.0  0.96540  0.63400  0.44940  1.0000
  O   O5        1.0  0.77260  0.87310  0.88720  1.0000
  O   O6        1.0  0.22740  0.37310  0.61280  1.0000
  O   O7        1.0  0.22740  0.12690  0.11280  1.0000
  O   O8        1.0  0.77260  0.62690  0.38720  1.0000
  O   O9        1.0  0.90370  0.38680  0.96250  1.0000
  O   O10       1.0  0.09630  0.88680  0.53750  1.0000
  O   O11       1.0  0.09630  0.61320  0.03750  1.0000
  O   O12       1.0  0.90370  0.11320  0.46250  1.0000
  O   O13       1.0  0.88950  0.87250  0.06230  1.0000
  O   O14       1.0  0.11050  0.37250  0.43770  1.0000
  O   O15       1.0  0.11050  0.12750  0.93770  1.0000
  O   O16       1.0  0.88950  0.62750  0.56230  1.0000
  O   O17       1.0  0.93940  0.18890  0.10130  1.0000
  O   O18       1.0  0.06060  0.68890  0.39870  1.0000
  O   O19       1.0  0.06060  0.81110  0.89870  1.0000
  O   O20       1.0  0.93940  0.31110  0.60130  1.0000
  O   O21       1.0  0.72910  0.15470  0.97460  1.0000
  O   O22       1.0  0.27090  0.65470  0.52540  1.0000
  O   O23       1.0  0.27090  0.84530  0.02540  1.0000
  O   O24       1.0  0.72910  0.34530  0.47460  1.0000
  O   O25       1.0  0.76600  0.19880  0.82400  1.0000
  O   O26       1.0  0.23400  0.69880  0.67600  1.0000
  O   O27       1.0  0.23400  0.80120  0.17600  1.0000
  O   O28       1.0  0.76600  0.30120  0.32400  1.0000
  O   O29       1.0  0.90930  0.14410  0.85370  1.0000
  O   O30       1.0  0.09070  0.64410  0.64630  1.0000
  O   O31       1.0  0.09070  0.85590  0.14630  1.0000
  O   O32       1.0  0.90930  0.35590  0.35370  1.0000
  H   H1        1.0  0.96021  0.38816  0.98953  1.0000
  H   H2        1.0  0.03979  0.88816  0.51047  1.0000
  H   H3        1.0  0.03979  0.61184  0.01047  1.0000
  H   H4        1.0  0.96021  0.11184  0.48953  1.0000
  H   H5        1.0  0.89028  0.46641  0.93409  1.0000
  H   H6        1.0  0.10972  0.96641  0.56591  1.0000
  H   H7        1.0  0.10972  0.53359  0.06591  1.0000
  H   H8        1.0  0.89028  0.03359  0.43409  1.0000
  H   H9        1.0  0.91694  0.83281  0.10624  1.0000
  H   H10       1.0  0.08306  0.33281  0.39376  1.0000
  H   H11       1.0  0.08306  0.16719  0.89376  1.0000
  H   H12       1.0  0.91694  0.66719  0.60624  1.0000
  H   H13       1.0  0.86609  0.79890  0.03091  1.0000
  H   H14       1.0  0.13391  0.29890  0.46909  1.0000
  H   H15       1.0  0.13391  0.20110  0.96909  1.0000
  H   H16       1.0  0.86609  0.70110  0.53091  1.0000
  C   C1        1.0  0.69700  0.16670  0.02410  1.0000
  C   C2        1.0  0.30300  0.66670  0.47590  1.0000
  C   C3        1.0  0.30300  0.83330  0.97590  1.0000
  C   C4        1.0  0.69700  0.33330  0.52410  1.0000
  O   O33       1.0  0.63040  0.09550  0.02160  1.0000
  O   O34       1.0  0.36960  0.59550  0.47840  1.0000
  O   O35       1.0  0.36960  0.90450  0.97840  1.0000
  O   O36       1.0  0.63040  0.40450  0.52160  1.0000
  C   C5        1.0  0.74500  0.27870  0.08880  1.0000
  C   C6        1.0  0.25500  0.77870  0.41120  1.0000
  C   C7        1.0  0.25500  0.72130  0.91120  1.0000
  C   C8        1.0  0.74500  0.22130  0.58880  1.0000
  C   C9        1.0  0.76380  0.24910  0.16450  1.0000
  C   C10       1.0  0.23620  0.74910  0.33550  1.0000
  C   C11       1.0  0.23620  0.75090  0.83550  1.0000
  C   C12       1.0  0.76380  0.25090  0.66450  1.0000
  C   C13       1.0  0.77280  0.42050  0.07100  1.0000
  C   C14       1.0  0.22720  0.92050  0.42900  1.0000
  C   C15       1.0  0.22720  0.57950  0.92900  1.0000
  C   C16       1.0  0.77280  0.07950  0.57100  1.0000
  O   O37       1.0  0.73420  0.10900  0.18250  1.0000
  O   O38       1.0  0.26580  0.60900  0.31750  1.0000
  O   O39       1.0  0.26580  0.89100  0.81750  1.0000
  O   O40       1.0  0.73420  0.39100  0.68250  1.0000
  C   C17       1.0  0.80800  0.35520  0.22110  1.0000
  C   C18       1.0  0.19200  0.85520  0.27890  1.0000
  C   C19       1.0  0.19200  0.64480  0.77890  1.0000
  C   C20       1.0  0.80800  0.14480  0.72110  1.0000
  C   C21       1.0  0.81620  0.52920  0.12660  1.0000
  C   C22       1.0  0.18380  0.02920  0.37340  1.0000
  C   C23       1.0  0.18380  0.47080  0.87340  1.0000
  C   C24       1.0  0.81620  0.97080  0.62660  1.0000
  H   H17       1.0  0.76181  0.44181  0.02082  1.0000
  H   H18       1.0  0.23819  0.94181  0.47918  1.0000
  H   H19       1.0  0.23819  0.55819  0.97918  1.0000
  H   H20       1.0  0.76181  0.05819  0.52082  1.0000
  C   C25       1.0  0.79740  0.01080  0.23480  1.0000
  C   C26       1.0  0.20260  0.51080  0.26520  1.0000
  C   C27       1.0  0.20260  0.98920  0.76520  1.0000
  C   C28       1.0  0.79740  0.48920  0.73480  1.0000
  C   C29       1.0  0.82840  0.33260  0.30420  1.0000
  C   C30       1.0  0.17160  0.83260  0.19580  1.0000
  C   C31       1.0  0.17160  0.66740  0.69580  1.0000
  C   C32       1.0  0.82840  0.16740  0.80420  1.0000
  C   C33       1.0  0.83550  0.49490  0.20130  1.0000
  C   C34       1.0  0.16450  0.99490  0.29870  1.0000
  C   C35       1.0  0.16450  0.50510  0.79870  1.0000
  C   C36       1.0  0.83550  0.00510  0.70130  1.0000
  H   H21       1.0  0.83228  0.62475  0.11381  1.0000
  H   H22       1.0  0.16772  0.12475  0.38619  1.0000
  H   H23       1.0  0.16772  0.37525  0.88619  1.0000
  H   H24       1.0  0.83228  0.87525  0.61381  1.0000
  C   C37       1.0  0.88220  0.98890  0.23550  1.0000
  C   C38       1.0  0.11780  0.48890  0.26450  1.0000
  C   C39       1.0  0.11780  0.01110  0.76450  1.0000
  C   C40       1.0  0.88220  0.51110  0.73550  1.0000
  C   C41       1.0  0.77140  0.93270  0.28420  1.0000
  C   C42       1.0  0.22860  0.43270  0.21580  1.0000
  C   C43       1.0  0.22860  0.06730  0.71580  1.0000
  C   C44       1.0  0.77140  0.56730  0.78420  1.0000
  H   H25       1.0  0.86742  0.56596  0.23924  1.0000
  H   H26       1.0  0.13258  0.06596  0.26076  1.0000
  H   H27       1.0  0.13258  0.43404  0.76076  1.0000
  H   H28       1.0  0.86742  0.93404  0.73924  1.0000
  C   C45       1.0  0.94110  0.88720  0.28870  1.0000
  C   C46       1.0  0.05890  0.38720  0.21130  1.0000
  C   C47       1.0  0.05890  0.11280  0.71130  1.0000
  C   C48       1.0  0.94110  0.61280  0.78870  1.0000
  H   H29       1.0  0.89863  0.04095  0.20128  1.0000
  H   H30       1.0  0.10137  0.54095  0.29872  1.0000
  H   H31       1.0  0.10137  0.95905  0.79872  1.0000
  H   H32       1.0  0.89863  0.45905  0.70128  1.0000
  C   C49       1.0  0.83140  0.83180  0.33810  1.0000
  C   C50       1.0  0.16860  0.33180  0.16190  1.0000
  C   C51       1.0  0.16860  0.16820  0.66190  1.0000
  C   C52       1.0  0.83140  0.66820  0.83810  1.0000
  H   H33       1.0  0.71399  0.94714  0.28167  1.0000
  H   H34       1.0  0.28601  0.44714  0.21833  1.0000
  H   H35       1.0  0.28601  0.05286  0.71833  1.0000
  H   H36       1.0  0.71399  0.55286  0.78167  1.0000
  H   H37       1.0  0.99781  0.87123  0.29006  1.0000
  H   H38       1.0  0.00219  0.37123  0.20994  1.0000
  H   H39       1.0  0.00219  0.12877  0.70994  1.0000
  H   H40       1.0  0.99781  0.62877  0.79006  1.0000
  C   C53       1.0  0.91690  0.80710  0.34110  1.0000
  C   C54       1.0  0.08310  0.30710  0.15890  1.0000
  C   C55       1.0  0.08310  0.19290  0.65890  1.0000
  C   C56       1.0  0.91690  0.69290  0.84110  1.0000
  C   C57       1.0  0.80290  0.76440  0.39730  1.0000
  C   C58       1.0  0.19710  0.26440  0.10270  1.0000
  C   C59       1.0  0.19710  0.23560  0.60270  1.0000
  C   C60       1.0  0.80290  0.73560  0.89730  1.0000
  C   C61       1.0  0.98450  0.70310  0.39850  1.0000
  C   C62       1.0  0.01550  0.20310  0.10150  1.0000
  C   C63       1.0  0.01550  0.29690  0.60150  1.0000
  C   C64       1.0  0.98450  0.79690  0.89850  1.0000
  O   O41       1.0  0.80820  0.85150  0.45090  1.0000
  O   O42       1.0  0.19180  0.35150  0.04910  1.0000
  O   O43       1.0  0.19180  0.14850  0.54910  1.0000
  O   O44       1.0  0.80820  0.64850  0.95090  1.0000
