data_image0
_chemical_formula_structural       Nd4O32H16C8O4C12O4C4H4C12H8C12H8C12H4C4O4
_chemical_formula_sum              "Nd4 O44 H40 C64"
_cell_length_a       16.2535
_cell_length_b       8.5688
_cell_length_c       19.213
_cell_angle_alpha    90
_cell_angle_beta     114.707
_cell_angle_gamma    90

_space_group_name_H-M_alt    "P 1"
_space_group_IT_number       1

loop_
  _space_group_symop_operation_xyz
  'x, y, z'

loop_
  _atom_site_type_symbol
  _atom_site_label
  _atom_site_symmetry_multiplicity
  _atom_site_fract_x
  _atom_site_fract_y
  _atom_site_fract_z
  _atom_site_occupancy
  Nd  Nd1       1.0  0.63377  0.58829  0.03666  1.0000
  Nd  Nd2       1.0  0.36623  0.08829  0.46334  1.0000
  Nd  Nd3       1.0  0.36623  0.41171  0.96334  1.0000
  Nd  Nd4       1.0  0.63377  0.91171  0.53666  1.0000
  O   O1        1.0  0.59093  0.63830  0.14437  1.0000
  O   O2        1.0  0.40907  0.13830  0.35563  1.0000
  O   O3        1.0  0.40907  0.36170  0.85563  1.0000
  O   O4        1.0  0.59093  0.86170  0.64437  1.0000
  O   O5        1.0  0.73439  0.69360  0.17364  1.0000
  O   O6        1.0  0.26561  0.19360  0.32636  1.0000
  O   O7        1.0  0.26561  0.30640  0.82636  1.0000
  O   O8        1.0  0.73439  0.80640  0.67364  1.0000
  O   O9        1.0  0.61274  0.37820  0.93798  1.0000
  O   O10       1.0  0.38726  0.87820  0.56202  1.0000
  O   O11       1.0  0.38726  0.62180  0.06202  1.0000
  O   O12       1.0  0.61274  0.12180  0.43798  1.0000
  O   O13       1.0  0.59828  0.87960  0.03830  1.0000
  O   O14       1.0  0.40172  0.37960  0.46170  1.0000
  O   O15       1.0  0.40172  0.12040  0.96170  1.0000
  O   O16       1.0  0.59828  0.62040  0.53830  1.0000
  O   O17       1.0  0.76677  0.65430  0.02363  1.0000
  O   O18       1.0  0.23323  0.15430  0.47637  1.0000
  O   O19       1.0  0.23323  0.34570  0.97637  1.0000
  O   O20       1.0  0.76677  0.84570  0.52363  1.0000
  O   O21       1.0  0.56305  0.68960  0.90178  1.0000
  O   O22       1.0  0.43695  0.18960  0.59822  1.0000
  O   O23       1.0  0.43695  0.31040  0.09822  1.0000
  O   O24       1.0  0.56305  0.81040  0.40178  1.0000
  O   O25       1.0  0.53293  0.36480  0.04808  1.0000
  O   O26       1.0  0.46707  0.86480  0.45192  1.0000
  O   O27       1.0  0.46707  0.63520  0.95192  1.0000
  O   O28       1.0  0.53293  0.13520  0.54808  1.0000
  O   O29       1.0  0.72502  0.37470  0.10978  1.0000
  O   O30       1.0  0.27498  0.87470  0.39022  1.0000
  O   O31       1.0  0.27498  0.62530  0.89022  1.0000
  O   O32       1.0  0.72502  0.12530  0.60978  1.0000
  H   H1        1.0  0.55856  0.35738  0.90712  1.0000
  H   H2        1.0  0.44144  0.85738  0.59288  1.0000
  H   H3        1.0  0.44144  0.64262  0.09288  1.0000
  H   H4        1.0  0.55856  0.14262  0.40712  1.0000
  H   H5        1.0  0.64021  0.29211  0.95391  1.0000
  H   H6        1.0  0.35979  0.79211  0.54609  1.0000
  H   H7        1.0  0.35979  0.70789  0.04609  1.0000
  H   H8        1.0  0.64021  0.20789  0.45391  1.0000
  H   H9        1.0  0.57688  0.89156  0.07146  1.0000
  H   H10       1.0  0.42312  0.39156  0.42854  1.0000
  H   H11       1.0  0.42312  0.10844  0.92854  1.0000
  H   H12       1.0  0.57688  0.60844  0.57146  1.0000
  H   H13       1.0  0.62434  0.96417  0.03603  1.0000
  H   H14       1.0  0.37566  0.46417  0.46397  1.0000
  H   H15       1.0  0.37566  0.03583  0.96397  1.0000
  H   H16       1.0  0.62434  0.53583  0.53603  1.0000
  C   C1        1.0  0.79898  0.66560  0.97377  1.0000
  C   C2        1.0  0.20102  0.16560  0.52623  1.0000
  C   C3        1.0  0.20102  0.33440  0.02623  1.0000
  C   C4        1.0  0.79898  0.83440  0.47377  1.0000
  C   C5        1.0  0.75236  0.77960  0.90965  1.0000
  C   C6        1.0  0.24764  0.27960  0.59035  1.0000
  C   C7        1.0  0.24764  0.22040  0.09035  1.0000
  C   C8        1.0  0.75236  0.72040  0.40965  1.0000
  O   O33       1.0  0.86622  0.59320  0.97719  1.0000
  O   O34       1.0  0.13378  0.09320  0.52281  1.0000
  O   O35       1.0  0.13378  0.40680  0.02281  1.0000
  O   O36       1.0  0.86622  0.90680  0.47719  1.0000
  C   C9        1.0  0.73551  0.74980  0.83351  1.0000
  C   C10       1.0  0.26449  0.24980  0.66649  1.0000
  C   C11       1.0  0.26449  0.25020  0.16649  1.0000
  C   C12       1.0  0.73551  0.75020  0.33351  1.0000
  C   C13       1.0  0.72445  0.92210  0.92749  1.0000
  C   C14       1.0  0.27555  0.42210  0.57251  1.0000
  C   C15       1.0  0.27555  0.07790  0.07251  1.0000
  C   C16       1.0  0.72445  0.57790  0.42749  1.0000
  C   C17       1.0  0.69050  0.85860  0.77644  1.0000
  C   C18       1.0  0.30950  0.35860  0.72356  1.0000
  C   C19       1.0  0.30950  0.14140  0.22356  1.0000
  C   C20       1.0  0.69050  0.64140  0.27644  1.0000
  O   O37       1.0  0.76531  0.60983  0.81563  1.0000
  O   O38       1.0  0.23469  0.10983  0.68437  1.0000
  O   O39       1.0  0.23469  0.39017  0.18437  1.0000
  O   O40       1.0  0.76531  0.89017  0.31563  1.0000
  C   C21       1.0  0.68210  0.03240  0.87177  1.0000
  C   C22       1.0  0.31790  0.53240  0.62823  1.0000
  C   C23       1.0  0.31790  0.96760  0.12823  1.0000
  C   C24       1.0  0.68210  0.46760  0.37177  1.0000
  H   H17       1.0  0.73459  0.94302  0.97792  1.0000
  H   H18       1.0  0.26541  0.44302  0.52208  1.0000
  H   H19       1.0  0.26541  0.05698  0.02208  1.0000
  H   H20       1.0  0.73459  0.55698  0.47792  1.0000
  C   C25       1.0  0.66430  0.99950  0.79667  1.0000
  C   C26       1.0  0.33570  0.49950  0.70333  1.0000
  C   C27       1.0  0.33570  0.00050  0.20333  1.0000
  C   C28       1.0  0.66430  0.50050  0.29667  1.0000
  C   C29       1.0  0.67152  0.83660  0.69355  1.0000
  C   C30       1.0  0.32848  0.33660  0.80645  1.0000
  C   C31       1.0  0.32848  0.16340  0.30645  1.0000
  C   C32       1.0  0.67152  0.66340  0.19355  1.0000
  C   C33       1.0  0.70097  0.51200  0.76394  1.0000
  C   C34       1.0  0.29903  0.01200  0.73606  1.0000
  C   C35       1.0  0.29903  0.48800  0.23606  1.0000
  C   C36       1.0  0.70097  0.98800  0.26394  1.0000
  H   H21       1.0  0.66576  0.12836  0.88478  1.0000
  H   H22       1.0  0.33424  0.62836  0.61522  1.0000
  H   H23       1.0  0.33424  0.87164  0.11522  1.0000
  H   H24       1.0  0.66576  0.37164  0.38478  1.0000
  H   H25       1.0  0.63416  0.07286  0.75886  1.0000
  H   H26       1.0  0.36584  0.57286  0.74114  1.0000
  H   H27       1.0  0.36584  0.92714  0.24114  1.0000
  H   H28       1.0  0.63416  0.42714  0.25886  1.0000
  C   C37       1.0  0.72766  0.43260  0.71397  1.0000
  C   C38       1.0  0.27234  0.93260  0.78603  1.0000
  C   C39       1.0  0.27234  0.56740  0.28603  1.0000
  C   C40       1.0  0.72766  0.06740  0.21397  1.0000
  C   C41       1.0  0.61590  0.49000  0.76202  1.0000
  C   C42       1.0  0.38410  0.99000  0.73798  1.0000
  C   C43       1.0  0.38410  0.51000  0.23798  1.0000
  C   C44       1.0  0.61590  0.01000  0.26202  1.0000
  C   C45       1.0  0.66768  0.33230  0.65949  1.0000
  C   C46       1.0  0.33232  0.83230  0.84051  1.0000
  C   C47       1.0  0.33232  0.66770  0.34051  1.0000
  C   C48       1.0  0.66768  0.16770  0.15949  1.0000
  H   H29       1.0  0.78577  0.44645  0.71689  1.0000
  H   H30       1.0  0.21423  0.94645  0.78311  1.0000
  H   H31       1.0  0.21423  0.55355  0.28311  1.0000
  H   H32       1.0  0.78577  0.05355  0.21689  1.0000
  H   H33       1.0  0.59862  0.54329  0.79593  1.0000
  H   H34       1.0  0.40138  0.04329  0.70407  1.0000
  H   H35       1.0  0.40138  0.45671  0.20407  1.0000
  H   H36       1.0  0.59862  0.95671  0.29593  1.0000
  C   C49       1.0  0.55671  0.38770  0.70902  1.0000
  C   C50       1.0  0.44329  0.88770  0.79098  1.0000
  C   C51       1.0  0.44329  0.61230  0.29098  1.0000
  C   C52       1.0  0.55671  0.11230  0.20902  1.0000
  C   C53       1.0  0.58189  0.30760  0.65691  1.0000
  C   C54       1.0  0.41811  0.80760  0.84309  1.0000
  C   C55       1.0  0.41811  0.69240  0.34309  1.0000
  C   C56       1.0  0.58189  0.19240  0.15691  1.0000
  C   C57       1.0  0.69655  0.26400  0.60069  1.0000
  C   C58       1.0  0.30345  0.76400  0.89931  1.0000
  C   C59       1.0  0.30345  0.73600  0.39931  1.0000
  C   C60       1.0  0.69655  0.23600  0.10069  1.0000
  H   H37       1.0  0.49953  0.37154  0.70777  1.0000
  H   H38       1.0  0.50047  0.87154  0.79223  1.0000
  H   H39       1.0  0.50047  0.62846  0.29223  1.0000
  H   H40       1.0  0.49953  0.12846  0.20777  1.0000
  C   C61       1.0  0.51322  0.20390  0.59904  1.0000
  C   C62       1.0  0.48678  0.70390  0.90096  1.0000
  C   C63       1.0  0.48678  0.79610  0.40096  1.0000
  C   C64       1.0  0.51322  0.29610  0.09904  1.0000
  O   O41       1.0  0.69164  0.35130  0.54724  1.0000
  O   O42       1.0  0.30836  0.85130  0.95276  1.0000
  O   O43       1.0  0.30836  0.64870  0.45276  1.0000
  O   O44       1.0  0.69164  0.14870  0.04724  1.0000
