data_image0
_chemical_formula_structural       Sm4O40H8O4H8C12H4C4H4C4H4C24H4C4H4C8H4C8
_chemical_formula_sum              "Sm4 O44 H40 C64"
_cell_length_a       16.2397
_cell_length_b       8.5555
_cell_length_c       19.2033
_cell_angle_alpha    90
_cell_angle_beta     114.753
_cell_angle_gamma    90

_space_group_name_H-M_alt    "P 1"
_space_group_IT_number       1

loop_
  _space_group_symop_operation_xyz
  'x, y, z'

loop_
  _atom_site_type_symbol
  _atom_site_label
  _atom_site_symmetry_multiplicity
  _atom_site_fract_x
  _atom_site_fract_y
  _atom_site_fract_z
  _atom_site_occupancy
  Sm  Sm1       1.0  0.13339  0.58780  0.03632  1.0000
  Sm  Sm2       1.0  0.86661  0.08780  0.46368  1.0000
  Sm  Sm3       1.0  0.86661  0.41220  0.96368  1.0000
  Sm  Sm4       1.0  0.13339  0.91220  0.53632  1.0000
  O   O1        1.0  0.09158  0.86600  0.64329  1.0000
  O   O2        1.0  0.90842  0.36600  0.85671  1.0000
  O   O3        1.0  0.90842  0.13400  0.35671  1.0000
  O   O4        1.0  0.09158  0.63400  0.14329  1.0000
  O   O5        1.0  0.23503  0.80840  0.67310  1.0000
  O   O6        1.0  0.76497  0.30840  0.82690  1.0000
  O   O7        1.0  0.76497  0.19160  0.32690  1.0000
  O   O8        1.0  0.23503  0.69160  0.17310  1.0000
  O   O9        1.0  0.26484  0.61040  0.81487  1.0000
  O   O10       1.0  0.73516  0.11040  0.68513  1.0000
  O   O11       1.0  0.73516  0.38960  0.18513  1.0000
  O   O12       1.0  0.26484  0.88960  0.31487  1.0000
  O   O13       1.0  0.36440  0.59220  0.97631  1.0000
  O   O14       1.0  0.63560  0.09220  0.52369  1.0000
  O   O15       1.0  0.63560  0.40780  0.02369  1.0000
  O   O16       1.0  0.36440  0.90780  0.47631  1.0000
  O   O17       1.0  0.26438  0.65280  0.02281  1.0000
  O   O18       1.0  0.73562  0.15280  0.47719  1.0000
  O   O19       1.0  0.73562  0.34720  0.97719  1.0000
  O   O20       1.0  0.26438  0.84720  0.52281  1.0000
  O   O21       1.0  0.03188  0.13590  0.54647  1.0000
  O   O22       1.0  0.96812  0.63590  0.95353  1.0000
  O   O23       1.0  0.96812  0.86410  0.45353  1.0000
  O   O24       1.0  0.03188  0.36410  0.04647  1.0000
  O   O25       1.0  0.93587  0.19120  0.59673  1.0000
  O   O26       1.0  0.06413  0.69120  0.90327  1.0000
  O   O27       1.0  0.06413  0.80880  0.40327  1.0000
  O   O28       1.0  0.93587  0.30880  0.09673  1.0000
  O   O29       1.0  0.22392  0.12300  0.60866  1.0000
  O   O30       1.0  0.77608  0.62300  0.89134  1.0000
  O   O31       1.0  0.77608  0.87700  0.39134  1.0000
  O   O32       1.0  0.22392  0.37700  0.10866  1.0000
  O   O33       1.0  0.19280  0.35140  0.54703  1.0000
  O   O34       1.0  0.80720  0.85140  0.95297  1.0000
  O   O35       1.0  0.80720  0.64860  0.45297  1.0000
  O   O36       1.0  0.19280  0.14860  0.04703  1.0000
  O   O37       1.0  0.10010  0.87640  0.03929  1.0000
  O   O38       1.0  0.89990  0.37640  0.46071  1.0000
  O   O39       1.0  0.89990  0.12360  0.96071  1.0000
  O   O40       1.0  0.10010  0.62360  0.53929  1.0000
  H   H1        1.0  0.06109  0.90265  0.05593  1.0000
  H   H2        1.0  0.93891  0.40265  0.44407  1.0000
  H   H3        1.0  0.93891  0.09735  0.94407  1.0000
  H   H4        1.0  0.06109  0.59735  0.55593  1.0000
  H   H5        1.0  0.12109  0.95959  0.02876  1.0000
  H   H6        1.0  0.87891  0.45959  0.47124  1.0000
  H   H7        1.0  0.87891  0.04041  0.97124  1.0000
  H   H8        1.0  0.12109  0.54041  0.52876  1.0000
  O   O41       1.0  0.11350  0.37970  0.93842  1.0000
  O   O42       1.0  0.88650  0.87970  0.56158  1.0000
  O   O43       1.0  0.88650  0.62030  0.06158  1.0000
  O   O44       1.0  0.11350  0.12030  0.43842  1.0000
  H   H9        1.0  0.06299  0.33206  0.92815  1.0000
  H   H10       1.0  0.93701  0.83206  0.57185  1.0000
  H   H11       1.0  0.93701  0.66794  0.07185  1.0000
  H   H12       1.0  0.06299  0.16794  0.42815  1.0000
  H   H13       1.0  0.10739  0.42748  0.89761  1.0000
  H   H14       1.0  0.89261  0.92748  0.60239  1.0000
  H   H15       1.0  0.89261  0.57252  0.10239  1.0000
  H   H16       1.0  0.10739  0.07252  0.39761  1.0000
  C   C1        1.0  0.17150  0.83960  0.69260  1.0000
  C   C2        1.0  0.82850  0.33960  0.80740  1.0000
  C   C3        1.0  0.82850  0.16040  0.30740  1.0000
  C   C4        1.0  0.17150  0.66040  0.19260  1.0000
  C   C5        1.0  0.19060  0.85990  0.77548  1.0000
  C   C6        1.0  0.80940  0.35990  0.72452  1.0000
  C   C7        1.0  0.80940  0.14010  0.22452  1.0000
  C   C8        1.0  0.19060  0.64010  0.27548  1.0000
  C   C9        1.0  0.16410  0.00220  0.79590  1.0000
  C   C10       1.0  0.83590  0.50220  0.70410  1.0000
  C   C11       1.0  0.83590  0.99780  0.20410  1.0000
  C   C12       1.0  0.16410  0.49780  0.29590  1.0000
  H   H17       1.0  0.13440  0.07618  0.75819  1.0000
  H   H18       1.0  0.86560  0.57618  0.74181  1.0000
  H   H19       1.0  0.86560  0.92382  0.24181  1.0000
  H   H20       1.0  0.13440  0.42382  0.25819  1.0000
  C   C13       1.0  0.18150  0.03380  0.87120  1.0000
  C   C14       1.0  0.81850  0.53380  0.62880  1.0000
  C   C15       1.0  0.81850  0.96620  0.12880  1.0000
  C   C16       1.0  0.18150  0.46620  0.37120  1.0000
  H   H21       1.0  0.16471  0.12941  0.88440  1.0000
  H   H22       1.0  0.83529  0.62941  0.61560  1.0000
  H   H23       1.0  0.83529  0.87059  0.11560  1.0000
  H   H24       1.0  0.16471  0.37059  0.38440  1.0000
  C   C17       1.0  0.22390  0.92260  0.92700  1.0000
  C   C18       1.0  0.77610  0.42260  0.57300  1.0000
  C   C19       1.0  0.77610  0.07740  0.07300  1.0000
  C   C20       1.0  0.22390  0.57740  0.42700  1.0000
  H   H25       1.0  0.23436  0.94344  0.97759  1.0000
  H   H26       1.0  0.76564  0.44344  0.52241  1.0000
  H   H27       1.0  0.76564  0.05656  0.02241  1.0000
  H   H28       1.0  0.23436  0.55656  0.47759  1.0000
  C   C21       1.0  0.25120  0.78030  0.90898  1.0000
  C   C22       1.0  0.74880  0.28030  0.59102  1.0000
  C   C23       1.0  0.74880  0.21970  0.09102  1.0000
  C   C24       1.0  0.25120  0.71970  0.40898  1.0000
  C   C25       1.0  0.23541  0.75060  0.83296  1.0000
  C   C26       1.0  0.76459  0.25060  0.66704  1.0000
  C   C27       1.0  0.76459  0.24940  0.16704  1.0000
  C   C28       1.0  0.23541  0.74940  0.33296  1.0000
  C   C29       1.0  0.29680  0.66490  0.97320  1.0000
  C   C30       1.0  0.70320  0.16490  0.52680  1.0000
  C   C31       1.0  0.70320  0.33510  0.02680  1.0000
  C   C32       1.0  0.29680  0.83510  0.47320  1.0000
  C   C33       1.0  0.01300  0.20400  0.59747  1.0000
  C   C34       1.0  0.98700  0.70400  0.90253  1.0000
  C   C35       1.0  0.98700  0.79600  0.40253  1.0000
  C   C36       1.0  0.01300  0.29600  0.09747  1.0000
  C   C37       1.0  0.08120  0.30790  0.65592  1.0000
  C   C38       1.0  0.91880  0.80790  0.84408  1.0000
  C   C39       1.0  0.91880  0.69210  0.34408  1.0000
  C   C40       1.0  0.08120  0.19210  0.15592  1.0000
  C   C41       1.0  0.05620  0.38790  0.70785  1.0000
  C   C42       1.0  0.94380  0.88790  0.79215  1.0000
  C   C43       1.0  0.94380  0.61210  0.29215  1.0000
  C   C44       1.0  0.05620  0.11210  0.20785  1.0000
  H   H29       1.0  0.99898  0.37120  0.70655  1.0000
  H   H30       1.0  0.00102  0.87120  0.79345  1.0000
  H   H31       1.0  0.00102  0.62880  0.29345  1.0000
  H   H32       1.0  0.99898  0.12880  0.20655  1.0000
  C   C45       1.0  0.11490  0.49100  0.76094  1.0000
  C   C46       1.0  0.88510  0.99100  0.73906  1.0000
  C   C47       1.0  0.88510  0.50900  0.23906  1.0000
  C   C48       1.0  0.11490  0.00900  0.26094  1.0000
  H   H33       1.0  0.09734  0.54466  0.79463  1.0000
  H   H34       1.0  0.90266  0.04466  0.70537  1.0000
  H   H35       1.0  0.90266  0.45534  0.20537  1.0000
  H   H36       1.0  0.09734  0.95534  0.29463  1.0000
  C   C49       1.0  0.20030  0.51260  0.76288  1.0000
  C   C50       1.0  0.79970  0.01260  0.73712  1.0000
  C   C51       1.0  0.79970  0.48740  0.23712  1.0000
  C   C52       1.0  0.20030  0.98740  0.26288  1.0000
  C   C53       1.0  0.22760  0.43220  0.71325  1.0000
  C   C54       1.0  0.77240  0.93220  0.78675  1.0000
  C   C55       1.0  0.77240  0.56780  0.28675  1.0000
  C   C56       1.0  0.22760  0.06780  0.21325  1.0000
  H   H37       1.0  0.28603  0.44550  0.71671  1.0000
  H   H38       1.0  0.71397  0.94550  0.78329  1.0000
  H   H39       1.0  0.71397  0.55450  0.28329  1.0000
  H   H40       1.0  0.28603  0.05450  0.21671  1.0000
  C   C57       1.0  0.16770  0.33170  0.65844  1.0000
  C   C58       1.0  0.83230  0.83170  0.84156  1.0000
  C   C59       1.0  0.83230  0.66830  0.34156  1.0000
  C   C60       1.0  0.16770  0.16830  0.15844  1.0000
  C   C61       1.0  0.19620  0.26270  0.59983  1.0000
  C   C62       1.0  0.80380  0.76270  0.90017  1.0000
  C   C63       1.0  0.80380  0.73730  0.40017  1.0000
  C   C64       1.0  0.19620  0.23730  0.09983  1.0000
