data_image0
_chemical_formula_structural       Eu4O32H16C4O4C16O4H4C16H8C8H4C8H4C8H4O4C4
_chemical_formula_sum              "Eu4 O44 H40 C64"
_cell_length_a       16.213
_cell_length_b       8.5404
_cell_length_c       19.151
_cell_angle_alpha    90
_cell_angle_beta     114.685
_cell_angle_gamma    90

_space_group_name_H-M_alt    "P 1"
_space_group_IT_number       1

loop_
  _space_group_symop_operation_xyz
  'x, y, z'

loop_
  _atom_site_type_symbol
  _atom_site_label
  _atom_site_symmetry_multiplicity
  _atom_site_fract_x
  _atom_site_fract_y
  _atom_site_fract_z
  _atom_site_occupancy
  Eu  Eu1       1.0  0.13320  0.58745  0.03610  1.0000
  Eu  Eu2       1.0  0.86680  0.08745  0.46390  1.0000
  Eu  Eu3       1.0  0.86680  0.41255  0.96390  1.0000
  Eu  Eu4       1.0  0.13320  0.91255  0.53610  1.0000
  O   O1        1.0  0.23460  0.68920  0.17170  1.0000
  O   O2        1.0  0.76540  0.18920  0.32830  1.0000
  O   O3        1.0  0.76540  0.31080  0.82830  1.0000
  O   O4        1.0  0.23460  0.81080  0.67170  1.0000
  O   O5        1.0  0.09210  0.63360  0.14310  1.0000
  O   O6        1.0  0.90790  0.13360  0.35690  1.0000
  O   O7        1.0  0.90790  0.36640  0.85690  1.0000
  O   O8        1.0  0.09210  0.86640  0.64310  1.0000
  O   O9        1.0  0.10340  0.87580  0.04070  1.0000
  O   O10       1.0  0.89660  0.37580  0.45930  1.0000
  O   O11       1.0  0.89660  0.12420  0.95930  1.0000
  O   O12       1.0  0.10340  0.62420  0.54070  1.0000
  O   O13       1.0  0.11300  0.38110  0.93860  1.0000
  O   O14       1.0  0.88700  0.88110  0.56140  1.0000
  O   O15       1.0  0.88700  0.61890  0.06140  1.0000
  O   O16       1.0  0.11300  0.11890  0.43860  1.0000
  O   O17       1.0  0.26260  0.65140  0.02180  1.0000
  O   O18       1.0  0.73740  0.15140  0.47820  1.0000
  O   O19       1.0  0.73740  0.34860  0.97820  1.0000
  O   O20       1.0  0.26260  0.84860  0.52180  1.0000
  O   O21       1.0  0.03130  0.36400  0.04510  1.0000
  O   O22       1.0  0.96870  0.86400  0.45490  1.0000
  O   O23       1.0  0.96870  0.63600  0.95490  1.0000
  O   O24       1.0  0.03130  0.13600  0.54510  1.0000
  O   O25       1.0  0.06410  0.69100  0.90410  1.0000
  O   O26       1.0  0.93590  0.19100  0.59590  1.0000
  O   O27       1.0  0.93590  0.30900  0.09590  1.0000
  O   O28       1.0  0.06410  0.80900  0.40410  1.0000
  O   O29       1.0  0.22250  0.37760  0.10820  1.0000
  O   O30       1.0  0.77750  0.87760  0.39180  1.0000
  O   O31       1.0  0.77750  0.62240  0.89180  1.0000
  O   O32       1.0  0.22250  0.12240  0.60820  1.0000
  H   H1        1.0  0.09303  0.89491  0.08036  1.0000
  H   H2        1.0  0.90697  0.39491  0.41964  1.0000
  H   H3        1.0  0.90697  0.10509  0.91964  1.0000
  H   H4        1.0  0.09303  0.60509  0.58036  1.0000
  H   H5        1.0  0.05361  0.90124  0.00265  1.0000
  H   H6        1.0  0.94639  0.40124  0.49735  1.0000
  H   H7        1.0  0.94639  0.09876  0.99735  1.0000
  H   H8        1.0  0.05361  0.59876  0.50265  1.0000
  H   H9        1.0  0.05442  0.36411  0.90841  1.0000
  H   H10       1.0  0.94558  0.86411  0.59159  1.0000
  H   H11       1.0  0.94558  0.63589  0.09159  1.0000
  H   H12       1.0  0.05442  0.13589  0.40841  1.0000
  H   H13       1.0  0.13120  0.28802  0.96107  1.0000
  H   H14       1.0  0.86880  0.78802  0.53893  1.0000
  H   H15       1.0  0.86880  0.71198  0.03893  1.0000
  H   H16       1.0  0.13120  0.21198  0.46107  1.0000
  C   C1        1.0  0.29600  0.66130  0.97290  1.0000
  C   C2        1.0  0.70400  0.16130  0.52710  1.0000
  C   C3        1.0  0.70400  0.33870  0.02710  1.0000
  C   C4        1.0  0.29600  0.83870  0.47290  1.0000
  O   O33       1.0  0.36370  0.59090  0.97630  1.0000
  O   O34       1.0  0.63630  0.09090  0.52370  1.0000
  O   O35       1.0  0.63630  0.40910  0.02370  1.0000
  O   O36       1.0  0.36370  0.90910  0.47630  1.0000
  C   C5        1.0  0.25100  0.77860  0.90900  1.0000
  C   C6        1.0  0.74900  0.27860  0.59100  1.0000
  C   C7        1.0  0.74900  0.22140  0.09100  1.0000
  C   C8        1.0  0.25100  0.72140  0.40900  1.0000
  C   C9        1.0  0.23470  0.75060  0.83230  1.0000
  C   C10       1.0  0.76530  0.25060  0.66770  1.0000
  C   C11       1.0  0.76530  0.24940  0.16770  1.0000
  C   C12       1.0  0.23470  0.74940  0.33230  1.0000
  C   C13       1.0  0.22280  0.92280  0.92600  1.0000
  C   C14       1.0  0.77720  0.42280  0.57400  1.0000
  C   C15       1.0  0.77720  0.07720  0.07400  1.0000
  C   C16       1.0  0.22280  0.57720  0.42600  1.0000
  C   C17       1.0  0.19040  0.86200  0.77510  1.0000
  C   C18       1.0  0.80960  0.36200  0.72490  1.0000
  C   C19       1.0  0.80960  0.13800  0.22490  1.0000
  C   C20       1.0  0.19040  0.63800  0.27510  1.0000
  O   O37       1.0  0.26400  0.61030  0.81400  1.0000
  O   O38       1.0  0.73600  0.11030  0.68600  1.0000
  O   O39       1.0  0.73600  0.38970  0.18600  1.0000
  O   O40       1.0  0.26400  0.88970  0.31400  1.0000
  H   H17       1.0  0.23238  0.94308  0.97656  1.0000
  H   H18       1.0  0.76762  0.44308  0.52344  1.0000
  H   H19       1.0  0.76762  0.05692  0.02344  1.0000
  H   H20       1.0  0.23238  0.55692  0.47656  1.0000
  C   C21       1.0  0.18190  0.03480  0.87190  1.0000
  C   C22       1.0  0.81810  0.53480  0.62810  1.0000
  C   C23       1.0  0.81810  0.96520  0.12810  1.0000
  C   C24       1.0  0.18190  0.46520  0.37190  1.0000
  C   C25       1.0  0.17240  0.84020  0.69230  1.0000
  C   C26       1.0  0.82760  0.34020  0.80770  1.0000
  C   C27       1.0  0.82760  0.15980  0.30770  1.0000
  C   C28       1.0  0.17240  0.65980  0.19230  1.0000
  C   C29       1.0  0.16580  0.00160  0.79630  1.0000
  C   C30       1.0  0.83420  0.50160  0.70370  1.0000
  C   C31       1.0  0.83420  0.99840  0.20370  1.0000
  C   C32       1.0  0.16580  0.49840  0.29630  1.0000
  C   C33       1.0  0.19960  0.51430  0.76180  1.0000
  C   C34       1.0  0.80040  0.01430  0.73820  1.0000
  C   C35       1.0  0.80040  0.48570  0.23820  1.0000
  C   C36       1.0  0.19960  0.98570  0.26180  1.0000
  H   H21       1.0  0.16528  0.13070  0.88515  1.0000
  H   H22       1.0  0.83472  0.63070  0.61485  1.0000
  H   H23       1.0  0.83472  0.86930  0.11485  1.0000
  H   H24       1.0  0.16528  0.36930  0.38515  1.0000
  H   H25       1.0  0.13746  0.07677  0.75868  1.0000
  H   H26       1.0  0.86254  0.57677  0.74132  1.0000
  H   H27       1.0  0.86254  0.92323  0.24132  1.0000
  H   H28       1.0  0.13746  0.42323  0.25868  1.0000
  C   C37       1.0  0.22650  0.43180  0.71230  1.0000
  C   C38       1.0  0.77350  0.93180  0.78770  1.0000
  C   C39       1.0  0.77350  0.56820  0.28770  1.0000
  C   C40       1.0  0.22650  0.06820  0.21230  1.0000
  C   C41       1.0  0.11450  0.49240  0.76030  1.0000
  C   C42       1.0  0.88550  0.99240  0.73970  1.0000
  C   C43       1.0  0.88550  0.50760  0.23970  1.0000
  C   C44       1.0  0.11450  0.00760  0.26030  1.0000
  H   H29       1.0  0.28488  0.44433  0.71544  1.0000
  H   H30       1.0  0.71512  0.94433  0.78456  1.0000
  H   H31       1.0  0.71512  0.55567  0.28456  1.0000
  H   H32       1.0  0.28488  0.05567  0.21544  1.0000
  C   C45       1.0  0.16660  0.33150  0.65860  1.0000
  C   C46       1.0  0.83340  0.83150  0.84140  1.0000
  C   C47       1.0  0.83340  0.66850  0.34140  1.0000
  C   C48       1.0  0.16660  0.16850  0.15860  1.0000
  C   C49       1.0  0.05520  0.38660  0.70600  1.0000
  C   C50       1.0  0.94480  0.88660  0.79400  1.0000
  C   C51       1.0  0.94480  0.61340  0.29400  1.0000
  C   C52       1.0  0.05520  0.11340  0.20600  1.0000
  H   H33       1.0  0.09682  0.54585  0.79415  1.0000
  H   H34       1.0  0.90318  0.04585  0.70585  1.0000
  H   H35       1.0  0.90318  0.45415  0.20585  1.0000
  H   H36       1.0  0.09682  0.95415  0.29415  1.0000
  C   C53       1.0  0.19610  0.26220  0.59940  1.0000
  C   C54       1.0  0.80390  0.76220  0.90060  1.0000
  C   C55       1.0  0.80390  0.73780  0.40060  1.0000
  C   C56       1.0  0.19610  0.23780  0.09940  1.0000
  C   C57       1.0  0.08060  0.30680  0.65510  1.0000
  C   C58       1.0  0.91940  0.80680  0.84490  1.0000
  C   C59       1.0  0.91940  0.69320  0.34490  1.0000
  C   C60       1.0  0.08060  0.19320  0.15510  1.0000
  H   H37       1.0  0.99763  0.37007  0.70419  1.0000
  H   H38       1.0  0.00237  0.87007  0.79581  1.0000
  H   H39       1.0  0.00237  0.62993  0.29581  1.0000
  H   H40       1.0  0.99763  0.12993  0.20419  1.0000
  O   O41       1.0  0.19290  0.35030  0.54630  1.0000
  O   O42       1.0  0.80710  0.85030  0.95370  1.0000
  O   O43       1.0  0.80710  0.64970  0.45370  1.0000
  O   O44       1.0  0.19290  0.14970  0.04630  1.0000
  C   C61       1.0  0.01310  0.20580  0.59750  1.0000
  C   C62       1.0  0.98690  0.70580  0.90250  1.0000
  C   C63       1.0  0.98690  0.79420  0.40250  1.0000
  C   C64       1.0  0.01310  0.29420  0.09750  1.0000
