data_image0
_chemical_formula_structural       Pr4O40H8O4H8C12H4C8H4C4H4C20H4C4H4C4H4C12
_chemical_formula_sum              "Pr4 O44 H40 C64"
_cell_length_a       16.097
_cell_length_b       8.503
_cell_length_c       19.088
_cell_angle_alpha    90
_cell_angle_beta     114.725
_cell_angle_gamma    90

_space_group_name_H-M_alt    "P 1"
_space_group_IT_number       1

loop_
  _space_group_symop_operation_xyz
  'x, y, z'

loop_
  _atom_site_type_symbol
  _atom_site_label
  _atom_site_symmetry_multiplicity
  _atom_site_fract_x
  _atom_site_fract_y
  _atom_site_fract_z
  _atom_site_occupancy
  Pr  Pr1       1.0  0.86592  0.08878  0.96316  1.0000
  Pr  Pr2       1.0  0.13408  0.58878  0.53684  1.0000
  Pr  Pr3       1.0  0.13408  0.91122  0.03684  1.0000
  Pr  Pr4       1.0  0.86592  0.41122  0.46316  1.0000
  O   O1        1.0  0.73472  0.10934  0.18389  1.0000
  O   O2        1.0  0.26528  0.60934  0.31611  1.0000
  O   O3        1.0  0.26528  0.89066  0.81611  1.0000
  O   O4        1.0  0.73472  0.39066  0.68389  1.0000
  O   O5        1.0  0.77382  0.62530  0.38921  1.0000
  O   O6        1.0  0.22618  0.12530  0.11079  1.0000
  O   O7        1.0  0.22618  0.37470  0.61079  1.0000
  O   O8        1.0  0.77382  0.87470  0.88921  1.0000
  O   O9        1.0  0.80805  0.85120  0.45203  1.0000
  O   O10       1.0  0.19195  0.35120  0.04797  1.0000
  O   O11       1.0  0.19195  0.14880  0.54797  1.0000
  O   O12       1.0  0.80805  0.64880  0.95203  1.0000
  O   O13       1.0  0.96663  0.63528  0.45115  1.0000
  O   O14       1.0  0.03337  0.13528  0.04885  1.0000
  O   O15       1.0  0.03337  0.36472  0.54885  1.0000
  O   O16       1.0  0.96663  0.86472  0.95115  1.0000
  O   O17       1.0  0.06232  0.68960  0.40099  1.0000
  O   O18       1.0  0.93768  0.18960  0.09901  1.0000
  O   O19       1.0  0.93768  0.31040  0.59901  1.0000
  O   O20       1.0  0.06232  0.81040  0.90099  1.0000
  O   O21       1.0  0.90911  0.36020  0.35507  1.0000
  O   O22       1.0  0.09089  0.86020  0.14493  1.0000
  O   O23       1.0  0.09089  0.63980  0.64493  1.0000
  O   O24       1.0  0.90911  0.13980  0.85507  1.0000
  O   O25       1.0  0.76550  0.30510  0.32558  1.0000
  O   O26       1.0  0.23450  0.80510  0.17442  1.0000
  O   O27       1.0  0.23450  0.69490  0.67442  1.0000
  O   O28       1.0  0.76550  0.19490  0.82558  1.0000
  O   O29       1.0  0.73222  0.15440  0.97589  1.0000
  O   O30       1.0  0.26778  0.65440  0.52411  1.0000
  O   O31       1.0  0.26778  0.84560  0.02411  1.0000
  O   O32       1.0  0.73222  0.34560  0.47589  1.0000
  O   O33       1.0  0.63288  0.09430  0.02251  1.0000
  O   O34       1.0  0.36712  0.59430  0.47749  1.0000
  O   O35       1.0  0.36712  0.90570  0.97749  1.0000
  O   O36       1.0  0.63288  0.40570  0.52251  1.0000
  O   O37       1.0  0.90305  0.38170  0.96240  1.0000
  O   O38       1.0  0.09695  0.88170  0.53760  1.0000
  O   O39       1.0  0.09695  0.61830  0.03760  1.0000
  O   O40       1.0  0.90305  0.11830  0.46240  1.0000
  H   H1        1.0  0.87188  0.45868  0.96676  1.0000
  H   H2        1.0  0.12812  0.95868  0.53324  1.0000
  H   H3        1.0  0.12812  0.54132  0.03324  1.0000
  H   H4        1.0  0.87188  0.04132  0.46676  1.0000
  H   H5        1.0  0.91530  0.40616  0.92459  1.0000
  H   H6        1.0  0.08470  0.90616  0.57541  1.0000
  H   H7        1.0  0.08470  0.59384  0.07541  1.0000
  H   H8        1.0  0.91530  0.09384  0.42459  1.0000
  O   O41       1.0  0.88754  0.87650  0.06228  1.0000
  O   O42       1.0  0.11246  0.37650  0.43772  1.0000
  O   O43       1.0  0.11246  0.12350  0.93772  1.0000
  O   O44       1.0  0.88754  0.62350  0.56228  1.0000
  H   H9        1.0  0.93681  0.84626  0.09908  1.0000
  H   H10       1.0  0.06319  0.34626  0.40092  1.0000
  H   H11       1.0  0.06319  0.15374  0.90092  1.0000
  H   H12       1.0  0.93681  0.65374  0.59908  1.0000
  H   H13       1.0  0.86502  0.79341  0.03659  1.0000
  H   H14       1.0  0.13498  0.29341  0.46341  1.0000
  H   H15       1.0  0.13498  0.20659  0.96341  1.0000
  H   H16       1.0  0.86502  0.70659  0.53659  1.0000
  C   C1        1.0  0.80269  0.76360  0.39853  1.0000
  C   C2        1.0  0.19731  0.26360  0.10147  1.0000
  C   C3        1.0  0.19731  0.23640  0.60147  1.0000
  C   C4        1.0  0.80269  0.73640  0.89853  1.0000
  C   C5        1.0  0.83185  0.83190  0.33992  1.0000
  C   C6        1.0  0.16815  0.33190  0.16008  1.0000
  C   C7        1.0  0.16815  0.16810  0.66008  1.0000
  C   C8        1.0  0.83185  0.66810  0.83992  1.0000
  C   C9        1.0  0.77202  0.93220  0.28539  1.0000
  C   C10       1.0  0.22798  0.43220  0.21461  1.0000
  C   C11       1.0  0.22798  0.06780  0.71461  1.0000
  C   C12       1.0  0.77202  0.56780  0.78539  1.0000
  H   H17       1.0  0.71334  0.94640  0.28238  1.0000
  H   H18       1.0  0.28666  0.44640  0.21762  1.0000
  H   H19       1.0  0.28666  0.05360  0.71762  1.0000
  H   H20       1.0  0.71334  0.55360  0.78238  1.0000
  C   C13       1.0  0.79869  0.01150  0.23544  1.0000
  C   C14       1.0  0.20131  0.51150  0.26456  1.0000
  C   C15       1.0  0.20131  0.98850  0.76456  1.0000
  C   C16       1.0  0.79869  0.48850  0.73544  1.0000
  C   C17       1.0  0.88377  0.98990  0.23722  1.0000
  C   C18       1.0  0.11623  0.48990  0.26278  1.0000
  C   C19       1.0  0.11623  0.01010  0.76278  1.0000
  C   C20       1.0  0.88377  0.51010  0.73722  1.0000
  H   H21       1.0  0.90129  0.04356  0.20311  1.0000
  H   H22       1.0  0.09871  0.54356  0.29689  1.0000
  H   H23       1.0  0.09871  0.95644  0.79689  1.0000
  H   H24       1.0  0.90129  0.45644  0.70311  1.0000
  C   C21       1.0  0.94291  0.88720  0.29054  1.0000
  C   C22       1.0  0.05709  0.38720  0.20946  1.0000
  C   C23       1.0  0.05709  0.11280  0.70946  1.0000
  C   C24       1.0  0.94291  0.61280  0.79054  1.0000
  H   H25       1.0  0.00072  0.87083  0.29196  1.0000
  H   H26       1.0  0.99928  0.37083  0.20804  1.0000
  H   H27       1.0  0.99928  0.12917  0.70804  1.0000
  H   H28       1.0  0.00072  0.62917  0.79196  1.0000
  C   C25       1.0  0.91781  0.80760  0.34231  1.0000
  C   C26       1.0  0.08219  0.30760  0.15769  1.0000
  C   C27       1.0  0.08219  0.19240  0.65769  1.0000
  C   C28       1.0  0.91781  0.69240  0.84231  1.0000
  C   C29       1.0  0.98590  0.70360  0.40052  1.0000
  C   C30       1.0  0.01410  0.20360  0.09948  1.0000
  C   C31       1.0  0.01410  0.29640  0.59948  1.0000
  C   C32       1.0  0.98590  0.79640  0.90052  1.0000
  C   C33       1.0  0.82855  0.33560  0.30608  1.0000
  C   C34       1.0  0.17145  0.83560  0.19392  1.0000
  C   C35       1.0  0.17145  0.66440  0.69392  1.0000
  C   C36       1.0  0.82855  0.16440  0.80608  1.0000
  C   C37       1.0  0.80919  0.35770  0.22323  1.0000
  C   C38       1.0  0.19081  0.85770  0.27677  1.0000
  C   C39       1.0  0.19081  0.64230  0.77677  1.0000
  C   C40       1.0  0.80919  0.14230  0.72323  1.0000
  C   C41       1.0  0.83590  0.49880  0.20325  1.0000
  C   C42       1.0  0.16410  0.99880  0.29675  1.0000
  C   C43       1.0  0.16410  0.50120  0.79675  1.0000
  C   C44       1.0  0.83590  0.00120  0.70325  1.0000
  H   H29       1.0  0.86673  0.57236  0.24138  1.0000
  H   H30       1.0  0.13327  0.07236  0.25862  1.0000
  H   H31       1.0  0.13327  0.42764  0.75862  1.0000
  H   H32       1.0  0.86673  0.92764  0.74138  1.0000
  C   C45       1.0  0.81760  0.53190  0.12759  1.0000
  C   C46       1.0  0.18240  0.03190  0.37241  1.0000
  C   C47       1.0  0.18240  0.46810  0.87241  1.0000
  C   C48       1.0  0.81760  0.96810  0.62759  1.0000
  H   H33       1.0  0.83395  0.62857  0.11434  1.0000
  H   H34       1.0  0.16605  0.12857  0.38566  1.0000
  H   H35       1.0  0.16605  0.37143  0.88566  1.0000
  H   H36       1.0  0.83395  0.87143  0.61434  1.0000
  C   C49       1.0  0.77512  0.42160  0.07232  1.0000
  C   C50       1.0  0.22488  0.92160  0.42768  1.0000
  C   C51       1.0  0.22488  0.57840  0.92768  1.0000
  C   C52       1.0  0.77512  0.07840  0.57232  1.0000
  H   H37       1.0  0.76486  0.44260  0.02154  1.0000
  H   H38       1.0  0.23514  0.94260  0.47846  1.0000
  H   H39       1.0  0.23514  0.55740  0.97846  1.0000
  H   H40       1.0  0.76486  0.05740  0.52154  1.0000
  C   C53       1.0  0.74705  0.27980  0.08980  1.0000
  C   C54       1.0  0.25295  0.77980  0.41020  1.0000
  C   C55       1.0  0.25295  0.72020  0.91020  1.0000
  C   C56       1.0  0.74705  0.22020  0.58980  1.0000
  C   C57       1.0  0.76438  0.24910  0.16604  1.0000
  C   C58       1.0  0.23562  0.74910  0.33396  1.0000
  C   C59       1.0  0.23562  0.75090  0.83396  1.0000
  C   C60       1.0  0.76438  0.25090  0.66604  1.0000
  C   C61       1.0  0.70027  0.16590  0.02592  1.0000
  C   C62       1.0  0.29973  0.66590  0.47408  1.0000
  C   C63       1.0  0.29973  0.83410  0.97408  1.0000
  C   C64       1.0  0.70027  0.33410  0.52592  1.0000
