data_image0
_chemical_formula_structural       Mn8P4O12H4O4H4O40C20
_chemical_formula_sum              "Mn8 P4 O56 H8 C20"
_cell_length_a       9.38499
_cell_length_b       29.856
_cell_length_c       8.00001
_cell_angle_alpha    90
_cell_angle_beta     91.7128
_cell_angle_gamma    90

_space_group_name_H-M_alt    "P 1"
_space_group_IT_number       1

loop_
  _space_group_symop_operation_xyz
  'x, y, z'

loop_
  _atom_site_type_symbol
  _atom_site_label
  _atom_site_symmetry_multiplicity
  _atom_site_fract_x
  _atom_site_fract_y
  _atom_site_fract_z
  _atom_site_occupancy
  Mn  Mn1       1.0  0.47654  0.41267  0.86812  1.0000
  Mn  Mn2       1.0  0.52346  0.91267  0.63188  1.0000
  Mn  Mn3       1.0  0.52346  0.58733  0.13188  1.0000
  Mn  Mn4       1.0  0.47654  0.08733  0.36812  1.0000
  Mn  Mn5       1.0  0.97237  0.31459  0.68447  1.0000
  Mn  Mn6       1.0  0.02763  0.81459  0.81553  1.0000
  Mn  Mn7       1.0  0.02763  0.68541  0.31553  1.0000
  Mn  Mn8       1.0  0.97237  0.18541  0.18447  1.0000
  P   P1        1.0  0.92864  0.29113  0.27544  1.0000
  P   P2        1.0  0.07136  0.79113  0.22456  1.0000
  P   P3        1.0  0.07136  0.70887  0.72456  1.0000
  P   P4        1.0  0.92864  0.20887  0.77544  1.0000
  O   O1        1.0  0.88450  0.29935  0.44960  1.0000
  O   O2        1.0  0.11550  0.79935  0.05040  1.0000
  O   O3        1.0  0.11550  0.70065  0.55040  1.0000
  O   O4        1.0  0.88450  0.20065  0.94960  1.0000
  O   O5        1.0  0.02740  0.25223  0.24980  1.0000
  O   O6        1.0  0.97260  0.75223  0.25020  1.0000
  O   O7        1.0  0.97260  0.74777  0.75020  1.0000
  O   O8        1.0  0.02740  0.24777  0.74980  1.0000
  O   O9        1.0  0.00260  0.33510  0.21270  1.0000
  O   O10       1.0  0.99740  0.83510  0.28730  1.0000
  O   O11       1.0  0.99740  0.66490  0.78730  1.0000
  O   O12       1.0  0.00260  0.16490  0.71270  1.0000
  H   H1        1.0  0.03840  0.33030  0.12220  1.0000
  H   H2        1.0  0.96160  0.83030  0.37780  1.0000
  H   H3        1.0  0.96160  0.66970  0.87780  1.0000
  H   H4        1.0  0.03840  0.16970  0.62220  1.0000
  O   O13       1.0  0.78730  0.28463  0.16870  1.0000
  O   O14       1.0  0.21270  0.78463  0.33130  1.0000
  O   O15       1.0  0.21270  0.71537  0.83130  1.0000
  O   O16       1.0  0.78730  0.21537  0.66870  1.0000
  H   H5        1.0  0.73320  0.26820  0.21900  1.0000
  H   H6        1.0  0.26680  0.76820  0.28100  1.0000
  H   H7        1.0  0.26680  0.73180  0.78100  1.0000
  H   H8        1.0  0.73320  0.23180  0.71900  1.0000
  O   O17       1.0  0.87340  0.38341  0.66910  1.0000
  O   O18       1.0  0.12660  0.88341  0.83090  1.0000
  O   O19       1.0  0.12660  0.61659  0.33090  1.0000
  O   O20       1.0  0.87340  0.11659  0.16910  1.0000
  O   O21       1.0  0.67650  0.42008  0.73250  1.0000
  O   O22       1.0  0.32350  0.92008  0.76750  1.0000
  O   O23       1.0  0.32350  0.57992  0.26750  1.0000
  O   O24       1.0  0.67650  0.07992  0.23250  1.0000
  O   O25       1.0  0.78770  0.31297  0.84860  1.0000
  O   O26       1.0  0.21230  0.81297  0.65140  1.0000
  O   O27       1.0  0.21230  0.68703  0.15140  1.0000
  O   O28       1.0  0.78770  0.18703  0.34860  1.0000
  O   O29       1.0  0.59420  0.35096  0.91830  1.0000
  O   O30       1.0  0.40580  0.85096  0.58170  1.0000
  O   O31       1.0  0.40580  0.64904  0.08170  1.0000
  O   O32       1.0  0.59420  0.14904  0.41830  1.0000
  O   O33       1.0  0.28980  0.38136  0.98190  1.0000
  O   O34       1.0  0.71020  0.88136  0.51810  1.0000
  O   O35       1.0  0.71020  0.61864  0.01810  1.0000
  O   O36       1.0  0.28980  0.11864  0.48190  1.0000
  O   O37       1.0  0.10410  0.33784  0.91210  1.0000
  O   O38       1.0  0.89590  0.83784  0.58790  1.0000
  O   O39       1.0  0.89590  0.66216  0.08790  1.0000
  O   O40       1.0  0.10410  0.16216  0.41210  1.0000
  O   O41       1.0  0.35290  0.38744  0.65680  1.0000
  O   O42       1.0  0.64710  0.88744  0.84320  1.0000
  O   O43       1.0  0.64710  0.61256  0.34320  1.0000
  O   O44       1.0  0.35290  0.11256  0.15680  1.0000
  O   O45       1.0  0.16720  0.34379  0.59100  1.0000
  O   O46       1.0  0.83280  0.84379  0.90900  1.0000
  O   O47       1.0  0.83280  0.65621  0.40900  1.0000
  O   O48       1.0  0.16720  0.15621  0.09100  1.0000
  O   O49       1.0  0.58020  0.51786  0.18740  1.0000
  O   O50       1.0  0.41980  0.01786  0.31260  1.0000
  O   O51       1.0  0.41980  0.48214  0.81260  1.0000
  O   O52       1.0  0.58020  0.98214  0.68740  1.0000
  O   O53       1.0  0.54810  0.44895  0.08930  1.0000
  O   O54       1.0  0.45190  0.94895  0.41070  1.0000
  O   O55       1.0  0.45190  0.55105  0.91070  1.0000
  O   O56       1.0  0.54810  0.05105  0.58930  1.0000
  C   C1        1.0  0.75710  0.38696  0.73760  1.0000
  C   C2        1.0  0.24290  0.88696  0.76240  1.0000
  C   C3        1.0  0.24290  0.61304  0.26240  1.0000
  C   C4        1.0  0.75710  0.11304  0.23760  1.0000
  C   C5        1.0  0.70790  0.34631  0.84410  1.0000
  C   C6        1.0  0.29210  0.84631  0.65590  1.0000
  C   C7        1.0  0.29210  0.65369  0.15590  1.0000
  C   C8        1.0  0.70790  0.15369  0.34410  1.0000
  C   C9        1.0  0.21050  0.36124  0.87960  1.0000
  C   C10       1.0  0.78950  0.86124  0.62040  1.0000
  C   C11       1.0  0.78950  0.63876  0.12040  1.0000
  C   C12       1.0  0.21050  0.13876  0.37960  1.0000
  C   C13       1.0  0.24710  0.36423  0.69130  1.0000
  C   C14       1.0  0.75290  0.86423  0.80870  1.0000
  C   C15       1.0  0.75290  0.63577  0.30870  1.0000
  C   C16       1.0  0.24710  0.13577  0.19130  1.0000
  C   C17       1.0  0.53700  0.49019  0.08020  1.0000
  C   C18       1.0  0.46300  0.99019  0.41980  1.0000
  C   C19       1.0  0.46300  0.50981  0.91980  1.0000
  C   C20       1.0  0.53700  0.00981  0.58020  1.0000
