data_image0
_chemical_formula_structural       In16P32O16H4O12H4O4H4O12H4O4H4O16H4O16H4O16H4O16H4O16H4O32C16
_chemical_formula_sum              "In16 P32 O160 H40 C16"
_cell_length_a       14.6275
_cell_length_b       20.8096
_cell_length_c       17.1995
_cell_angle_alpha    90
_cell_angle_beta     112.2
_cell_angle_gamma    90

_space_group_name_H-M_alt    "P 1"
_space_group_IT_number       1

loop_
  _space_group_symop_operation_xyz
  'x, y, z'

loop_
  _atom_site_type_symbol
  _atom_site_label
  _atom_site_symmetry_multiplicity
  _atom_site_fract_x
  _atom_site_fract_y
  _atom_site_fract_z
  _atom_site_occupancy
  In  In1       1.0  0.24265  0.36762  0.27419  1.0000
  In  In2       1.0  0.75735  0.86762  0.22581  1.0000
  In  In3       1.0  0.75735  0.63238  0.72581  1.0000
  In  In4       1.0  0.24265  0.13238  0.77419  1.0000
  In  In5       1.0  0.49718  0.13600  0.51890  1.0000
  In  In6       1.0  0.50282  0.63600  0.98110  1.0000
  In  In7       1.0  0.50282  0.86400  0.48110  1.0000
  In  In8       1.0  0.49718  0.36400  0.01890  1.0000
  In  In9       1.0  0.74219  0.13653  0.27140  1.0000
  In  In10      1.0  0.25781  0.63653  0.22860  1.0000
  In  In11      1.0  0.25781  0.86347  0.72860  1.0000
  In  In12      1.0  0.74219  0.36347  0.77140  1.0000
  In  In13      1.0  0.99717  0.36434  0.52538  1.0000
  In  In14      1.0  0.00283  0.86434  0.97462  1.0000
  In  In15      1.0  0.00283  0.63566  0.47462  1.0000
  In  In16      1.0  0.99717  0.13566  0.02538  1.0000
  P   P1        1.0  0.07697  0.24534  0.18380  1.0000
  P   P2        1.0  0.92303  0.74534  0.31620  1.0000
  P   P3        1.0  0.92303  0.75466  0.81620  1.0000
  P   P4        1.0  0.07697  0.25466  0.68380  1.0000
  P   P5        1.0  0.34409  0.25610  0.41962  1.0000
  P   P6        1.0  0.65591  0.75610  0.08038  1.0000
  P   P7        1.0  0.65591  0.74390  0.58038  1.0000
  P   P8        1.0  0.34409  0.24390  0.91962  1.0000
  P   P9        1.0  0.40738  0.11745  0.67578  1.0000
  P   P10       1.0  0.59262  0.61745  0.82422  1.0000
  P   P11       1.0  0.59262  0.88255  0.32422  1.0000
  P   P12       1.0  0.40738  0.38255  0.17578  1.0000
  P   P13       1.0  0.66449  0.22295  0.67960  1.0000
  P   P14       1.0  0.33551  0.72295  0.82040  1.0000
  P   P15       1.0  0.33551  0.77705  0.32040  1.0000
  P   P16       1.0  0.66449  0.27705  0.17960  1.0000
  P   P17       1.0  0.65390  0.09878  0.42106  1.0000
  P   P18       1.0  0.34610  0.59878  0.07894  1.0000
  P   P19       1.0  0.34610  0.90122  0.57894  1.0000
  P   P20       1.0  0.65390  0.40122  0.92106  1.0000
  P   P21       1.0  0.83388  0.24803  0.42472  1.0000
  P   P22       1.0  0.16612  0.74803  0.07528  1.0000
  P   P23       1.0  0.16612  0.75197  0.57528  1.0000
  P   P24       1.0  0.83388  0.25197  0.92472  1.0000
  P   P25       1.0  0.88494  0.39292  0.66330  1.0000
  P   P26       1.0  0.11506  0.89292  0.83670  1.0000
  P   P27       1.0  0.11506  0.60708  0.33670  1.0000
  P   P28       1.0  0.88494  0.10708  0.16330  1.0000
  P   P29       1.0  0.17098  0.39235  0.44180  1.0000
  P   P30       1.0  0.82902  0.89235  0.05820  1.0000
  P   P31       1.0  0.82902  0.60765  0.55820  1.0000
  P   P32       1.0  0.17098  0.10765  0.94180  1.0000
  O   O1        1.0  0.13890  0.30507  0.19256  1.0000
  O   O2        1.0  0.86110  0.80507  0.30744  1.0000
  O   O3        1.0  0.86110  0.69493  0.80744  1.0000
  O   O4        1.0  0.13890  0.19493  0.69256  1.0000
  O   O5        1.0  0.08470  0.20416  0.11333  1.0000
  O   O6        1.0  0.91530  0.70416  0.38667  1.0000
  O   O7        1.0  0.91530  0.79584  0.88667  1.0000
  O   O8        1.0  0.08470  0.29584  0.61333  1.0000
  O   O9        1.0  0.10530  0.20873  0.26620  1.0000
  O   O10       1.0  0.89470  0.70873  0.23380  1.0000
  O   O11       1.0  0.89470  0.79127  0.73380  1.0000
  O   O12       1.0  0.10530  0.29127  0.76620  1.0000
  O   O13       1.0  0.96620  0.26494  0.16087  1.0000
  O   O14       1.0  0.03380  0.76494  0.33913  1.0000
  O   O15       1.0  0.03380  0.73506  0.83913  1.0000
  O   O16       1.0  0.96620  0.23506  0.66087  1.0000
  H   H1        1.0  0.93940  0.27000  0.10990  1.0000
  H   H2        1.0  0.06060  0.77000  0.39010  1.0000
  H   H3        1.0  0.06060  0.73000  0.89010  1.0000
  H   H4        1.0  0.93940  0.23000  0.60990  1.0000
  O   O17       1.0  0.34200  0.29861  0.34715  1.0000
  O   O18       1.0  0.65800  0.79861  0.15285  1.0000
  O   O19       1.0  0.65800  0.70139  0.65285  1.0000
  O   O20       1.0  0.34200  0.20139  0.84715  1.0000
  O   O21       1.0  0.41170  0.19995  0.42548  1.0000
  O   O22       1.0  0.58830  0.69995  0.07452  1.0000
  O   O23       1.0  0.58830  0.80005  0.57452  1.0000
  O   O24       1.0  0.41170  0.30005  0.92548  1.0000
  O   O25       1.0  0.37960  0.29140  0.50368  1.0000
  O   O26       1.0  0.62040  0.79140  0.99632  1.0000
  O   O27       1.0  0.62040  0.70860  0.49632  1.0000
  O   O28       1.0  0.37960  0.20860  0.00368  1.0000
  H   H5        1.0  0.34300  0.32200  0.50070  1.0000
  H   H6        1.0  0.65700  0.82200  0.99930  1.0000
  H   H7        1.0  0.65700  0.67800  0.49930  1.0000
  H   H8        1.0  0.34300  0.17800  0.00070  1.0000
  O   O29       1.0  0.23800  0.23154  0.40471  1.0000
  O   O30       1.0  0.76200  0.73154  0.09529  1.0000
  O   O31       1.0  0.76200  0.76846  0.59529  1.0000
  O   O32       1.0  0.23800  0.26846  0.90471  1.0000
  H   H9        1.0  0.20570  0.22910  0.35410  1.0000
  H   H10       1.0  0.79430  0.72910  0.14590  1.0000
  H   H11       1.0  0.79430  0.77090  0.64590  1.0000
  H   H12       1.0  0.20570  0.27090  0.85410  1.0000
  O   O33       1.0  0.40720  0.13678  0.59071  1.0000
  O   O34       1.0  0.59280  0.63678  0.90929  1.0000
  O   O35       1.0  0.59280  0.86322  0.40929  1.0000
  O   O36       1.0  0.40720  0.36322  0.09071  1.0000
  O   O37       1.0  0.31315  0.14082  0.68380  1.0000
  O   O38       1.0  0.68685  0.64082  0.81620  1.0000
  O   O39       1.0  0.68685  0.85918  0.31620  1.0000
  O   O40       1.0  0.31315  0.35918  0.18380  1.0000
  O   O41       1.0  0.42420  0.04590  0.69204  1.0000
  O   O42       1.0  0.57580  0.54590  0.80796  1.0000
  O   O43       1.0  0.57580  0.95410  0.30796  1.0000
  O   O44       1.0  0.42420  0.45410  0.19204  1.0000
  H   H13       1.0  0.48290  0.03920  0.71950  1.0000
  H   H14       1.0  0.51710  0.53920  0.78050  1.0000
  H   H15       1.0  0.51710  0.96080  0.28050  1.0000
  H   H16       1.0  0.48290  0.46080  0.21950  1.0000
  O   O45       1.0  0.49330  0.15266  0.74867  1.0000
  O   O46       1.0  0.50670  0.65266  0.75133  1.0000
  O   O47       1.0  0.50670  0.84734  0.25133  1.0000
  O   O48       1.0  0.49330  0.34734  0.24867  1.0000
  H   H17       1.0  0.54260  0.15420  0.73690  1.0000
  H   H18       1.0  0.45740  0.65420  0.76310  1.0000
  H   H19       1.0  0.45740  0.84580  0.26310  1.0000
  H   H20       1.0  0.54260  0.34580  0.23690  1.0000
  O   O49       1.0  0.59120  0.20754  0.59217  1.0000
  O   O50       1.0  0.40880  0.70754  0.90783  1.0000
  O   O51       1.0  0.40880  0.79246  0.40783  1.0000
  O   O52       1.0  0.59120  0.29246  0.09217  1.0000
  O   O53       1.0  0.64321  0.29041  0.70298  1.0000
  O   O54       1.0  0.35679  0.79041  0.79702  1.0000
  O   O55       1.0  0.35679  0.70959  0.29702  1.0000
  O   O56       1.0  0.64321  0.20959  0.20298  1.0000
  O   O57       1.0  0.66450  0.17217  0.74329  1.0000
  O   O58       1.0  0.33550  0.67217  0.75671  1.0000
  O   O59       1.0  0.33550  0.82783  0.25671  1.0000
  O   O60       1.0  0.66450  0.32783  0.24329  1.0000
  O   O61       1.0  0.77170  0.22177  0.67740  1.0000
  O   O62       1.0  0.22830  0.72177  0.82260  1.0000
  O   O63       1.0  0.22830  0.77823  0.32260  1.0000
  O   O64       1.0  0.77170  0.27823  0.17740  1.0000
  H   H21       1.0  0.78920  0.25860  0.67310  1.0000
  H   H22       1.0  0.21080  0.75860  0.82690  1.0000
  H   H23       1.0  0.21080  0.74140  0.32690  1.0000
  H   H24       1.0  0.78920  0.24140  0.17310  1.0000
  O   O65       1.0  0.58480  0.14000  0.44578  1.0000
  O   O66       1.0  0.41520  0.64000  0.05422  1.0000
  O   O67       1.0  0.41520  0.86000  0.55422  1.0000
  O   O68       1.0  0.58480  0.36000  0.94578  1.0000
  O   O69       1.0  0.64590  0.12096  0.33439  1.0000
  O   O70       1.0  0.35410  0.62096  0.16561  1.0000
  O   O71       1.0  0.35410  0.87904  0.66561  1.0000
  O   O72       1.0  0.64590  0.37904  0.83439  1.0000
  O   O73       1.0  0.63480  0.02731  0.42523  1.0000
  O   O74       1.0  0.36520  0.52731  0.07477  1.0000
  O   O75       1.0  0.36520  0.97269  0.57477  1.0000
  O   O76       1.0  0.63480  0.47269  0.92523  1.0000
  O   O77       1.0  0.76230  0.10647  0.48540  1.0000
  O   O78       1.0  0.23770  0.60647  0.01460  1.0000
  O   O79       1.0  0.23770  0.89353  0.51460  1.0000
  O   O80       1.0  0.76230  0.39353  0.98540  1.0000
  H   H25       1.0  0.77860  0.14430  0.48790  1.0000
  H   H26       1.0  0.22140  0.64430  0.01210  1.0000
  H   H27       1.0  0.22140  0.85570  0.51210  1.0000
  H   H28       1.0  0.77860  0.35570  0.98790  1.0000
  O   O81       1.0  0.83640  0.20126  0.35792  1.0000
  O   O82       1.0  0.16360  0.70126  0.14208  1.0000
  O   O83       1.0  0.16360  0.79874  0.64208  1.0000
  O   O84       1.0  0.83640  0.29874  0.85792  1.0000
  O   O85       1.0  0.90710  0.30157  0.43181  1.0000
  O   O86       1.0  0.09290  0.80157  0.06819  1.0000
  O   O87       1.0  0.09290  0.69843  0.56819  1.0000
  O   O88       1.0  0.90710  0.19843  0.93181  1.0000
  O   O89       1.0  0.84900  0.21642  0.50770  1.0000
  O   O90       1.0  0.15100  0.71642  0.99230  1.0000
  O   O91       1.0  0.15100  0.78358  0.49230  1.0000
  O   O92       1.0  0.84900  0.28358  0.00770  1.0000
  O   O93       1.0  0.72620  0.27878  0.39495  1.0000
  O   O94       1.0  0.27380  0.77878  0.10505  1.0000
  O   O95       1.0  0.27380  0.72122  0.60505  1.0000
  O   O96       1.0  0.72620  0.22122  0.89495  1.0000
  H   H29       1.0  0.70960  0.29140  0.34640  1.0000
  H   H30       1.0  0.29040  0.79140  0.15360  1.0000
  H   H31       1.0  0.29040  0.70860  0.65360  1.0000
  H   H32       1.0  0.70960  0.20860  0.84640  1.0000
  O   O97       1.0  0.89330  0.36931  0.58283  1.0000
  O   O98       1.0  0.10670  0.86931  0.91717  1.0000
  O   O99       1.0  0.10670  0.63069  0.41717  1.0000
  O   O100      1.0  0.89330  0.13069  0.08283  1.0000
  O   O101      1.0  0.81130  0.34807  0.68217  1.0000
  O   O102      1.0  0.18870  0.84807  0.81783  1.0000
  O   O103      1.0  0.18870  0.65193  0.31783  1.0000
  O   O104      1.0  0.81130  0.15193  0.18217  1.0000
  O   O105      1.0  0.85150  0.46156  0.65959  1.0000
  O   O106      1.0  0.14850  0.96156  0.84041  1.0000
  O   O107      1.0  0.14850  0.53844  0.34041  1.0000
  O   O108      1.0  0.85150  0.03844  0.15959  1.0000
  O   O109      1.0  0.98650  0.39038  0.73876  1.0000
  O   O110      1.0  0.01350  0.89038  0.76124  1.0000
  O   O111      1.0  0.01350  0.60962  0.26124  1.0000
  O   O112      1.0  0.98650  0.10962  0.23876  1.0000
  H   H33       1.0  0.01160  0.35490  0.74050  1.0000
  H   H34       1.0  0.98840  0.85490  0.75950  1.0000
  H   H35       1.0  0.98840  0.64510  0.25950  1.0000
  H   H36       1.0  0.01160  0.14510  0.24050  1.0000
  O   O113      1.0  0.10020  0.35140  0.46639  1.0000
  O   O114      1.0  0.89980  0.85140  0.03361  1.0000
  O   O115      1.0  0.89980  0.64860  0.53361  1.0000
  O   O116      1.0  0.10020  0.14860  0.96639  1.0000
  O   O117      1.0  0.16030  0.37414  0.35274  1.0000
  O   O118      1.0  0.83970  0.87414  0.14726  1.0000
  O   O119      1.0  0.83970  0.62586  0.64726  1.0000
  O   O120      1.0  0.16030  0.12586  0.85274  1.0000
  O   O121      1.0  0.27730  0.38435  0.50380  1.0000
  O   O122      1.0  0.72270  0.88435  0.99620  1.0000
  O   O123      1.0  0.72270  0.61565  0.49620  1.0000
  O   O124      1.0  0.27730  0.11565  0.00380  1.0000
  O   O125      1.0  0.14360  0.46329  0.44710  1.0000
  O   O126      1.0  0.85640  0.96329  0.05290  1.0000
  O   O127      1.0  0.85640  0.53671  0.55290  1.0000
  O   O128      1.0  0.14360  0.03671  0.94710  1.0000
  H   H37       1.0  0.15570  0.48430  0.41180  1.0000
  H   H38       1.0  0.84430  0.98430  0.08820  1.0000
  H   H39       1.0  0.84430  0.51570  0.58820  1.0000
  H   H40       1.0  0.15570  0.01570  0.91180  1.0000
  O   O129      1.0  0.57630  0.04892  0.58135  1.0000
  O   O130      1.0  0.42370  0.54892  0.91865  1.0000
  O   O131      1.0  0.42370  0.95108  0.41865  1.0000
  O   O132      1.0  0.57630  0.45108  0.08135  1.0000
  O   O133      1.0  0.58707  0.94428  0.56133  1.0000
  O   O134      1.0  0.41293  0.44428  0.93867  1.0000
  O   O135      1.0  0.41293  0.05572  0.43867  1.0000
  O   O136      1.0  0.58707  0.55572  0.06133  1.0000
  O   O137      1.0  0.65973  0.05777  0.18609  1.0000
  O   O138      1.0  0.34027  0.55777  0.31391  1.0000
  O   O139      1.0  0.34027  0.94223  0.81391  1.0000
  O   O140      1.0  0.65973  0.44223  0.68609  1.0000
  O   O141      1.0  0.67022  0.95238  0.16734  1.0000
  O   O142      1.0  0.32978  0.45238  0.33266  1.0000
  O   O143      1.0  0.32978  0.04762  0.83266  1.0000
  O   O144      1.0  0.67022  0.54762  0.66734  1.0000
  O   O145      1.0  0.82822  0.05172  0.32670  1.0000
  O   O146      1.0  0.17178  0.55172  0.17330  1.0000
  O   O147      1.0  0.17178  0.94828  0.67330  1.0000
  O   O148      1.0  0.82822  0.44828  0.82670  1.0000
  O   O149      1.0  0.83878  0.94714  0.30627  1.0000
  O   O150      1.0  0.16122  0.44714  0.19373  1.0000
  O   O151      1.0  0.16122  0.05286  0.69373  1.0000
  O   O152      1.0  0.83878  0.55286  0.80627  1.0000
  O   O153      1.0  0.06873  0.45348  0.58786  1.0000
  O   O154      1.0  0.93127  0.95348  0.91214  1.0000
  O   O155      1.0  0.93127  0.54652  0.41214  1.0000
  O   O156      1.0  0.06873  0.04652  0.08786  1.0000
  O   O157      1.0  0.07730  0.55815  0.56544  1.0000
  O   O158      1.0  0.92270  0.05815  0.93456  1.0000
  O   O159      1.0  0.92270  0.44185  0.43456  1.0000
  O   O160      1.0  0.07730  0.94185  0.06544  1.0000
  C   C1        1.0  0.54700  0.99800  0.54120  1.0000
  C   C2        1.0  0.45300  0.49800  0.95880  1.0000
  C   C3        1.0  0.45300  0.00200  0.45880  1.0000
  C   C4        1.0  0.54700  0.50200  0.04120  1.0000
  C   C5        1.0  0.70030  0.00386  0.20560  1.0000
  C   C6        1.0  0.29970  0.50386  0.29440  1.0000
  C   C7        1.0  0.29970  0.99614  0.79440  1.0000
  C   C8        1.0  0.70030  0.49614  0.70560  1.0000
  C   C9        1.0  0.79820  0.00061  0.28660  1.0000
  C   C10       1.0  0.20180  0.50061  0.21340  1.0000
  C   C11       1.0  0.20180  0.99939  0.71340  1.0000
  C   C12       1.0  0.79820  0.49939  0.78660  1.0000
  C   C13       1.0  0.04260  0.50286  0.54440  1.0000
  C   C14       1.0  0.95740  0.00286  0.95560  1.0000
  C   C15       1.0  0.95740  0.49714  0.45560  1.0000
  C   C16       1.0  0.04260  0.99714  0.04440  1.0000
