data_image0
_chemical_formula_structural       Dy4O32H8O4C16
_chemical_formula_sum              "Dy4 O36 H8 C16"
_cell_length_a       10.2355
_cell_length_b       11.709
_cell_length_c       11.4476
_cell_angle_alpha    90
_cell_angle_beta     104.393
_cell_angle_gamma    90

_space_group_name_H-M_alt    "P 1"
_space_group_IT_number       1

loop_
  _space_group_symop_operation_xyz
  'x, y, z'

loop_
  _atom_site_type_symbol
  _atom_site_label
  _atom_site_symmetry_multiplicity
  _atom_site_fract_x
  _atom_site_fract_y
  _atom_site_fract_z
  _atom_site_occupancy
  Dy  Dy1       1.0  0.75286  0.34883  0.01832  1.0000
  Dy  Dy2       1.0  0.24714  0.84883  0.48168  1.0000
  Dy  Dy3       1.0  0.24714  0.65117  0.98168  1.0000
  Dy  Dy4       1.0  0.75286  0.15117  0.51832  1.0000
  O   O1        1.0  0.33784  0.46022  0.00629  1.0000
  O   O2        1.0  0.66216  0.96022  0.49371  1.0000
  O   O3        1.0  0.66216  0.53978  0.99371  1.0000
  O   O4        1.0  0.33784  0.03978  0.50629  1.0000
  O   O5        1.0  0.73710  0.10993  0.71844  1.0000
  O   O6        1.0  0.26290  0.60993  0.78156  1.0000
  O   O7        1.0  0.26290  0.89007  0.28156  1.0000
  O   O8        1.0  0.73710  0.39007  0.21844  1.0000
  O   O9        1.0  0.08027  0.51017  0.88370  1.0000
  O   O10       1.0  0.91973  0.01017  0.61630  1.0000
  O   O11       1.0  0.91973  0.48983  0.11630  1.0000
  O   O12       1.0  0.08027  0.98983  0.38370  1.0000
  O   O13       1.0  0.91650  0.39208  0.90637  1.0000
  O   O14       1.0  0.08350  0.89208  0.59363  1.0000
  O   O15       1.0  0.08350  0.60792  0.09363  1.0000
  O   O16       1.0  0.91650  0.10792  0.40637  1.0000
  O   O17       1.0  0.65210  0.38137  0.79701  1.0000
  O   O18       1.0  0.34790  0.88137  0.70299  1.0000
  O   O19       1.0  0.34790  0.61863  0.20299  1.0000
  O   O20       1.0  0.65210  0.11863  0.29701  1.0000
  O   O21       1.0  0.51440  0.35158  0.99510  1.0000
  O   O22       1.0  0.48560  0.85158  0.50490  1.0000
  O   O23       1.0  0.48560  0.64842  0.00490  1.0000
  O   O24       1.0  0.51440  0.14842  0.49510  1.0000
  O   O25       1.0  0.73460  0.17970  0.90030  1.0000
  O   O26       1.0  0.26540  0.67970  0.59970  1.0000
  O   O27       1.0  0.26540  0.82030  0.09970  1.0000
  O   O28       1.0  0.73460  0.32030  0.40030  1.0000
  O   O29       1.0  0.95354  0.24729  0.11966  1.0000
  O   O30       1.0  0.04646  0.74729  0.38034  1.0000
  O   O31       1.0  0.04646  0.75271  0.88034  1.0000
  O   O32       1.0  0.95354  0.25271  0.61966  1.0000
  H   H1        1.0  0.02380  0.26690  0.08980  1.0000
  H   H2        1.0  0.97620  0.76690  0.41020  1.0000
  H   H3        1.0  0.97620  0.73310  0.91020  1.0000
  H   H4        1.0  0.02380  0.23310  0.58980  1.0000
  H   H5        1.0  0.94140  0.17140  0.11060  1.0000
  H   H6        1.0  0.05860  0.67140  0.38940  1.0000
  H   H7        1.0  0.05860  0.82860  0.88940  1.0000
  H   H8        1.0  0.94140  0.32860  0.61060  1.0000
  O   O33       1.0  0.69386  0.31793  0.62433  1.0000
  O   O34       1.0  0.30614  0.81793  0.87567  1.0000
  O   O35       1.0  0.30614  0.68207  0.37567  1.0000
  O   O36       1.0  0.69386  0.18207  0.12433  1.0000
  C   C1        1.0  0.45760  0.44510  0.00040  1.0000
  C   C2        1.0  0.54240  0.94510  0.49960  1.0000
  C   C3        1.0  0.54240  0.55490  0.99960  1.0000
  C   C4        1.0  0.45760  0.05490  0.50040  1.0000
  C   C5        1.0  0.99880  0.47100  0.93910  1.0000
  C   C6        1.0  0.00120  0.97100  0.56090  1.0000
  C   C7        1.0  0.00120  0.52900  0.06090  1.0000
  C   C8        1.0  0.99880  0.02900  0.43910  1.0000
  C   C9        1.0  0.72340  0.18840  0.78860  1.0000
  C   C10       1.0  0.27660  0.68840  0.71140  1.0000
  C   C11       1.0  0.27660  0.81160  0.21140  1.0000
  C   C12       1.0  0.72340  0.31160  0.28860  1.0000
  C   C13       1.0  0.68710  0.30750  0.73200  1.0000
  C   C14       1.0  0.31290  0.80750  0.76800  1.0000
  C   C15       1.0  0.31290  0.69250  0.26800  1.0000
  C   C16       1.0  0.68710  0.19250  0.23200  1.0000
