data_image0
_chemical_formula_structural       Gd4O20H8O16C16
_chemical_formula_sum              "Gd4 O36 H8 C16"
_cell_length_a       10.3203
_cell_length_b       11.7949
_cell_length_c       11.5472
_cell_angle_alpha    90
_cell_angle_beta     105.129
_cell_angle_gamma    90

_space_group_name_H-M_alt    "P 1"
_space_group_IT_number       1

loop_
  _space_group_symop_operation_xyz
  'x, y, z'

loop_
  _atom_site_type_symbol
  _atom_site_label
  _atom_site_symmetry_multiplicity
  _atom_site_fract_x
  _atom_site_fract_y
  _atom_site_fract_z
  _atom_site_occupancy
  Gd  Gd1       1.0  0.24714  0.34850  0.98306  1.0000
  Gd  Gd2       1.0  0.75286  0.84850  0.51694  1.0000
  Gd  Gd3       1.0  0.75286  0.65150  0.01694  1.0000
  Gd  Gd4       1.0  0.24714  0.15150  0.48306  1.0000
  O   O1        1.0  0.30510  0.31710  0.37530  1.0000
  O   O2        1.0  0.69490  0.81710  0.12470  1.0000
  O   O3        1.0  0.69490  0.68290  0.62470  1.0000
  O   O4        1.0  0.30510  0.18290  0.87530  1.0000
  O   O5        1.0  0.08330  0.39290  0.09470  1.0000
  O   O6        1.0  0.91670  0.89290  0.40530  1.0000
  O   O7        1.0  0.91670  0.60710  0.90530  1.0000
  O   O8        1.0  0.08330  0.10710  0.59470  1.0000
  O   O9        1.0  0.34940  0.37880  0.20480  1.0000
  O   O10       1.0  0.65060  0.87880  0.29520  1.0000
  O   O11       1.0  0.65060  0.62120  0.79520  1.0000
  O   O12       1.0  0.34940  0.12120  0.70480  1.0000
  O   O13       1.0  0.48680  0.35220  0.00630  1.0000
  O   O14       1.0  0.51320  0.85220  0.49370  1.0000
  O   O15       1.0  0.51320  0.64780  0.99370  1.0000
  O   O16       1.0  0.48680  0.14780  0.50630  1.0000
  O   O17       1.0  0.04330  0.24660  0.88050  1.0000
  O   O18       1.0  0.95670  0.74660  0.61950  1.0000
  O   O19       1.0  0.95670  0.75340  0.11950  1.0000
  O   O20       1.0  0.04330  0.25340  0.38050  1.0000
  H   H1        1.0  0.97530  0.26530  0.90960  1.0000
  H   H2        1.0  0.02470  0.76530  0.59040  1.0000
  H   H3        1.0  0.02470  0.73470  0.09040  1.0000
  H   H4        1.0  0.97530  0.23470  0.40960  1.0000
  H   H5        1.0  0.05530  0.17270  0.88920  1.0000
  H   H6        1.0  0.94470  0.67270  0.61080  1.0000
  H   H7        1.0  0.94470  0.82730  0.11080  1.0000
  H   H8        1.0  0.05530  0.32730  0.38920  1.0000
  O   O21       1.0  0.26340  0.10940  0.28150  1.0000
  O   O22       1.0  0.73660  0.60940  0.21850  1.0000
  O   O23       1.0  0.73660  0.89060  0.71850  1.0000
  O   O24       1.0  0.26340  0.39060  0.78150  1.0000
  O   O25       1.0  0.26750  0.17820  0.10170  1.0000
  O   O26       1.0  0.73250  0.67820  0.39830  1.0000
  O   O27       1.0  0.73250  0.82180  0.89830  1.0000
  O   O28       1.0  0.26750  0.32180  0.60170  1.0000
  O   O29       1.0  0.66050  0.46040  0.99150  1.0000
  O   O30       1.0  0.33950  0.96040  0.50850  1.0000
  O   O31       1.0  0.33950  0.53960  0.00850  1.0000
  O   O32       1.0  0.66050  0.03960  0.49150  1.0000
  O   O33       1.0  0.92050  0.51050  0.11530  1.0000
  O   O34       1.0  0.07950  0.01050  0.38470  1.0000
  O   O35       1.0  0.07950  0.48950  0.88470  1.0000
  O   O36       1.0  0.92050  0.98950  0.61530  1.0000
  C   C1        1.0  0.27720  0.18690  0.21210  1.0000
  C   C2        1.0  0.72280  0.68690  0.28790  1.0000
  C   C3        1.0  0.72280  0.81310  0.78790  1.0000
  C   C4        1.0  0.27720  0.31310  0.71210  1.0000
  C   C5        1.0  0.00160  0.47140  0.06110  1.0000
  C   C6        1.0  0.99840  0.97140  0.43890  1.0000
  C   C7        1.0  0.99840  0.52860  0.93890  1.0000
  C   C8        1.0  0.00160  0.02860  0.56110  1.0000
  C   C9        1.0  0.31220  0.30640  0.26890  1.0000
  C   C10       1.0  0.68780  0.80640  0.23110  1.0000
  C   C11       1.0  0.68780  0.69360  0.73110  1.0000
  C   C12       1.0  0.31220  0.19360  0.76890  1.0000
  C   C13       1.0  0.54220  0.44590  0.99920  1.0000
  C   C14       1.0  0.45780  0.94590  0.50080  1.0000
  C   C15       1.0  0.45780  0.55410  0.00080  1.0000
  C   C16       1.0  0.54220  0.05410  0.49920  1.0000
