data_image0
_chemical_formula_structural       Ho4O24H4O12C16H4
_chemical_formula_sum              "Ho4 O36 H8 C16"
_cell_length_a       10.2074
_cell_length_b       11.6791
_cell_length_c       11.4238
_cell_angle_alpha    90
_cell_angle_beta     104.246
_cell_angle_gamma    90

_space_group_name_H-M_alt    "P 1"
_space_group_IT_number       1

loop_
  _space_group_symop_operation_xyz
  'x, y, z'

loop_
  _atom_site_type_symbol
  _atom_site_label
  _atom_site_symmetry_multiplicity
  _atom_site_fract_x
  _atom_site_fract_y
  _atom_site_fract_z
  _atom_site_occupancy
  Ho  Ho1       1.0  0.74716  0.65101  0.98112  1.0000
  Ho  Ho2       1.0  0.25284  0.15101  0.51888  1.0000
  Ho  Ho3       1.0  0.25284  0.34899  0.01888  1.0000
  Ho  Ho4       1.0  0.74716  0.84899  0.48112  1.0000
  O   O1        1.0  0.80650  0.81813  0.87540  1.0000
  O   O2        1.0  0.19350  0.31813  0.62460  1.0000
  O   O3        1.0  0.19350  0.18187  0.12460  1.0000
  O   O4        1.0  0.80650  0.68187  0.37540  1.0000
  O   O5        1.0  0.76320  0.61000  0.78120  1.0000
  O   O6        1.0  0.23680  0.11000  0.71880  1.0000
  O   O7        1.0  0.23680  0.39000  0.21880  1.0000
  O   O8        1.0  0.76320  0.89000  0.28120  1.0000
  O   O9        1.0  0.76460  0.68010  0.59860  1.0000
  O   O10       1.0  0.23540  0.18010  0.90140  1.0000
  O   O11       1.0  0.23540  0.31990  0.40140  1.0000
  O   O12       1.0  0.76460  0.81990  0.09860  1.0000
  O   O13       1.0  0.84830  0.88206  0.70200  1.0000
  O   O14       1.0  0.15170  0.38206  0.79800  1.0000
  O   O15       1.0  0.15170  0.11794  0.29800  1.0000
  O   O16       1.0  0.84830  0.61794  0.20200  1.0000
  O   O17       1.0  0.41600  0.39170  0.90640  1.0000
  O   O18       1.0  0.58400  0.89170  0.59360  1.0000
  O   O19       1.0  0.58400  0.60830  0.09360  1.0000
  O   O20       1.0  0.41600  0.10830  0.40640  1.0000
  O   O21       1.0  0.54810  0.75250  0.87980  1.0000
  O   O22       1.0  0.45190  0.25250  0.62020  1.0000
  O   O23       1.0  0.45190  0.24750  0.12020  1.0000
  O   O24       1.0  0.54810  0.74750  0.37980  1.0000
  H   H1        1.0  0.47920  0.73070  0.90820  1.0000
  H   H2        1.0  0.52080  0.23070  0.59180  1.0000
  H   H3        1.0  0.52080  0.26930  0.09180  1.0000
  H   H4        1.0  0.47920  0.76930  0.40820  1.0000
  O   O25       1.0  0.16290  0.53948  0.99470  1.0000
  O   O26       1.0  0.83710  0.03948  0.50530  1.0000
  O   O27       1.0  0.83710  0.46052  0.00530  1.0000
  O   O28       1.0  0.16290  0.96052  0.49470  1.0000
  O   O29       1.0  0.98520  0.64870  0.00400  1.0000
  O   O30       1.0  0.01480  0.14870  0.49600  1.0000
  O   O31       1.0  0.01480  0.35130  0.99600  1.0000
  O   O32       1.0  0.98520  0.85130  0.50400  1.0000
  O   O33       1.0  0.58060  0.50990  0.88350  1.0000
  O   O34       1.0  0.41940  0.00990  0.61650  1.0000
  O   O35       1.0  0.41940  0.49010  0.11650  1.0000
  O   O36       1.0  0.58060  0.99010  0.38350  1.0000
  C   C1        1.0  0.77620  0.68880  0.71090  1.0000
  C   C2        1.0  0.22380  0.18880  0.78910  1.0000
  C   C3        1.0  0.22380  0.31120  0.28910  1.0000
  C   C4        1.0  0.77620  0.81120  0.21090  1.0000
  C   C5        1.0  0.81320  0.80750  0.76690  1.0000
  C   C6        1.0  0.18680  0.30750  0.73310  1.0000
  C   C7        1.0  0.18680  0.19250  0.23310  1.0000
  C   C8        1.0  0.81320  0.69250  0.26690  1.0000
  C   C9        1.0  0.49860  0.47110  0.93910  1.0000
  C   C10       1.0  0.50140  0.97110  0.56090  1.0000
  C   C11       1.0  0.50140  0.52890  0.06090  1.0000
  C   C12       1.0  0.49860  0.02890  0.43910  1.0000
  C   C13       1.0  0.04270  0.55480  0.99970  1.0000
  C   C14       1.0  0.95730  0.05480  0.50030  1.0000
  C   C15       1.0  0.95730  0.44520  0.00030  1.0000
  C   C16       1.0  0.04270  0.94520  0.49970  1.0000
  H   H5        1.0  0.55400  0.82300  0.87700  1.0000
  H   H6        1.0  0.44600  0.32300  0.62300  1.0000
  H   H7        1.0  0.44600  0.17700  0.12300  1.0000
  H   H8        1.0  0.55400  0.67700  0.37700  1.0000
