data_image0
_chemical_formula_structural       Tb4O36H8C16
_chemical_formula_sum              "Tb4 O36 H8 C16"
_cell_length_a       10.2803
_cell_length_b       11.7237
_cell_length_c       11.4883
_cell_angle_alpha    90
_cell_angle_beta     104.765
_cell_angle_gamma    90

_space_group_name_H-M_alt    "P 1"
_space_group_IT_number       1

loop_
  _space_group_symop_operation_xyz
  'x, y, z'

loop_
  _atom_site_type_symbol
  _atom_site_label
  _atom_site_symmetry_multiplicity
  _atom_site_fract_x
  _atom_site_fract_y
  _atom_site_fract_z
  _atom_site_occupancy
  Tb  Tb1       1.0  0.24702  0.65141  0.98228  1.0000
  Tb  Tb2       1.0  0.75298  0.15141  0.51772  1.0000
  Tb  Tb3       1.0  0.75298  0.34859  0.01772  1.0000
  Tb  Tb4       1.0  0.24702  0.84859  0.48228  1.0000
  O   O1        1.0  0.66150  0.53980  0.99280  1.0000
  O   O2        1.0  0.33850  0.03980  0.50720  1.0000
  O   O3        1.0  0.33850  0.46020  0.00720  1.0000
  O   O4        1.0  0.66150  0.96020  0.49280  1.0000
  O   O5        1.0  0.48620  0.64847  0.00560  1.0000
  O   O6        1.0  0.51380  0.14847  0.49440  1.0000
  O   O7        1.0  0.51380  0.35153  0.99440  1.0000
  O   O8        1.0  0.48620  0.85153  0.50560  1.0000
  O   O9        1.0  0.08320  0.60840  0.09380  1.0000
  O   O10       1.0  0.91680  0.10840  0.40620  1.0000
  O   O11       1.0  0.91680  0.39160  0.90620  1.0000
  O   O12       1.0  0.08320  0.89160  0.59380  1.0000
  O   O13       1.0  0.30550  0.68227  0.37560  1.0000
  O   O14       1.0  0.69450  0.18227  0.12440  1.0000
  O   O15       1.0  0.69450  0.31773  0.62440  1.0000
  O   O16       1.0  0.30550  0.81773  0.87560  1.0000
  O   O17       1.0  0.26310  0.89050  0.28180  1.0000
  O   O18       1.0  0.73690  0.39050  0.21820  1.0000
  O   O19       1.0  0.73690  0.10950  0.71820  1.0000
  O   O20       1.0  0.26310  0.60950  0.78180  1.0000
  O   O21       1.0  0.26640  0.82098  0.10080  1.0000
  O   O22       1.0  0.73360  0.32098  0.39920  1.0000
  O   O23       1.0  0.73360  0.17902  0.89920  1.0000
  O   O24       1.0  0.26640  0.67902  0.60080  1.0000
  O   O25       1.0  0.34870  0.61940  0.20380  1.0000
  O   O26       1.0  0.65130  0.11940  0.29620  1.0000
  O   O27       1.0  0.65130  0.38060  0.79620  1.0000
  O   O28       1.0  0.34870  0.88060  0.70380  1.0000
  O   O29       1.0  0.92030  0.48980  0.11610  1.0000
  O   O30       1.0  0.07970  0.98980  0.38390  1.0000
  O   O31       1.0  0.07970  0.51020  0.88390  1.0000
  O   O32       1.0  0.92030  0.01020  0.61610  1.0000
  O   O33       1.0  0.04490  0.75300  0.88010  1.0000
  O   O34       1.0  0.95510  0.25300  0.61990  1.0000
  O   O35       1.0  0.95510  0.24700  0.11990  1.0000
  O   O36       1.0  0.04490  0.74700  0.38010  1.0000
  H   H1        1.0  0.05640  0.82930  0.88880  1.0000
  H   H2        1.0  0.94360  0.32930  0.61120  1.0000
  H   H3        1.0  0.94360  0.17070  0.11120  1.0000
  H   H4        1.0  0.05640  0.67070  0.38880  1.0000
  H   H5        1.0  0.97480  0.73330  0.91010  1.0000
  H   H6        1.0  0.02520  0.23330  0.58990  1.0000
  H   H7        1.0  0.02520  0.26670  0.08990  1.0000
  H   H8        1.0  0.97480  0.76670  0.41010  1.0000
  C   C1        1.0  0.54230  0.55470  0.99950  1.0000
  C   C2        1.0  0.45770  0.05470  0.50050  1.0000
  C   C3        1.0  0.45770  0.44530  0.00050  1.0000
  C   C4        1.0  0.54230  0.94530  0.49950  1.0000
  C   C5        1.0  0.00150  0.52900  0.06060  1.0000
  C   C6        1.0  0.99850  0.02900  0.43940  1.0000
  C   C7        1.0  0.99850  0.47100  0.93940  1.0000
  C   C8        1.0  0.00150  0.97100  0.56060  1.0000
  C   C9        1.0  0.27680  0.81260  0.21210  1.0000
  C   C10       1.0  0.72320  0.31260  0.28790  1.0000
  C   C11       1.0  0.72320  0.18740  0.78790  1.0000
  C   C12       1.0  0.27680  0.68740  0.71210  1.0000
  C   C13       1.0  0.31270  0.69280  0.26810  1.0000
  C   C14       1.0  0.68730  0.19280  0.23190  1.0000
  C   C15       1.0  0.68730  0.30720  0.73190  1.0000
  C   C16       1.0  0.31270  0.80720  0.76810  1.0000
