data_image0
_chemical_formula_structural       Gd2O18H4O2H4N2C6H2C12
_chemical_formula_sum              "Gd2 O20 H10 N2 C18"
_cell_length_a       8.7113
_cell_length_b       9.1913
_cell_length_c       10.5321
_cell_angle_alpha    86.054
_cell_angle_beta     77.189
_cell_angle_gamma    71.101

_space_group_name_H-M_alt    "P 1"
_space_group_IT_number       1

loop_
  _space_group_symop_operation_xyz
  'x, y, z'

loop_
  _atom_site_type_symbol
  _atom_site_label
  _atom_site_symmetry_multiplicity
  _atom_site_fract_x
  _atom_site_fract_y
  _atom_site_fract_z
  _atom_site_occupancy
  Gd  Gd1       1.0  0.78572  0.13028  0.14530  1.0000
  Gd  Gd2       1.0  0.21428  0.86972  0.85470  1.0000
  O   O1        1.0  0.81800  0.27710  0.94570  1.0000
  O   O2        1.0  0.18200  0.72290  0.05430  1.0000
  O   O3        1.0  0.71660  0.42280  0.78770  1.0000
  O   O4        1.0  0.28340  0.57720  0.21230  1.0000
  O   O5        1.0  0.36590  0.62100  0.79570  1.0000
  O   O6        1.0  0.63410  0.37900  0.20430  1.0000
  O   O7        1.0  0.41880  0.43410  0.65460  1.0000
  O   O8        1.0  0.58120  0.56590  0.34540  1.0000
  O   O9        1.0  0.99860  0.25030  0.17100  1.0000
  O   O10       1.0  0.00140  0.74970  0.82900  1.0000
  O   O11       1.0  0.10770  0.05800  0.03340  1.0000
  O   O12       1.0  0.89230  0.94200  0.96660  1.0000
  O   O13       1.0  0.56120  0.03700  0.23820  1.0000
  O   O14       1.0  0.43880  0.96300  0.76180  1.0000
  O   O15       1.0  0.30710  0.02550  0.25480  1.0000
  O   O16       1.0  0.69290  0.97450  0.74520  1.0000
  O   O17       1.0  0.74990  0.14580  0.38330  1.0000
  O   O18       1.0  0.25010  0.85420  0.61670  1.0000
  H   H1        1.0  0.82180  0.11380  0.42560  1.0000
  H   H2        1.0  0.17820  0.88620  0.57440  1.0000
  H   H3        1.0  0.65710  0.15710  0.42720  1.0000
  H   H4        1.0  0.34290  0.84290  0.57280  1.0000
  O   O19       1.0  0.91990  0.88400  0.23120  1.0000
  O   O20       1.0  0.08010  0.11600  0.76880  1.0000
  H   H5        1.0  0.99260  0.82200  0.18010  1.0000
  H   H6        1.0  0.00740  0.17800  0.81990  1.0000
  H   H7        1.0  0.90460  0.83410  0.29810  1.0000
  H   H8        1.0  0.09540  0.16590  0.70190  1.0000
  N   N1        1.0  0.54360  0.21070  0.03270  1.0000
  N   N2        1.0  0.45640  0.78930  0.96730  1.0000
  C   C1        1.0  0.54230  0.30720  0.93240  1.0000
  C   C2        1.0  0.45770  0.69280  0.06760  1.0000
  C   C3        1.0  0.40390  0.37040  0.87640  1.0000
  C   C4        1.0  0.59610  0.62960  0.12360  1.0000
  C   C5        1.0  0.26450  0.32490  0.92970  1.0000
  C   C6        1.0  0.73550  0.67510  0.07030  1.0000
  H   H9        1.0  0.17010  0.36250  0.89470  1.0000
  H   H10       1.0  0.82990  0.63750  0.10530  1.0000
  C   C7        1.0  0.26540  0.22510  0.03370  1.0000
  C   C8        1.0  0.73460  0.77490  0.96630  1.0000
  C   C9        1.0  0.40810  0.17150  0.08560  1.0000
  C   C10       1.0  0.59190  0.82850  0.91440  1.0000
  C   C11       1.0  0.70420  0.33970  0.88370  1.0000
  C   C12       1.0  0.29580  0.66030  0.11630  1.0000
  C   C13       1.0  0.39880  0.48320  0.76580  1.0000
  C   C14       1.0  0.60120  0.51680  0.23420  1.0000
  C   C15       1.0  0.11660  0.17290  0.08560  1.0000
  C   C16       1.0  0.88340  0.82710  0.91440  1.0000
  C   C17       1.0  0.42350  0.06870  0.20240  1.0000
  C   C18       1.0  0.57650  0.93130  0.79760  1.0000
