data_image0
_chemical_formula_structural       Gd2O18H4O2H4N2C6H2C12
_chemical_formula_sum              "Gd2 O20 H10 N2 C18"
_cell_length_a       8.72
_cell_length_b       8.969
_cell_length_c       9.422
_cell_angle_alpha    77.951
_cell_angle_beta     80.69
_cell_angle_gamma    71.308

_space_group_name_H-M_alt    "P 1"
_space_group_IT_number       1

loop_
  _space_group_symop_operation_xyz
  'x, y, z'

loop_
  _atom_site_type_symbol
  _atom_site_label
  _atom_site_symmetry_multiplicity
  _atom_site_fract_x
  _atom_site_fract_y
  _atom_site_fract_z
  _atom_site_occupancy
  Gd  Gd1       1.0  0.35480  0.66438  0.83314  1.0000
  Gd  Gd2       1.0  0.64520  0.33562  0.16686  1.0000
  O   O1        1.0  0.16010  0.59690  0.72990  1.0000
  O   O2        1.0  0.83990  0.40310  0.27010  1.0000
  O   O3        1.0  0.91600  0.57360  0.72030  1.0000
  O   O4        1.0  0.08400  0.42640  0.27970  1.0000
  O   O5        1.0  0.62830  0.55940  0.97130  1.0000
  O   O6        1.0  0.37170  0.44060  0.02870  1.0000
  O   O7        1.0  0.57510  0.79080  0.82290  1.0000
  O   O8        1.0  0.42490  0.20920  0.17710  1.0000
  O   O9        1.0  0.77360  0.06630  0.26400  1.0000
  O   O10       1.0  0.22640  0.93370  0.73600  1.0000
  O   O11       1.0  0.84420  0.82810  0.40260  1.0000
  O   O12       1.0  0.15580  0.17190  0.59740  1.0000
  O   O13       1.0  0.14250  0.90570  0.22790  1.0000
  O   O14       1.0  0.85750  0.09430  0.77210  1.0000
  O   O15       1.0  0.30790  0.78790  0.04920  1.0000
  O   O16       1.0  0.69210  0.21210  0.95080  1.0000
  O   O17       1.0  0.51760  0.42330  0.74160  1.0000
  O   O18       1.0  0.48240  0.57670  0.25840  1.0000
  H   H1        1.0  0.57340  0.44950  0.66730  1.0000
  H   H2        1.0  0.42660  0.55050  0.33270  1.0000
  H   H3        1.0  0.55580  0.35730  0.81150  1.0000
  H   H4        1.0  0.44420  0.64270  0.18850  1.0000
  O   O19       1.0  0.45020  0.72620  0.57780  1.0000
  O   O20       1.0  0.54980  0.27380  0.42220  1.0000
  H   H5        1.0  0.54890  0.71490  0.56230  1.0000
  H   H6        1.0  0.45110  0.28510  0.43770  1.0000
  H   H7        1.0  0.42550  0.65980  0.54570  1.0000
  H   H8        1.0  0.57450  0.34020  0.45430  1.0000
  N   N1        1.0  0.06560  0.72990  0.95970  1.0000
  N   N2        1.0  0.93440  0.27010  0.04030  1.0000
  C   C1        1.0  0.95180  0.69400  0.90700  1.0000
  C   C2        1.0  0.04820  0.30600  0.09300  1.0000
  C   C3        1.0  0.79050  0.72890  0.97210  1.0000
  C   C4        1.0  0.20950  0.27110  0.02790  1.0000
  C   C5        1.0  0.75550  0.80040  0.09390  1.0000
  C   C6        1.0  0.24450  0.19960  0.90610  1.0000
  H   H9        1.0  0.65010  0.82400  0.14030  1.0000
  H   H10       1.0  0.34990  0.17600  0.85970  1.0000
  C   C7        1.0  0.87400  0.83800  0.14910  1.0000
  C   C8        1.0  0.12600  0.16200  0.85090  1.0000
  C   C9        1.0  0.03000  0.80010  0.07730  1.0000
  C   C10       1.0  0.97000  0.19990  0.92270  1.0000
  C   C11       1.0  0.01100  0.61250  0.77100  1.0000
  C   C12       1.0  0.98900  0.38750  0.22900  1.0000
  C   C13       1.0  0.66130  0.69000  0.91430  1.0000
  C   C14       1.0  0.33870  0.31000  0.08570  1.0000
  C   C15       1.0  0.83020  0.91990  0.27990  1.0000
  C   C16       1.0  0.16980  0.08010  0.72010  1.0000
  C   C17       1.0  0.16790  0.83820  0.12420  1.0000
  C   C18       1.0  0.83210  0.16180  0.87580  1.0000
