data_image0
_chemical_formula_structural       Gd2O18H4O2H4N2C6H2C12
_chemical_formula_sum              "Gd2 O20 H10 N2 C18"
_cell_length_a       8.6552
_cell_length_b       9.276
_cell_length_c       10.695
_cell_angle_alpha    93.603
_cell_angle_beta     101.819
_cell_angle_gamma    109.742

_space_group_name_H-M_alt    "P 1"
_space_group_IT_number       1

loop_
  _space_group_symop_operation_xyz
  'x, y, z'

loop_
  _atom_site_type_symbol
  _atom_site_label
  _atom_site_symmetry_multiplicity
  _atom_site_fract_x
  _atom_site_fract_y
  _atom_site_fract_z
  _atom_site_occupancy
  Gd  Gd1       1.0  0.28741  0.83912  0.35525  1.0000
  Gd  Gd2       1.0  0.71259  0.16088  0.64475  1.0000
  O   O1        1.0  0.67560  0.28000  0.44930  1.0000
  O   O2        1.0  0.32440  0.72000  0.55070  1.0000
  O   O3        1.0  0.76700  0.39860  0.28980  1.0000
  O   O4        1.0  0.23300  0.60140  0.71020  1.0000
  O   O5        1.0  0.04980  0.36390  0.15070  1.0000
  O   O6        1.0  0.95020  0.63610  0.84930  1.0000
  O   O7        1.0  0.12160  0.58080  0.27870  1.0000
  O   O8        1.0  0.87840  0.41920  0.72130  1.0000
  O   O9        1.0  0.38760  0.06260  0.52770  1.0000
  O   O10       1.0  0.61240  0.93740  0.47230  1.0000
  O   O11       1.0  0.49710  0.28130  0.65850  1.0000
  O   O12       1.0  0.50290  0.71870  0.34150  1.0000
  O   O13       1.0  0.19400  0.06870  0.74320  1.0000
  O   O14       1.0  0.80600  0.93130  0.25680  1.0000
  O   O15       1.0  0.93790  0.08130  0.73170  1.0000
  O   O16       1.0  0.06210  0.91870  0.26830  1.0000
  O   O17       1.0  0.41430  0.07190  0.26780  1.0000
  O   O18       1.0  0.58570  0.92810  0.73220  1.0000
  H   H1        1.0  0.46500  0.15090  0.31940  1.0000
  H   H2        1.0  0.53500  0.84910  0.68060  1.0000
  H   H3        1.0  0.45100  0.07210  0.20280  1.0000
  H   H4        1.0  0.54900  0.92790  0.79720  1.0000
  O   O19       1.0  0.26550  0.78840  0.12670  1.0000
  O   O20       1.0  0.73450  0.21160  0.87330  1.0000
  H   H5        1.0  0.31430  0.85990  0.09100  1.0000
  H   H6        1.0  0.68570  0.14010  0.90900  1.0000
  H   H7        1.0  0.23340  0.69340  0.11600  1.0000
  H   H8        1.0  0.76660  0.30660  0.88400  1.0000
  N   N1        1.0  0.94970  0.22440  0.53050  1.0000
  N   N2        1.0  0.05030  0.77560  0.46950  1.0000
  C   C1        1.0  0.94820  0.30420  0.42980  1.0000
  C   C2        1.0  0.05180  0.69580  0.57020  1.0000
  C   C3        1.0  0.08410  0.35170  0.37080  1.0000
  C   C4        1.0  0.91590  0.64830  0.62920  1.0000
  C   C5        1.0  0.22060  0.31060  0.42010  1.0000
  C   C6        1.0  0.77940  0.68940  0.57990  1.0000
  H   H9        1.0  0.31260  0.33890  0.38270  1.0000
  H   H10       1.0  0.68740  0.66110  0.61730  1.0000
  C   C7        1.0  0.22530  0.22790  0.52440  1.0000
  C   C8        1.0  0.77470  0.77210  0.47560  1.0000
  C   C9        1.0  0.08510  0.18980  0.57770  1.0000
  C   C10       1.0  0.91490  0.81020  0.42230  1.0000
  C   C11       1.0  0.78220  0.33130  0.38580  1.0000
  C   C12       1.0  0.21780  0.66870  0.61420  1.0000
  C   C13       1.0  0.08580  0.44040  0.25730  1.0000
  C   C14       1.0  0.91420  0.55960  0.74270  1.0000
  C   C15       1.0  0.37470  0.18450  0.57540  1.0000
  C   C16       1.0  0.62530  0.81550  0.42460  1.0000
  C   C17       1.0  0.07280  0.10500  0.69480  1.0000
  C   C18       1.0  0.92720  0.89500  0.30520  1.0000
