data_image0
_chemical_formula_structural       Gd2O18H4O2H4N2C6H2C12
_chemical_formula_sum              "Gd2 O20 H10 N2 C18"
_cell_length_a       8.6761
_cell_length_b       9.3984
_cell_length_c       10.5809
_cell_angle_alpha    92.225
_cell_angle_beta     102.987
_cell_angle_gamma    109.636

_space_group_name_H-M_alt    "P 1"
_space_group_IT_number       1

loop_
  _space_group_symop_operation_xyz
  'x, y, z'

loop_
  _atom_site_type_symbol
  _atom_site_label
  _atom_site_symmetry_multiplicity
  _atom_site_fract_x
  _atom_site_fract_y
  _atom_site_fract_z
  _atom_site_occupancy
  Gd  Gd1       1.0  0.28106  0.84168  0.35600  1.0000
  Gd  Gd2       1.0  0.71894  0.15832  0.64400  1.0000
  O   O1        1.0  0.67430  0.27480  0.44370  1.0000
  O   O2        1.0  0.32570  0.72520  0.55630  1.0000
  O   O3        1.0  0.76550  0.39720  0.28610  1.0000
  O   O4        1.0  0.23450  0.60280  0.71390  1.0000
  O   O5        1.0  0.06100  0.38580  0.14650  1.0000
  O   O6        1.0  0.93900  0.61420  0.85350  1.0000
  O   O7        1.0  0.11900  0.58730  0.29010  1.0000
  O   O8        1.0  0.88100  0.41270  0.70990  1.0000
  O   O9        1.0  0.39140  0.06360  0.52740  1.0000
  O   O10       1.0  0.60860  0.93640  0.47260  1.0000
  O   O11       1.0  0.50390  0.27690  0.65980  1.0000
  O   O12       1.0  0.49610  0.72310  0.34020  1.0000
  O   O13       1.0  0.19860  0.05810  0.74030  1.0000
  O   O14       1.0  0.80140  0.94190  0.25970  1.0000
  O   O15       1.0  0.94120  0.07070  0.72790  1.0000
  O   O16       1.0  0.05880  0.92930  0.27210  1.0000
  O   O17       1.0  0.41090  0.06950  0.26300  1.0000
  O   O18       1.0  0.58910  0.93050  0.73700  1.0000
  H   H1        1.0  0.46500  0.15090  0.31940  1.0000
  H   H2        1.0  0.53500  0.84910  0.68060  1.0000
  H   H3        1.0  0.45100  0.07210  0.20280  1.0000
  H   H4        1.0  0.54900  0.92790  0.79720  1.0000
  O   O19       1.0  0.23700  0.78580  0.12310  1.0000
  O   O20       1.0  0.76300  0.21420  0.87690  1.0000
  H   H5        1.0  0.31430  0.85990  0.09100  1.0000
  H   H6        1.0  0.68570  0.14010  0.90900  1.0000
  H   H7        1.0  0.23340  0.69340  0.11600  1.0000
  H   H8        1.0  0.76660  0.30660  0.88400  1.0000
  N   N1        1.0  0.95370  0.22420  0.52750  1.0000
  N   N2        1.0  0.04630  0.77580  0.47250  1.0000
  C   C1        1.0  0.94900  0.30160  0.42710  1.0000
  C   C2        1.0  0.05100  0.69840  0.57290  1.0000
  C   C3        1.0  0.08500  0.35100  0.36790  1.0000
  C   C4        1.0  0.91500  0.64900  0.63210  1.0000
  C   C5        1.0  0.22600  0.31200  0.42040  1.0000
  C   C6        1.0  0.77400  0.68800  0.57960  1.0000
  H   H9        1.0  0.32020  0.34530  0.38580  1.0000
  H   H10       1.0  0.67980  0.65470  0.61420  1.0000
  C   C7        1.0  0.23000  0.22500  0.52140  1.0000
  C   C8        1.0  0.77000  0.77500  0.47860  1.0000
  C   C9        1.0  0.09100  0.18420  0.57640  1.0000
  C   C10       1.0  0.90900  0.81580  0.42360  1.0000
  C   C11       1.0  0.78600  0.33000  0.38140  1.0000
  C   C12       1.0  0.21400  0.67000  0.61860  1.0000
  C   C13       1.0  0.08800  0.44800  0.26090  1.0000
  C   C14       1.0  0.91200  0.55200  0.73910  1.0000
  C   C15       1.0  0.37900  0.18100  0.57430  1.0000
  C   C16       1.0  0.62100  0.81900  0.42570  1.0000
  C   C17       1.0  0.07900  0.09700  0.69080  1.0000
  C   C18       1.0  0.92100  0.90300  0.30920  1.0000
