data_image0
_chemical_formula_structural       Gd2O18H4O2H4N2C6H2C12
_chemical_formula_sum              "Gd2 O20 H10 N2 C18"
_cell_length_a       8.7196
_cell_length_b       9.222
_cell_length_c       10.5926
_cell_angle_alpha    86.003
_cell_angle_beta     77.168
_cell_angle_gamma    71.09

_space_group_name_H-M_alt    "P 1"
_space_group_IT_number       1

loop_
  _space_group_symop_operation_xyz
  'x, y, z'

loop_
  _atom_site_type_symbol
  _atom_site_label
  _atom_site_symmetry_multiplicity
  _atom_site_fract_x
  _atom_site_fract_y
  _atom_site_fract_z
  _atom_site_occupancy
  Gd  Gd1       1.0  0.78563  0.13141  0.14462  1.0000
  Gd  Gd2       1.0  0.21437  0.86859  0.85538  1.0000
  O   O1        1.0  0.81830  0.27660  0.94570  1.0000
  O   O2        1.0  0.18170  0.72340  0.05430  1.0000
  O   O3        1.0  0.71730  0.42280  0.78890  1.0000
  O   O4        1.0  0.28270  0.57720  0.21110  1.0000
  O   O5        1.0  0.36460  0.61920  0.79620  1.0000
  O   O6        1.0  0.63540  0.38080  0.20380  1.0000
  O   O7        1.0  0.42280  0.43280  0.65610  1.0000
  O   O8        1.0  0.57720  0.56720  0.34390  1.0000
  O   O9        1.0  0.00050  0.24820  0.16840  1.0000
  O   O10       1.0  0.99950  0.75180  0.83160  1.0000
  O   O11       1.0  0.10990  0.05600  0.03170  1.0000
  O   O12       1.0  0.89010  0.94400  0.96830  1.0000
  O   O13       1.0  0.56030  0.03980  0.23860  1.0000
  O   O14       1.0  0.43970  0.96020  0.76140  1.0000
  O   O15       1.0  0.30720  0.02660  0.25360  1.0000
  O   O16       1.0  0.69280  0.97340  0.74640  1.0000
  O   O17       1.0  0.75110  0.14690  0.38150  1.0000
  O   O18       1.0  0.24890  0.85310  0.61850  1.0000
  H   H1        1.0  0.82180  0.11380  0.42560  1.0000
  H   H2        1.0  0.17820  0.88620  0.57440  1.0000
  H   H3        1.0  0.65710  0.15710  0.42720  1.0000
  H   H4        1.0  0.34290  0.84290  0.57280  1.0000
  O   O19       1.0  0.91950  0.88620  0.23000  1.0000
  O   O20       1.0  0.08050  0.11380  0.77000  1.0000
  H   H5        1.0  0.99260  0.82200  0.18010  1.0000
  H   H6        1.0  0.00740  0.17800  0.81990  1.0000
  H   H7        1.0  0.90460  0.83410  0.29810  1.0000
  H   H8        1.0  0.09540  0.16590  0.70190  1.0000
  N   N1        1.0  0.54360  0.21190  0.03300  1.0000
  N   N2        1.0  0.45640  0.78810  0.96700  1.0000
  C   C1        1.0  0.54220  0.30790  0.93330  1.0000
  C   C2        1.0  0.45780  0.69210  0.06670  1.0000
  C   C3        1.0  0.40450  0.36940  0.87750  1.0000
  C   C4        1.0  0.59550  0.63060  0.12250  1.0000
  C   C5        1.0  0.26560  0.32380  0.92870  1.0000
  C   C6        1.0  0.73440  0.67620  0.07130  1.0000
  H   H9        1.0  0.17200  0.36040  0.89290  1.0000
  H   H10       1.0  0.82800  0.63960  0.10710  1.0000
  C   C7        1.0  0.26700  0.22380  0.03280  1.0000
  C   C8        1.0  0.73300  0.77620  0.96720  1.0000
  C   C9        1.0  0.40810  0.17200  0.08500  1.0000
  C   C10       1.0  0.59190  0.82800  0.91500  1.0000
  C   C11       1.0  0.70500  0.33990  0.88490  1.0000
  C   C12       1.0  0.29500  0.66010  0.11510  1.0000
  C   C13       1.0  0.39830  0.48250  0.76710  1.0000
  C   C14       1.0  0.60170  0.51750  0.23290  1.0000
  C   C15       1.0  0.11800  0.17150  0.08390  1.0000
  C   C16       1.0  0.88200  0.82850  0.91610  1.0000
  C   C17       1.0  0.42420  0.07030  0.20160  1.0000
  C   C18       1.0  0.57580  0.92970  0.79840  1.0000
