data_image0
_chemical_formula_structural       Zn2S2O4C2N4C4H2N4C4H2C2H2C8H4C4H2C2H4C2H4C2H2C2H2C2H4C2H2C2H2C2H2C2H2O6C2H6C2H6C6H2O4
_chemical_formula_sum              "Zn2 S2 O14 C52 N8 H50"
_cell_length_a       8.816
_cell_length_b       8.843
_cell_length_c       23.994
_cell_angle_alpha    95.75
_cell_angle_beta     90.69
_cell_angle_gamma    109.57

_space_group_name_H-M_alt    "P 1"
_space_group_IT_number       1

loop_
  _space_group_symop_operation_xyz
  'x, y, z'

loop_
  _atom_site_type_symbol
  _atom_site_label
  _atom_site_symmetry_multiplicity
  _atom_site_fract_x
  _atom_site_fract_y
  _atom_site_fract_z
  _atom_site_occupancy
  Zn  Zn1       1.0  0.47052  0.18406  0.29828  1.0000
  Zn  Zn2       1.0  0.52948  0.81594  0.70172  1.0000
  S   S1        1.0  0.90600  0.64440  0.08119  1.0000
  S   S2        1.0  0.09400  0.35560  0.91881  1.0000
  O   O1        1.0  0.77660  0.41670  0.32420  1.0000
  O   O2        1.0  0.22340  0.58330  0.67580  1.0000
  O   O3        1.0  0.62210  0.30890  0.24670  1.0000
  O   O4        1.0  0.37790  0.69110  0.75330  1.0000
  C   C1        1.0  0.74390  0.41360  0.27440  1.0000
  C   C2        1.0  0.25610  0.58640  0.72560  1.0000
  N   N1        1.0  0.55170  0.05680  0.34860  1.0000
  N   N2        1.0  0.44830  0.94320  0.65140  1.0000
  N   N3        1.0  0.40600  0.34630  0.34920  1.0000
  N   N4        1.0  0.59400  0.65370  0.65080  1.0000
  C   C3        1.0  0.85090  0.54230  0.24150  1.0000
  C   C4        1.0  0.14910  0.45770  0.75850  1.0000
  C   C5        1.0  0.96580  0.67710  0.27050  1.0000
  C   C6        1.0  0.03420  0.32290  0.72950  1.0000
  H   H1        1.0  0.97300  0.68750  0.30950  1.0000
  H   H2        1.0  0.02700  0.31250  0.69050  1.0000
  N   N5        1.0  0.69360  0.93020  0.38680  1.0000
  N   N6        1.0  0.30640  0.06980  0.61320  1.0000
  N   N7        1.0  0.27620  0.49960  0.38730  1.0000
  N   N8        1.0  0.72380  0.50040  0.61270  1.0000
  C   C7        1.0  0.67230  0.99880  0.34150  1.0000
  C   C8        1.0  0.32770  0.00120  0.65850  1.0000
  C   C9        1.0  0.83370  0.53070  0.18350  1.0000
  C   C10       1.0  0.16630  0.46930  0.81650  1.0000
  H   H3        1.0  0.75450  0.44320  0.16380  1.0000
  H   H4        1.0  0.24550  0.55680  0.83620  1.0000
  C   C11       1.0  0.49430  0.02280  0.40100  1.0000
  C   C12       1.0  0.50570  0.97720  0.59900  1.0000
  H   H5        1.0  0.40960  0.04890  0.41710  1.0000
  H   H6        1.0  0.59040  0.95110  0.58290  1.0000
  C   C13       1.0  0.93610  0.65120  0.15520  1.0000
  C   C14       1.0  0.06390  0.34880  0.84480  1.0000
  C   C15       1.0  0.07420  0.54260  0.45020  1.0000
  C   C16       1.0  0.92580  0.45740  0.54980  1.0000
  C   C17       1.0  0.28370  0.40080  0.34220  1.0000
  C   C18       1.0  0.71630  0.59920  0.65780  1.0000
  C   C19       1.0  0.18220  0.36620  0.28830  1.0000
  C   C20       1.0  0.81780  0.63380  0.71170  1.0000
  H   H7        1.0  0.15910  0.25400  0.27370  1.0000
  H   H8        1.0  0.84090  0.74600  0.72630  1.0000
  H   H9        1.0  0.08040  0.38150  0.29620  1.0000
  H   H10       1.0  0.91960  0.61850  0.70380  1.0000
  C   C21       1.0  0.91120  0.92590  0.44970  1.0000
  C   C22       1.0  0.08880  0.07410  0.55030  1.0000
  C   C23       1.0  0.47810  0.41320  0.40050  1.0000
  C   C24       1.0  0.52190  0.58680  0.59950  1.0000
  H   H11       1.0  0.56660  0.39540  0.41630  1.0000
  H   H12       1.0  0.43340  0.60460  0.58370  1.0000
  C   C25       1.0  0.81600  0.85200  0.39660  1.0000
  C   C26       1.0  0.18400  0.14800  0.60340  1.0000
  H   H13       1.0  0.76240  0.73740  0.39850  1.0000
  H   H14       1.0  0.23760  0.26260  0.60150  1.0000
  H   H15       1.0  0.88740  0.86460  0.36570  1.0000
  H   H16       1.0  0.11260  0.13540  0.63430  1.0000
  C   C27       1.0  0.75830  0.00130  0.28830  1.0000
  C   C28       1.0  0.24170  0.99870  0.71170  1.0000
  H   H17       1.0  0.86130  0.98830  0.29580  1.0000
  H   H18       1.0  0.13870  0.01170  0.70420  1.0000
  H   H19       1.0  0.77890  0.10510  0.27430  1.0000
  H   H20       1.0  0.22110  0.89490  0.72570  1.0000
  C   C29       1.0  0.58220  0.94520  0.42470  1.0000
  C   C30       1.0  0.41780  0.05480  0.57530  1.0000
  H   H21       1.0  0.56990  0.90880  0.46000  1.0000
  H   H22       1.0  0.43010  0.09120  0.54000  1.0000
  C   C31       1.0  0.94070  0.41020  0.44900  1.0000
  C   C32       1.0  0.05930  0.58980  0.55100  1.0000
  H   H23       1.0  0.89900  0.34890  0.41500  1.0000
  H   H24       1.0  0.10100  0.65110  0.58500  1.0000
  C   C33       1.0  0.16000  0.58620  0.39690  1.0000
  C   C34       1.0  0.84000  0.41380  0.60310  1.0000
  H   H25       1.0  0.08190  0.55750  0.36540  1.0000
  H   H26       1.0  0.91810  0.44250  0.63460  1.0000
  H   H27       1.0  0.21650  0.70180  0.39990  1.0000
  H   H28       1.0  0.78350  0.29820  0.60010  1.0000
  C   C35       1.0  0.40080  0.51010  0.42480  1.0000
  C   C36       1.0  0.59920  0.48990  0.57520  1.0000
  H   H29       1.0  0.42640  0.57120  0.45960  1.0000
  H   H30       1.0  0.57360  0.42880  0.54040  1.0000
  C   C37       1.0  0.86520  0.86360  0.50040  1.0000
  C   C38       1.0  0.13480  0.13640  0.49960  1.0000
  H   H31       1.0  0.77570  0.77090  0.50100  1.0000
  H   H32       1.0  0.22430  0.22910  0.49900  1.0000
  C   C39       1.0  0.13630  0.63600  0.50080  1.0000
  C   C40       1.0  0.86370  0.36400  0.49920  1.0000
  H   H33       1.0  0.22740  0.72790  0.50180  1.0000
  H   H34       1.0  0.77260  0.27210  0.49820  1.0000
  C   C41       1.0  0.04840  0.06130  0.45010  1.0000
  C   C42       1.0  0.95160  0.93870  0.54990  1.0000
  H   H35       1.0  0.08280  0.10240  0.41650  1.0000
  H   H36       1.0  0.91720  0.89760  0.58350  1.0000
  O   O5        1.0  0.84930  0.47910  0.06160  1.0000
  O   O6        1.0  0.15070  0.52090  0.93840  1.0000
  O   O7        1.0  0.78660  0.72050  0.07320  1.0000
  O   O8        1.0  0.21340  0.27950  0.92680  1.0000
  O   O9        1.0  0.05520  0.73690  0.06270  1.0000
  O   O10       1.0  0.94480  0.26310  0.93730  1.0000
  C   C43       1.0  0.25970  0.46900  0.24540  1.0000
  C   C44       1.0  0.74030  0.53100  0.75460  1.0000
  H   H37       1.0  0.18400  0.45290  0.21450  1.0000
  H   H38       1.0  0.81600  0.54710  0.78550  1.0000
  H   H39       1.0  0.35060  0.44070  0.23260  1.0000
  H   H40       1.0  0.64940  0.55930  0.76740  1.0000
  H   H41       1.0  0.29530  0.57980  0.26110  1.0000
  H   H42       1.0  0.70470  0.42020  0.73890  1.0000
  C   C45       1.0  0.66050  0.86740  0.24380  1.0000
  C   C46       1.0  0.33950  0.13260  0.75620  1.0000
  H   H43       1.0  0.72200  0.86830  0.21100  1.0000
  H   H44       1.0  0.27800  0.13170  0.78900  1.0000
  H   H45       1.0  0.56210  0.88470  0.23410  1.0000
  H   H46       1.0  0.43790  0.11530  0.76590  1.0000
  H   H47       1.0  0.63600  0.76480  0.25810  1.0000
  H   H48       1.0  0.36400  0.23520  0.74190  1.0000
  C   C47       1.0  0.06910  0.79550  0.24210  1.0000
  C   C48       1.0  0.93090  0.20450  0.75790  1.0000
  C   C49       1.0  0.18950  0.93730  0.27540  1.0000
  C   C50       1.0  0.81050  0.06270  0.72460  1.0000
  C   C51       1.0  0.05510  0.78250  0.18440  1.0000
  C   C52       1.0  0.94490  0.21750  0.81560  1.0000
  H   H49       1.0  0.12490  0.86120  0.16500  1.0000
  H   H50       1.0  0.87510  0.13880  0.83500  1.0000
  O   O11       1.0  0.30100  0.02980  0.24790  1.0000
  O   O12       1.0  0.69900  0.97020  0.75210  1.0000
  O   O13       1.0  0.17930  0.96190  0.32660  1.0000
  O   O14       1.0  0.82070  0.03810  0.67340  1.0000
