data_image0
_chemical_formula_structural       Co4Cr4Cl4O52H8C24
_chemical_formula_sum              "Co4 Cr4 Cl4 O52 H8 C24"
_cell_length_a       10.7446
_cell_length_b       14.9493
_cell_length_c       21.948
_cell_angle_alpha    90
_cell_angle_beta     116.322
_cell_angle_gamma    90

_space_group_name_H-M_alt    "P 1"
_space_group_IT_number       1

loop_
  _space_group_symop_operation_xyz
  'x, y, z'

loop_
  _atom_site_type_symbol
  _atom_site_label
  _atom_site_symmetry_multiplicity
  _atom_site_fract_x
  _atom_site_fract_y
  _atom_site_fract_z
  _atom_site_occupancy
  Co  Co1       1.0  0.25845  0.65414  0.32308  1.0000
  Co  Co2       1.0  0.74155  0.15414  0.17692  1.0000
  Co  Co3       1.0  0.74155  0.34586  0.67692  1.0000
  Co  Co4       1.0  0.25845  0.84586  0.82308  1.0000
  Cr  Cr1       1.0  0.74958  0.79251  0.16831  1.0000
  Cr  Cr2       1.0  0.25042  0.29251  0.33169  1.0000
  Cr  Cr3       1.0  0.25042  0.20749  0.83169  1.0000
  Cr  Cr4       1.0  0.74958  0.70749  0.66831  1.0000
  Cl  Cl1       1.0  0.39450  0.75170  0.29220  1.0000
  Cl  Cl2       1.0  0.60550  0.25170  0.20780  1.0000
  Cl  Cl3       1.0  0.60550  0.24830  0.70780  1.0000
  Cl  Cl4       1.0  0.39450  0.74830  0.79220  1.0000
  O   O1        1.0  0.89610  0.79871  0.26505  1.0000
  O   O2        1.0  0.10390  0.29871  0.23495  1.0000
  O   O3        1.0  0.10390  0.20129  0.73495  1.0000
  O   O4        1.0  0.89610  0.70129  0.76505  1.0000
  O   O5        1.0  0.88040  0.70443  0.15953  1.0000
  O   O6        1.0  0.11960  0.20443  0.34047  1.0000
  O   O7        1.0  0.11960  0.29557  0.84047  1.0000
  O   O8        1.0  0.88040  0.79557  0.65953  1.0000
  O   O9        1.0  0.11390  0.74897  0.32911  1.0000
  O   O10       1.0  0.88610  0.24897  0.17089  1.0000
  O   O11       1.0  0.88610  0.25103  0.67089  1.0000
  O   O12       1.0  0.11390  0.75103  0.82911  1.0000
  O   O13       1.0  0.09020  0.64263  0.22261  1.0000
  O   O14       1.0  0.90980  0.14263  0.27739  1.0000
  O   O15       1.0  0.90980  0.35737  0.77739  1.0000
  O   O16       1.0  0.09020  0.85737  0.72261  1.0000
  O   O17       1.0  0.83960  0.89550  0.14546  1.0000
  O   O18       1.0  0.16040  0.39550  0.35454  1.0000
  O   O19       1.0  0.16040  0.10450  0.85454  1.0000
  O   O20       1.0  0.83960  0.60450  0.64546  1.0000
  O   O21       1.0  0.63620  0.88953  0.18248  1.0000
  O   O22       1.0  0.36380  0.38953  0.31752  1.0000
  O   O23       1.0  0.36380  0.11047  0.81752  1.0000
  O   O24       1.0  0.63620  0.61047  0.68248  1.0000
  O   O25       1.0  0.84290  0.04663  0.15072  1.0000
  O   O26       1.0  0.15710  0.54663  0.34928  1.0000
  O   O27       1.0  0.15710  0.95337  0.84928  1.0000
  O   O28       1.0  0.84290  0.45337  0.65072  1.0000
  O   O29       1.0  0.63150  0.03975  0.18720  1.0000
  O   O30       1.0  0.36850  0.53975  0.31280  1.0000
  O   O31       1.0  0.36850  0.96025  0.81280  1.0000
  O   O32       1.0  0.63150  0.46025  0.68720  1.0000
  O   O33       1.0  0.61090  0.77109  0.07350  1.0000
  O   O34       1.0  0.38910  0.27109  0.42650  1.0000
  O   O35       1.0  0.38910  0.22891  0.92650  1.0000
  O   O36       1.0  0.61090  0.72891  0.57350  1.0000
  O   O37       1.0  0.64170  0.69997  0.18827  1.0000
  O   O38       1.0  0.35830  0.19997  0.31173  1.0000
  O   O39       1.0  0.35830  0.30003  0.81173  1.0000
  O   O40       1.0  0.64170  0.80003  0.68827  1.0000
  O   O41       1.0  0.41310  0.69560  0.01379  1.0000
  O   O42       1.0  0.58690  0.19560  0.48621  1.0000
  O   O43       1.0  0.58690  0.30440  0.98621  1.0000
  O   O44       1.0  0.41310  0.80440  0.51379  1.0000
  O   O45       1.0  0.43660  0.62880  0.13671  1.0000
  O   O46       1.0  0.56340  0.12880  0.36329  1.0000
  O   O47       1.0  0.56340  0.37120  0.86329  1.0000
  O   O48       1.0  0.43660  0.87120  0.63671  1.0000
  O   O49       1.0  0.39830  0.67130  0.42163  1.0000
  O   O50       1.0  0.60170  0.17130  0.07837  1.0000
  O   O51       1.0  0.60170  0.32870  0.57837  1.0000
  O   O52       1.0  0.39830  0.82870  0.92163  1.0000
  H   H1        1.0  0.42680  0.61120  0.45250  1.0000
  H   H2        1.0  0.57320  0.11120  0.04750  1.0000
  H   H3        1.0  0.57320  0.38880  0.54750  1.0000
  H   H4        1.0  0.42680  0.88880  0.95250  1.0000
  H   H5        1.0  0.40020  0.71340  0.44650  1.0000
  H   H6        1.0  0.59980  0.21340  0.05350  1.0000
  H   H7        1.0  0.59980  0.28660  0.55350  1.0000
  H   H8        1.0  0.40020  0.78660  0.94650  1.0000
  C   C1        1.0  0.00390  0.75200  0.27569  1.0000
  C   C2        1.0  0.99610  0.25200  0.22431  1.0000
  C   C3        1.0  0.99610  0.24800  0.72431  1.0000
  C   C4        1.0  0.00390  0.74800  0.77569  1.0000
  C   C5        1.0  0.99240  0.69400  0.21453  1.0000
  C   C6        1.0  0.00760  0.19400  0.28547  1.0000
  C   C7        1.0  0.00760  0.30600  0.78547  1.0000
  C   C8        1.0  0.99240  0.80600  0.71453  1.0000
  C   C9        1.0  0.79650  0.97140  0.15515  1.0000
  C   C10       1.0  0.20350  0.47140  0.34485  1.0000
  C   C11       1.0  0.20350  0.02860  0.84485  1.0000
  C   C12       1.0  0.79650  0.52860  0.65515  1.0000
  C   C13       1.0  0.67670  0.96840  0.17669  1.0000
  C   C14       1.0  0.32330  0.46840  0.32331  1.0000
  C   C15       1.0  0.32330  0.03160  0.82331  1.0000
  C   C16       1.0  0.67670  0.53160  0.67669  1.0000
  C   C17       1.0  0.51230  0.71760  0.06740  1.0000
  C   C18       1.0  0.48770  0.21760  0.43260  1.0000
  C   C19       1.0  0.48770  0.28240  0.93260  1.0000
  C   C20       1.0  0.51230  0.78240  0.56740  1.0000
  C   C21       1.0  0.52730  0.67790  0.13550  1.0000
  C   C22       1.0  0.47270  0.17790  0.36450  1.0000
  C   C23       1.0  0.47270  0.32210  0.86450  1.0000
  C   C24       1.0  0.52730  0.82210  0.63550  1.0000
