data_image0
_chemical_formula_structural       Mn4Cr4Cl4O52H8C24
_chemical_formula_sum              "Mn4 Cr4 Cl4 O52 H8 C24"
_cell_length_a       21.239
_cell_length_b       15.109
_cell_length_c       21.809
_cell_angle_alpha    90
_cell_angle_beta     115.163
_cell_angle_gamma    90

_space_group_name_H-M_alt    "P 1"
_space_group_IT_number       1

loop_
  _space_group_symop_operation_xyz
  'x, y, z'

loop_
  _atom_site_type_symbol
  _atom_site_label
  _atom_site_symmetry_multiplicity
  _atom_site_fract_x
  _atom_site_fract_y
  _atom_site_fract_z
  _atom_site_occupancy
  Mn  Mn1       1.0  0.36875  0.65536  0.67540  1.0000
  Mn  Mn2       1.0  0.63125  0.15536  0.82460  1.0000
  Mn  Mn3       1.0  0.63125  0.34464  0.32460  1.0000
  Mn  Mn4       1.0  0.36875  0.84464  0.17540  1.0000
  Cr  Cr1       1.0  0.63138  0.78894  0.83035  1.0000
  Cr  Cr2       1.0  0.36862  0.28894  0.66965  1.0000
  Cr  Cr3       1.0  0.36862  0.21106  0.16965  1.0000
  Cr  Cr4       1.0  0.63138  0.71106  0.33035  1.0000
  Cl  Cl1       1.0  0.29806  0.75490  0.71039  1.0000
  Cl  Cl2       1.0  0.70194  0.25490  0.78961  1.0000
  Cl  Cl3       1.0  0.70194  0.24510  0.28961  1.0000
  Cl  Cl4       1.0  0.29806  0.74510  0.21039  1.0000
  O   O1        1.0  0.56674  0.69898  0.83902  1.0000
  O   O2        1.0  0.43326  0.19898  0.66098  1.0000
  O   O3        1.0  0.43326  0.30102  0.16098  1.0000
  O   O4        1.0  0.56674  0.80102  0.33902  1.0000
  O   O5        1.0  0.55881  0.79347  0.73389  1.0000
  O   O6        1.0  0.44119  0.29347  0.76611  1.0000
  O   O7        1.0  0.44119  0.20653  0.26611  1.0000
  O   O8        1.0  0.55881  0.70653  0.23389  1.0000
  O   O9        1.0  0.45804  0.64644  0.77992  1.0000
  O   O10       1.0  0.54196  0.14644  0.72008  1.0000
  O   O11       1.0  0.54196  0.35356  0.22008  1.0000
  O   O12       1.0  0.45804  0.85356  0.27992  1.0000
  O   O13       1.0  0.45085  0.74362  0.67052  1.0000
  O   O14       1.0  0.54915  0.24362  0.82948  1.0000
  O   O15       1.0  0.54915  0.25638  0.32948  1.0000
  O   O16       1.0  0.45085  0.75638  0.17052  1.0000
  O   O17       1.0  0.41766  0.38732  0.64609  1.0000
  O   O18       1.0  0.58234  0.88732  0.85391  1.0000
  O   O19       1.0  0.58234  0.61268  0.35391  1.0000
  O   O20       1.0  0.41766  0.11268  0.14609  1.0000
  O   O21       1.0  0.31411  0.38844  0.68317  1.0000
  O   O22       1.0  0.68589  0.88844  0.81683  1.0000
  O   O23       1.0  0.68589  0.61156  0.31683  1.0000
  O   O24       1.0  0.31411  0.11156  0.18317  1.0000
  O   O25       1.0  0.42194  0.53710  0.64894  1.0000
  O   O26       1.0  0.57806  0.03710  0.85106  1.0000
  O   O27       1.0  0.57806  0.46290  0.35106  1.0000
  O   O28       1.0  0.42194  0.96290  0.14894  1.0000
  O   O29       1.0  0.31414  0.53677  0.68613  1.0000
  O   O30       1.0  0.68586  0.03677  0.81387  1.0000
  O   O31       1.0  0.68586  0.46323  0.31387  1.0000
  O   O32       1.0  0.31414  0.96323  0.18613  1.0000
  O   O33       1.0  0.70015  0.76827  0.92447  1.0000
  O   O34       1.0  0.29985  0.26827  0.57553  1.0000
  O   O35       1.0  0.29985  0.23173  0.07553  1.0000
  O   O36       1.0  0.70015  0.73173  0.42447  1.0000
  O   O37       1.0  0.69129  0.70557  0.80887  1.0000
  O   O38       1.0  0.30871  0.20557  0.69113  1.0000
  O   O39       1.0  0.30871  0.29443  0.19113  1.0000
  O   O40       1.0  0.69129  0.79443  0.30887  1.0000
  O   O41       1.0  0.80579  0.70800  0.98229  1.0000
  O   O42       1.0  0.19421  0.20800  0.51771  1.0000
  O   O43       1.0  0.19421  0.29200  0.01771  1.0000
  O   O44       1.0  0.80579  0.79200  0.48229  1.0000
  O   O45       1.0  0.80592  0.66960  0.85458  1.0000
  O   O46       1.0  0.19408  0.16960  0.64542  1.0000
  O   O47       1.0  0.19408  0.33040  0.14542  1.0000
  O   O48       1.0  0.80592  0.83040  0.35458  1.0000
  O   O49       1.0  0.30520  0.67225  0.57085  1.0000
  O   O50       1.0  0.69480  0.17225  0.92915  1.0000
  O   O51       1.0  0.69480  0.32775  0.42915  1.0000
  O   O52       1.0  0.30520  0.82775  0.07085  1.0000
  H   H1        1.0  0.28900  0.62580  0.54670  1.0000
  H   H2        1.0  0.71100  0.12580  0.95330  1.0000
  H   H3        1.0  0.71100  0.37420  0.45330  1.0000
  H   H4        1.0  0.28900  0.87420  0.04670  1.0000
  H   H5        1.0  0.30270  0.72140  0.54680  1.0000
  H   H6        1.0  0.69730  0.22140  0.95320  1.0000
  H   H7        1.0  0.69730  0.27860  0.45320  1.0000
  H   H8        1.0  0.30270  0.77860  0.04680  1.0000
  C   C1        1.0  0.50853  0.69190  0.78590  1.0000
  C   C2        1.0  0.49147  0.19190  0.71410  1.0000
  C   C3        1.0  0.49147  0.30810  0.21410  1.0000
  C   C4        1.0  0.50853  0.80810  0.28590  1.0000
  C   C5        1.0  0.50469  0.74780  0.72403  1.0000
  C   C6        1.0  0.49531  0.24780  0.77597  1.0000
  C   C7        1.0  0.49531  0.25220  0.27597  1.0000
  C   C8        1.0  0.50469  0.75220  0.22403  1.0000
  C   C9        1.0  0.39739  0.46450  0.65449  1.0000
  C   C10       1.0  0.60261  0.96450  0.84551  1.0000
  C   C11       1.0  0.60261  0.53550  0.34551  1.0000
  C   C12       1.0  0.39739  0.03550  0.15449  1.0000
  C   C13       1.0  0.33637  0.46440  0.67586  1.0000
  C   C14       1.0  0.66363  0.96440  0.82414  1.0000
  C   C15       1.0  0.66363  0.53560  0.32414  1.0000
  C   C16       1.0  0.33637  0.03560  0.17586  1.0000
  C   C17       1.0  0.75460  0.72520  0.92880  1.0000
  C   C18       1.0  0.24540  0.22520  0.57120  1.0000
  C   C19       1.0  0.24540  0.27480  0.07120  1.0000
  C   C20       1.0  0.75460  0.77480  0.42880  1.0000
  C   C21       1.0  0.75230  0.69650  0.85870  1.0000
  C   C22       1.0  0.24770  0.19650  0.64130  1.0000
  C   C23       1.0  0.24770  0.30350  0.14130  1.0000
  C   C24       1.0  0.75230  0.80350  0.35870  1.0000
