data_image0
_chemical_formula_structural       Mn2Cr2O26H4O2H4O2H4C12
_chemical_formula_sum              "Mn2 Cr2 O30 H12 C12"
_cell_length_a       9.3746
_cell_length_b       11.9158
_cell_length_c       10.2291
_cell_angle_alpha    90
_cell_angle_beta     115.202
_cell_angle_gamma    90

_space_group_name_H-M_alt    "P 1"
_space_group_IT_number       1

loop_
  _space_group_symop_operation_xyz
  'x, y, z'

loop_
  _atom_site_type_symbol
  _atom_site_label
  _atom_site_symmetry_multiplicity
  _atom_site_fract_x
  _atom_site_fract_y
  _atom_site_fract_z
  _atom_site_occupancy
  Mn  Mn1       1.0  0.73117  0.66298  0.50851  1.0000
  Mn  Mn2       1.0  0.73117  0.33702  0.00851  1.0000
  Cr  Cr1       1.0  0.37231  0.26367  0.36257  1.0000
  Cr  Cr2       1.0  0.37231  0.73633  0.86257  1.0000
  O   O1        1.0  0.54410  0.18450  0.33890  1.0000
  O   O2        1.0  0.54410  0.81550  0.83890  1.0000
  O   O3        1.0  0.36220  0.12510  0.46210  1.0000
  O   O4        1.0  0.36220  0.87490  0.96210  1.0000
  O   O5        1.0  0.65200  0.01290  0.36590  1.0000
  O   O6        1.0  0.65200  0.98710  0.86590  1.0000
  O   O7        1.0  0.43700  0.94560  0.48160  1.0000
  O   O8        1.0  0.43700  0.05440  0.98160  1.0000
  O   O9        1.0  0.39890  0.40515  0.27150  1.0000
  O   O10       1.0  0.39890  0.59485  0.77150  1.0000
  O   O11       1.0  0.52580  0.33854  0.54330  1.0000
  O   O12       1.0  0.52580  0.66146  0.04330  1.0000
  O   O13       1.0  0.66440  0.49960  0.61350  1.0000
  O   O14       1.0  0.66440  0.50040  0.11350  1.0000
  O   O15       1.0  0.50730  0.57710  0.33630  1.0000
  O   O16       1.0  0.50730  0.42290  0.83630  1.0000
  O   O17       1.0  0.20910  0.79460  0.67720  1.0000
  O   O18       1.0  0.20910  0.20540  0.17720  1.0000
  O   O19       1.0  0.18650  0.66720  0.87920  1.0000
  O   O20       1.0  0.18650  0.33280  0.37920  1.0000
  O   O21       1.0  0.94660  0.78080  0.54100  1.0000
  O   O22       1.0  0.94660  0.21920  0.04100  1.0000
  O   O23       1.0  0.92950  0.63260  0.73720  1.0000
  O   O24       1.0  0.92950  0.36740  0.23720  1.0000
  O   O25       1.0  0.83760  0.54640  0.41440  1.0000
  O   O26       1.0  0.83760  0.45360  0.91440  1.0000
  H   H1        1.0  0.92810  0.51990  0.43970  1.0000
  H   H2        1.0  0.92810  0.48010  0.93970  1.0000
  H   H3        1.0  0.81530  0.54510  0.32790  1.0000
  H   H4        1.0  0.81530  0.45490  0.82790  1.0000
  O   O27       1.0  0.62450  0.77100  0.60570  1.0000
  O   O28       1.0  0.62450  0.22900  0.10570  1.0000
  H   H5        1.0  0.54500  0.80120  0.52060  1.0000
  H   H6        1.0  0.54500  0.19880  0.02060  1.0000
  H   H7        1.0  0.61670  0.77870  0.66520  1.0000
  H   H8        1.0  0.61670  0.22130  0.16520  1.0000
  O   O29       1.0  0.63880  0.77990  0.32140  1.0000
  O   O30       1.0  0.63880  0.22010  0.82140  1.0000
  H   H9        1.0  0.59680  0.75120  0.20740  1.0000
  H   H10       1.0  0.59680  0.24880  0.70740  1.0000
  H   H11       1.0  0.64850  0.85180  0.33030  1.0000
  H   H12       1.0  0.64850  0.14820  0.83030  1.0000
  C   C1        1.0  0.55870  0.07860  0.37730  1.0000
  C   C2        1.0  0.55870  0.92140  0.87730  1.0000
  C   C3        1.0  0.44500  0.04410  0.44740  1.0000
  C   C4        1.0  0.44500  0.95590  0.94740  1.0000
  C   C5        1.0  0.48590  0.47950  0.36360  1.0000
  C   C6        1.0  0.48590  0.52050  0.86360  1.0000
  C   C7        1.0  0.56790  0.43740  0.52280  1.0000
  C   C8        1.0  0.56790  0.56260  0.02280  1.0000
  C   C9        1.0  0.06930  0.75850  0.64810  1.0000
  C   C10       1.0  0.06930  0.24150  0.14810  1.0000
  C   C11       1.0  0.05710  0.67870  0.76100  1.0000
  C   C12       1.0  0.05710  0.32130  0.26100  1.0000
