data_image0
_chemical_formula_structural       MnCr2C2O4C2O4C2O5H2C2O4C2O4C2O4
_chemical_formula_sum              "Mn1 Cr2 C12 O25 H2"
_cell_length_a       10.524
_cell_length_b       12.813
_cell_length_c       15.44
_cell_angle_alpha    91.666
_cell_angle_beta     94.199
_cell_angle_gamma    90.373

_space_group_name_H-M_alt    "P 1"
_space_group_IT_number       1

loop_
  _space_group_symop_operation_xyz
  'x, y, z'

loop_
  _atom_site_type_symbol
  _atom_site_label
  _atom_site_symmetry_multiplicity
  _atom_site_fract_x
  _atom_site_fract_y
  _atom_site_fract_z
  _atom_site_occupancy
  Mn  Mn1       1.0  0.15472  0.49421  0.33706  1.0000
  Cr  Cr1       1.0  0.19943  0.10965  0.49513  1.0000
  Cr  Cr2       1.0  0.60533  0.47986  0.17845  1.0000
  C   C1        1.0  0.20580  0.26800  0.37380  1.0000
  C   C2        1.0  0.13070  0.31240  0.45100  1.0000
  O   O1        1.0  0.21760  0.32445  0.31051  1.0000
  O   O2        1.0  0.09857  0.40682  0.45069  1.0000
  O   O3        1.0  0.24610  0.17372  0.38328  1.0000
  O   O4        1.0  0.10759  0.24632  0.50922  1.0000
  C   C3        1.0  0.85880  0.49090  0.24540  1.0000
  C   C4        1.0  0.80810  0.60630  0.24741  1.0000
  O   O5        1.0  0.96940  0.47064  0.27187  1.0000
  O   O6        1.0  0.87800  0.67979  0.27669  1.0000
  O   O7        1.0  0.77522  0.42196  0.21507  1.0000
  O   O8        1.0  0.69042  0.61491  0.21696  1.0000
  C   C5        1.0  0.42910  0.49570  0.30660  1.0000
  C   C6        1.0  0.35890  0.52760  0.21980  1.0000
  O   O9        1.0  0.37088  0.49959  0.37481  1.0000
  O   O10       1.0  0.24161  0.54044  0.21818  1.0000
  O   O11       1.0  0.54587  0.46656  0.30057  1.0000
  O   O12       1.0  0.42936  0.53815  0.15675  1.0000
  O   O13       1.0  0.09450  0.64184  0.38577  1.0000
  H   H1        1.0  0.02800  0.67190  0.35680  1.0000
  H   H2        1.0  0.13950  0.69980  0.41050  1.0000
  C   C7        1.0  0.20920  0.89930  0.45090  1.0000
  C   C8        1.0  0.07130  0.93420  0.41970  1.0000
  O   O14       1.0  0.28724  0.97581  0.47022  1.0000
  O   O15       1.0  0.05197  0.03391  0.43358  1.0000
  O   O16       1.0  0.23730  0.80516  0.45502  1.0000
  O   O17       1.0  0.99530  0.87023  0.38367  1.0000
  C   C9        1.0  0.36240  0.13710  0.64190  1.0000
  C   C10       1.0  0.25850  0.05630  0.66370  1.0000
  O   O18       1.0  0.34994  0.17033  0.56345  1.0000
  O   O19       1.0  0.15950  0.05393  0.60721  1.0000
  O   O20       1.0  0.44850  0.16320  0.69713  1.0000
  O   O21       1.0  0.27370  0.00420  0.72897  1.0000
  C   C11       1.0  0.55420  0.31780  0.05560  1.0000
  C   C12       1.0  0.61240  0.40970  0.00590  1.0000
  O   O22       1.0  0.54380  0.33849  0.13836  1.0000
  O   O23       1.0  0.64540  0.49156  0.05717  1.0000
  O   O24       1.0  0.52390  0.23370  0.01781  1.0000
  O   O25       1.0  0.62370  0.40120  0.92737  1.0000
