data_image0
_chemical_formula_structural       I42Cu36P12C36N72H36C36H36C36H36C36H36C36H36O12
_chemical_formula_sum              "I42 Cu36 P12 C180 N72 H180 O12"
_cell_length_a       14.4114
_cell_length_b       14.4114
_cell_length_c       46.858
_cell_angle_alpha    90
_cell_angle_beta     90
_cell_angle_gamma    120

_space_group_name_H-M_alt    "P 1"
_space_group_IT_number       1

loop_
  _space_group_symop_operation_xyz
  'x, y, z'

loop_
  _atom_site_type_symbol
  _atom_site_label
  _atom_site_symmetry_multiplicity
  _atom_site_fract_x
  _atom_site_fract_y
  _atom_site_fract_z
  _atom_site_occupancy
  I   I1        1.0  0.00000  0.00000  0.50000  1.0000
  I   I2        1.0  0.00000  0.00000  0.00000  1.0000
  I   I3        1.0  0.66667  0.33333  0.83333  1.0000
  I   I4        1.0  0.66667  0.33333  0.33333  1.0000
  I   I5        1.0  0.33333  0.66667  0.16667  1.0000
  I   I6        1.0  0.33333  0.66667  0.66667  1.0000
  I   I7        1.0  0.95156  0.15592  0.57325  1.0000
  I   I8        1.0  0.84408  0.79564  0.57325  1.0000
  I   I9        1.0  0.20436  0.04844  0.57325  1.0000
  I   I10       1.0  0.79564  0.84408  0.92675  1.0000
  I   I11       1.0  0.04844  0.20436  0.92675  1.0000
  I   I12       1.0  0.15592  0.95156  0.92675  1.0000
  I   I13       1.0  0.61823  0.48925  0.90658  1.0000
  I   I14       1.0  0.51075  0.12897  0.90658  1.0000
  I   I15       1.0  0.87103  0.38177  0.90658  1.0000
  I   I16       1.0  0.46231  0.17741  0.26008  1.0000
  I   I17       1.0  0.71511  0.53769  0.26008  1.0000
  I   I18       1.0  0.82259  0.28489  0.26008  1.0000
  I   I19       1.0  0.28489  0.82259  0.23992  1.0000
  I   I20       1.0  0.17741  0.46231  0.23992  1.0000
  I   I21       1.0  0.53769  0.71511  0.23992  1.0000
  I   I22       1.0  0.12897  0.51075  0.59342  1.0000
  I   I23       1.0  0.38177  0.87103  0.59342  1.0000
  I   I24       1.0  0.48925  0.61823  0.59342  1.0000
  I   I25       1.0  0.04844  0.84408  0.42675  1.0000
  I   I26       1.0  0.15592  0.20436  0.42675  1.0000
  I   I27       1.0  0.79564  0.95156  0.42675  1.0000
  I   I28       1.0  0.20436  0.15592  0.07325  1.0000
  I   I29       1.0  0.95156  0.79564  0.07325  1.0000
  I   I30       1.0  0.84408  0.04844  0.07325  1.0000
  I   I31       1.0  0.38177  0.51075  0.09342  1.0000
  I   I32       1.0  0.48925  0.87103  0.09342  1.0000
  I   I33       1.0  0.12897  0.61823  0.09342  1.0000
  I   I34       1.0  0.53769  0.82259  0.73992  1.0000
  I   I35       1.0  0.28489  0.46231  0.73992  1.0000
  I   I36       1.0  0.17741  0.71511  0.73992  1.0000
  I   I37       1.0  0.71511  0.17741  0.76008  1.0000
  I   I38       1.0  0.82259  0.53769  0.76008  1.0000
  I   I39       1.0  0.46231  0.28489  0.76008  1.0000
  I   I40       1.0  0.87103  0.48925  0.40658  1.0000
  I   I41       1.0  0.61823  0.12897  0.40658  1.0000
  I   I42       1.0  0.51075  0.38177  0.40658  1.0000
  Cu  Cu1       1.0  0.09745  0.12765  0.54916  1.0000
  Cu  Cu2       1.0  0.87235  0.96980  0.54916  1.0000
  Cu  Cu3       1.0  0.03020  0.90255  0.54916  1.0000
  Cu  Cu4       1.0  0.96980  0.87235  0.95084  1.0000
  Cu  Cu5       1.0  0.90255  0.03020  0.95084  1.0000
  Cu  Cu6       1.0  0.12765  0.09745  0.95084  1.0000
  Cu  Cu7       1.0  0.76412  0.46098  0.88249  1.0000
  Cu  Cu8       1.0  0.53902  0.30313  0.88249  1.0000
  Cu  Cu9       1.0  0.69687  0.23588  0.88249  1.0000
  Cu  Cu10      1.0  0.63647  0.20568  0.28417  1.0000
  Cu  Cu11      1.0  0.56922  0.36353  0.28417  1.0000
  Cu  Cu12      1.0  0.79432  0.43078  0.28417  1.0000
  Cu  Cu13      1.0  0.43078  0.79432  0.21583  1.0000
  Cu  Cu14      1.0  0.20568  0.63647  0.21583  1.0000
  Cu  Cu15      1.0  0.36353  0.56922  0.21583  1.0000
  Cu  Cu16      1.0  0.30313  0.53902  0.61751  1.0000
  Cu  Cu17      1.0  0.23588  0.69687  0.61751  1.0000
  Cu  Cu18      1.0  0.46098  0.76412  0.61751  1.0000
  Cu  Cu19      1.0  0.90255  0.87235  0.45084  1.0000
  Cu  Cu20      1.0  0.12765  0.03020  0.45084  1.0000
  Cu  Cu21      1.0  0.96980  0.09745  0.45084  1.0000
  Cu  Cu22      1.0  0.03020  0.12765  0.04916  1.0000
  Cu  Cu23      1.0  0.09745  0.96980  0.04916  1.0000
  Cu  Cu24      1.0  0.87235  0.90255  0.04916  1.0000
  Cu  Cu25      1.0  0.23588  0.53902  0.11751  1.0000
  Cu  Cu26      1.0  0.46098  0.69687  0.11751  1.0000
  Cu  Cu27      1.0  0.30313  0.76412  0.11751  1.0000
  Cu  Cu28      1.0  0.36353  0.79432  0.71583  1.0000
  Cu  Cu29      1.0  0.43078  0.63647  0.71583  1.0000
  Cu  Cu30      1.0  0.20568  0.56922  0.71583  1.0000
  Cu  Cu31      1.0  0.56922  0.20568  0.78417  1.0000
  Cu  Cu32      1.0  0.79432  0.36353  0.78417  1.0000
  Cu  Cu33      1.0  0.63647  0.43078  0.78417  1.0000
  Cu  Cu34      1.0  0.69687  0.46098  0.38249  1.0000
  Cu  Cu35      1.0  0.76412  0.30313  0.38249  1.0000
  Cu  Cu36      1.0  0.53902  0.23588  0.38249  1.0000
  P   P1        1.0  0.33333  0.66667  0.51303  1.0000
  P   P2        1.0  0.66666  0.33333  0.98697  1.0000
  P   P3        1.0  1.00000  0.00000  0.84636  1.0000
  P   P4        1.0  0.33333  0.66666  0.32030  1.0000
  P   P5        1.0  0.66666  0.33334  0.17970  1.0000
  P   P6        1.0  0.99999  1.00000  0.65364  1.0000
  P   P7        1.0  0.66667  0.33333  0.48697  1.0000
  P   P8        1.0  0.33334  0.66667  0.01303  1.0000
  P   P9        1.0  0.00000  1.00000  0.15364  1.0000
  P   P10       1.0  0.66667  0.33334  0.67970  1.0000
  P   P11       1.0  0.33334  0.66666  0.82030  1.0000
  P   P12       1.0  0.00001  0.00000  0.34636  1.0000
  C   C1        1.0  0.27810  0.45640  0.52119  1.0000
  C   C2        1.0  0.54360  0.82170  0.52119  1.0000
  C   C3        1.0  0.17830  0.72190  0.52119  1.0000
  C   C4        1.0  0.82170  0.54360  0.97881  1.0000
  C   C5        1.0  0.72190  0.17830  0.97881  1.0000
  C   C6        1.0  0.45640  0.27810  0.97881  1.0000
  C   C7        1.0  0.94477  0.78973  0.85452  1.0000
  C   C8        1.0  0.21027  0.15503  0.85452  1.0000
  C   C9        1.0  0.84497  0.05523  0.85452  1.0000
  C   C10       1.0  0.48837  0.87693  0.31214  1.0000
  C   C11       1.0  0.38857  0.51163  0.31214  1.0000
  C   C12       1.0  0.12307  0.61143  0.31214  1.0000
  C   C13       1.0  0.61143  0.12307  0.18786  1.0000
  C   C14       1.0  0.87693  0.48837  0.18786  1.0000
  C   C15       1.0  0.51163  0.38857  0.18786  1.0000
  C   C16       1.0  0.15503  0.21027  0.64548  1.0000
  C   C17       1.0  0.05523  0.84497  0.64548  1.0000
  C   C18       1.0  0.78973  0.94477  0.64548  1.0000
  C   C19       1.0  0.72190  0.54360  0.47881  1.0000
  C   C20       1.0  0.45640  0.17830  0.47881  1.0000
  C   C21       1.0  0.82170  0.27810  0.47881  1.0000
  C   C22       1.0  0.17830  0.45640  0.02119  1.0000
  C   C23       1.0  0.27810  0.82170  0.02119  1.0000
  C   C24       1.0  0.54360  0.72190  0.02119  1.0000
  C   C25       1.0  0.05523  0.21027  0.14548  1.0000
  C   C26       1.0  0.78973  0.84497  0.14548  1.0000
  C   C27       1.0  0.15503  0.94477  0.14548  1.0000
  C   C28       1.0  0.51163  0.12307  0.68786  1.0000
  C   C29       1.0  0.61143  0.48837  0.68786  1.0000
  C   C30       1.0  0.87693  0.38857  0.68786  1.0000
  C   C31       1.0  0.38857  0.87693  0.81214  1.0000
  C   C32       1.0  0.12307  0.51163  0.81214  1.0000
  C   C33       1.0  0.48837  0.61143  0.81214  1.0000
  C   C34       1.0  0.84497  0.78973  0.35452  1.0000
  C   C35       1.0  0.94477  0.15503  0.35452  1.0000
  C   C36       1.0  0.21027  0.05523  0.35452  1.0000
  N   N1        1.0  0.20990  0.26930  0.53065  1.0000
  N   N2        1.0  0.73070  0.94060  0.53065  1.0000
  N   N3        1.0  0.05940  0.79010  0.53065  1.0000
  N   N4        1.0  0.94060  0.73070  0.96935  1.0000
  N   N5        1.0  0.79010  0.05940  0.96935  1.0000
  N   N6        1.0  0.26930  0.20990  0.96935  1.0000
  N   N7        1.0  0.87657  0.60263  0.86398  1.0000
  N   N8        1.0  0.39737  0.27393  0.86398  1.0000
  N   N9        1.0  0.72607  0.12343  0.86398  1.0000
  N   N10       1.0  0.60727  0.06403  0.30268  1.0000
  N   N11       1.0  0.45677  0.39273  0.30268  1.0000
  N   N12       1.0  0.93597  0.54323  0.30268  1.0000
  N   N13       1.0  0.54323  0.93597  0.19732  1.0000
  N   N14       1.0  0.06403  0.60727  0.19732  1.0000
  N   N15       1.0  0.39273  0.45677  0.19732  1.0000
  N   N16       1.0  0.27393  0.39737  0.63602  1.0000
  N   N17       1.0  0.12343  0.72607  0.63602  1.0000
  N   N18       1.0  0.60263  0.87657  0.63602  1.0000
  N   N19       1.0  0.79010  0.73070  0.46935  1.0000
  N   N20       1.0  0.26930  0.05940  0.46935  1.0000
  N   N21       1.0  0.94060  0.20990  0.46935  1.0000
  N   N22       1.0  0.05940  0.26930  0.03065  1.0000
  N   N23       1.0  0.20990  0.94060  0.03065  1.0000
  N   N24       1.0  0.73070  0.79010  0.03065  1.0000
  N   N25       1.0  0.12343  0.39737  0.13602  1.0000
  N   N26       1.0  0.60263  0.72607  0.13602  1.0000
  N   N27       1.0  0.27393  0.87657  0.13602  1.0000
  N   N28       1.0  0.39273  0.93597  0.69732  1.0000
  N   N29       1.0  0.54323  0.60727  0.69732  1.0000
  N   N30       1.0  0.06403  0.45677  0.69732  1.0000
  N   N31       1.0  0.45677  0.06403  0.80268  1.0000
  N   N32       1.0  0.93597  0.39273  0.80268  1.0000
  N   N33       1.0  0.60727  0.54323  0.80268  1.0000
  N   N34       1.0  0.72607  0.60263  0.36398  1.0000
  N   N35       1.0  0.87657  0.27393  0.36398  1.0000
  N   N36       1.0  0.39737  0.12343  0.36398  1.0000
  N   N37       1.0  0.26760  0.54600  0.52769  1.0000
  N   N38       1.0  0.45400  0.72160  0.52769  1.0000
  N   N39       1.0  0.27840  0.73240  0.52769  1.0000
  N   N40       1.0  0.72160  0.45400  0.97231  1.0000
  N   N41       1.0  0.73240  0.27840  0.97231  1.0000
  N   N42       1.0  0.54600  0.26760  0.97231  1.0000
  N   N43       1.0  0.93427  0.87933  0.86102  1.0000
  N   N44       1.0  0.12067  0.05493  0.86102  1.0000
  N   N45       1.0  0.94507  0.06573  0.86102  1.0000
  N   N46       1.0  0.38827  0.78733  0.30564  1.0000
  N   N47       1.0  0.39907  0.61173  0.30564  1.0000
  N   N48       1.0  0.21267  0.60093  0.30564  1.0000
  N   N49       1.0  0.60093  0.21267  0.19436  1.0000
  N   N50       1.0  0.78733  0.38827  0.19436  1.0000
  N   N51       1.0  0.61173  0.39907  0.19436  1.0000
  N   N52       1.0  0.05493  0.12067  0.63898  1.0000
  N   N53       1.0  0.06573  0.94507  0.63898  1.0000
  N   N54       1.0  0.87933  0.93427  0.63898  1.0000
  N   N55       1.0  0.73240  0.45400  0.47231  1.0000
  N   N56       1.0  0.54600  0.27840  0.47231  1.0000
  N   N57       1.0  0.72160  0.26760  0.47231  1.0000
  N   N58       1.0  0.27840  0.54600  0.02769  1.0000
  N   N59       1.0  0.26760  0.72160  0.02769  1.0000
  N   N60       1.0  0.45400  0.73240  0.02769  1.0000
  N   N61       1.0  0.06573  0.12067  0.13898  1.0000
  N   N62       1.0  0.87933  0.94507  0.13898  1.0000
  N   N63       1.0  0.05493  0.93427  0.13898  1.0000
  N   N64       1.0  0.61173  0.21267  0.69436  1.0000
  N   N65       1.0  0.60093  0.38827  0.69436  1.0000
  N   N66       1.0  0.78733  0.39907  0.69436  1.0000
  N   N67       1.0  0.39907  0.78733  0.80564  1.0000
  N   N68       1.0  0.21267  0.61173  0.80564  1.0000
  N   N69       1.0  0.38827  0.60093  0.80564  1.0000
  N   N70       1.0  0.94507  0.87933  0.36102  1.0000
  N   N71       1.0  0.93427  0.05493  0.36102  1.0000
  N   N72       1.0  0.12067  0.06573  0.36102  1.0000
  H   H1        1.0  0.22083  0.53692  0.54104  1.0000
  H   H2        1.0  0.46308  0.68391  0.54104  1.0000
  H   H3        1.0  0.31609  0.77917  0.54104  1.0000
  H   H4        1.0  0.68391  0.46308  0.95896  1.0000
  H   H5        1.0  0.77917  0.31609  0.95896  1.0000
  H   H6        1.0  0.53692  0.22083  0.95896  1.0000
  H   H7        1.0  0.88750  0.87025  0.87437  1.0000
  H   H8        1.0  0.12975  0.01724  0.87437  1.0000
  H   H9        1.0  0.98276  0.11250  0.87437  1.0000
  H   H10       1.0  0.35058  0.79641  0.29229  1.0000
  H   H11       1.0  0.44584  0.64942  0.29229  1.0000
  H   H12       1.0  0.20359  0.55416  0.29229  1.0000
  H   H13       1.0  0.55416  0.20359  0.20771  1.0000
  H   H14       1.0  0.79641  0.35058  0.20771  1.0000
  H   H15       1.0  0.64942  0.44584  0.20771  1.0000
  H   H16       1.0  0.01724  0.12975  0.62563  1.0000
  H   H17       1.0  0.11250  0.98276  0.62563  1.0000
  H   H18       1.0  0.87025  0.88750  0.62563  1.0000
  H   H19       1.0  0.77917  0.46308  0.45896  1.0000
  H   H20       1.0  0.53692  0.31609  0.45896  1.0000
  H   H21       1.0  0.68391  0.22083  0.45896  1.0000
  H   H22       1.0  0.31609  0.53692  0.04104  1.0000
  H   H23       1.0  0.22083  0.68391  0.04104  1.0000
  H   H24       1.0  0.46308  0.77917  0.04104  1.0000
  H   H25       1.0  0.11250  0.12975  0.12563  1.0000
  H   H26       1.0  0.87025  0.98276  0.12563  1.0000
  H   H27       1.0  0.01724  0.88750  0.12563  1.0000
  H   H28       1.0  0.64942  0.20359  0.70771  1.0000
  H   H29       1.0  0.55416  0.35058  0.70771  1.0000
  H   H30       1.0  0.79641  0.44584  0.70771  1.0000
  H   H31       1.0  0.44584  0.79641  0.79229  1.0000
  H   H32       1.0  0.20359  0.64942  0.79229  1.0000
  H   H33       1.0  0.35058  0.55416  0.79229  1.0000
  H   H34       1.0  0.98276  0.87025  0.37437  1.0000
  H   H35       1.0  0.88750  0.01724  0.37437  1.0000
  H   H36       1.0  0.12975  0.11250  0.37437  1.0000
  C   C37       1.0  0.21350  0.36190  0.53595  1.0000
  C   C38       1.0  0.63810  0.85160  0.53595  1.0000
  C   C39       1.0  0.14840  0.78650  0.53595  1.0000
  C   C40       1.0  0.85160  0.63810  0.96405  1.0000
  C   C41       1.0  0.78650  0.14840  0.96405  1.0000
  C   C42       1.0  0.36190  0.21350  0.96405  1.0000
  C   C43       1.0  0.88017  0.69523  0.86928  1.0000
  C   C44       1.0  0.30477  0.18493  0.86928  1.0000
  C   C45       1.0  0.81507  0.11983  0.86928  1.0000
  C   C46       1.0  0.51827  0.97143  0.29738  1.0000
  C   C47       1.0  0.45317  0.48173  0.29738  1.0000
  C   C48       1.0  0.02857  0.54683  0.29738  1.0000
  C   C49       1.0  0.54683  0.02857  0.20262  1.0000
  C   C50       1.0  0.97143  0.51827  0.20262  1.0000
  C   C51       1.0  0.48173  0.45317  0.20262  1.0000
  C   C52       1.0  0.18493  0.30477  0.63072  1.0000
  C   C53       1.0  0.11983  0.81507  0.63072  1.0000
  C   C54       1.0  0.69523  0.88017  0.63072  1.0000
  C   C55       1.0  0.78650  0.63810  0.46405  1.0000
  C   C56       1.0  0.36190  0.14840  0.46405  1.0000
  C   C57       1.0  0.85160  0.21350  0.46405  1.0000
  C   C58       1.0  0.14840  0.36190  0.03595  1.0000
  C   C59       1.0  0.21350  0.85160  0.03595  1.0000
  C   C60       1.0  0.63810  0.78650  0.03595  1.0000
  C   C61       1.0  0.11983  0.30477  0.13072  1.0000
  C   C62       1.0  0.69523  0.81507  0.13072  1.0000
  C   C63       1.0  0.18493  0.88017  0.13072  1.0000
  C   C64       1.0  0.48173  0.02857  0.70262  1.0000
  C   C65       1.0  0.54683  0.51827  0.70262  1.0000
  C   C66       1.0  0.97143  0.45317  0.70262  1.0000
  C   C67       1.0  0.45317  0.97143  0.79738  1.0000
  C   C68       1.0  0.02857  0.48173  0.79738  1.0000
  C   C69       1.0  0.51827  0.54683  0.79738  1.0000
  C   C70       1.0  0.81507  0.69523  0.36928  1.0000
  C   C71       1.0  0.88017  0.18493  0.36928  1.0000
  C   C72       1.0  0.30477  0.11983  0.36928  1.0000
  H   H37       1.0  0.16922  0.36348  0.55074  1.0000
  H   H38       1.0  0.63652  0.80574  0.55074  1.0000
  H   H39       1.0  0.19426  0.83078  0.55074  1.0000
  H   H40       1.0  0.80574  0.63652  0.94926  1.0000
  H   H41       1.0  0.83078  0.19426  0.94926  1.0000
  H   H42       1.0  0.36348  0.16922  0.94926  1.0000
  H   H43       1.0  0.83589  0.69681  0.88407  1.0000
  H   H44       1.0  0.30319  0.13907  0.88407  1.0000
  H   H45       1.0  0.86093  0.16411  0.88407  1.0000
  H   H46       1.0  0.47241  0.96985  0.28259  1.0000
  H   H47       1.0  0.49745  0.52759  0.28259  1.0000
  H   H48       1.0  0.03015  0.50255  0.28259  1.0000
  H   H49       1.0  0.50255  0.03015  0.21741  1.0000
  H   H50       1.0  0.96985  0.47241  0.21741  1.0000
  H   H51       1.0  0.52759  0.49745  0.21741  1.0000
  H   H52       1.0  0.13907  0.30319  0.61593  1.0000
  H   H53       1.0  0.16411  0.86093  0.61593  1.0000
  H   H54       1.0  0.69681  0.83589  0.61593  1.0000
  H   H55       1.0  0.83078  0.63652  0.44926  1.0000
  H   H56       1.0  0.36348  0.19426  0.44926  1.0000
  H   H57       1.0  0.80574  0.16922  0.44926  1.0000
  H   H58       1.0  0.19426  0.36348  0.05074  1.0000
  H   H59       1.0  0.16922  0.80574  0.05074  1.0000
  H   H60       1.0  0.63652  0.83078  0.05074  1.0000
  H   H61       1.0  0.16411  0.30319  0.11593  1.0000
  H   H62       1.0  0.69681  0.86093  0.11593  1.0000
  H   H63       1.0  0.13907  0.83589  0.11593  1.0000
  H   H64       1.0  0.52759  0.03015  0.71741  1.0000
  H   H65       1.0  0.50255  0.47241  0.71741  1.0000
  H   H66       1.0  0.96985  0.49745  0.71741  1.0000
  H   H67       1.0  0.49745  0.96985  0.78259  1.0000
  H   H68       1.0  0.03015  0.52759  0.78259  1.0000
  H   H69       1.0  0.47241  0.50255  0.78259  1.0000
  H   H70       1.0  0.86093  0.69681  0.38407  1.0000
  H   H71       1.0  0.83589  0.13907  0.38407  1.0000
  H   H72       1.0  0.30319  0.16411  0.38407  1.0000
  C   C73       1.0  0.34410  0.45460  0.50014  1.0000
  C   C74       1.0  0.54540  0.88950  0.50014  1.0000
  C   C75       1.0  0.11050  0.65590  0.50014  1.0000
  C   C76       1.0  0.88950  0.54540  0.99986  1.0000
  C   C77       1.0  0.65590  0.11050  0.99986  1.0000
  C   C78       1.0  0.45460  0.34410  0.99986  1.0000
  C   C79       1.0  0.01077  0.78793  0.83347  1.0000
  C   C80       1.0  0.21207  0.22283  0.83347  1.0000
  C   C81       1.0  0.77717  0.98923  0.83347  1.0000
  C   C82       1.0  0.55617  0.87873  0.33319  1.0000
  C   C83       1.0  0.32257  0.44383  0.33319  1.0000
  C   C84       1.0  0.12127  0.67743  0.33319  1.0000
  C   C85       1.0  0.67743  0.12127  0.16681  1.0000
  C   C86       1.0  0.87873  0.55617  0.16681  1.0000
  C   C87       1.0  0.44383  0.32257  0.16681  1.0000
  C   C88       1.0  0.22283  0.21207  0.66653  1.0000
  C   C89       1.0  0.98923  0.77717  0.66653  1.0000
  C   C90       1.0  0.78793  0.01077  0.66653  1.0000
  C   C91       1.0  0.65590  0.54540  0.49986  1.0000
  C   C92       1.0  0.45460  0.11050  0.49986  1.0000
  C   C93       1.0  0.88950  0.34410  0.49986  1.0000
  C   C94       1.0  0.11050  0.45460  0.00014  1.0000
  C   C95       1.0  0.34410  0.88950  0.00014  1.0000
  C   C96       1.0  0.54540  0.65590  0.00014  1.0000
  C   C97       1.0  0.98923  0.21207  0.16653  1.0000
  C   C98       1.0  0.78793  0.77717  0.16653  1.0000
  C   C99       1.0  0.22283  0.01077  0.16653  1.0000
  C   C100      1.0  0.44383  0.12127  0.66681  1.0000
  C   C101      1.0  0.67743  0.55617  0.66681  1.0000
  C   C102      1.0  0.87873  0.32257  0.66681  1.0000
  C   C103      1.0  0.32257  0.87873  0.83319  1.0000
  C   C104      1.0  0.12127  0.44383  0.83319  1.0000
  C   C105      1.0  0.55617  0.67743  0.83319  1.0000
  C   C106      1.0  0.77717  0.78793  0.33347  1.0000
  C   C107      1.0  0.01077  0.22283  0.33347  1.0000
  C   C108      1.0  0.21207  0.98923  0.33347  1.0000
  H   H73       1.0  0.38888  0.51740  0.48944  1.0000
  H   H74       1.0  0.48260  0.87148  0.48944  1.0000
  H   H75       1.0  0.12852  0.61112  0.48944  1.0000
  H   H76       1.0  0.87148  0.48260  0.01056  1.0000
  H   H77       1.0  0.61112  0.12852  0.01056  1.0000
  H   H78       1.0  0.51740  0.38888  0.01056  1.0000
  H   H79       1.0  0.05555  0.85073  0.82277  1.0000
  H   H80       1.0  0.14927  0.20481  0.82277  1.0000
  H   H81       1.0  0.79519  0.94445  0.82277  1.0000
  H   H82       1.0  0.53815  0.81593  0.34389  1.0000
  H   H83       1.0  0.27779  0.46185  0.34389  1.0000
  H   H84       1.0  0.18407  0.72221  0.34389  1.0000
  H   H85       1.0  0.72221  0.18407  0.15611  1.0000
  H   H86       1.0  0.81593  0.53815  0.15611  1.0000
  H   H87       1.0  0.46185  0.27779  0.15611  1.0000
  H   H88       1.0  0.20481  0.14927  0.67723  1.0000
  H   H89       1.0  0.94445  0.79519  0.67723  1.0000
  H   H90       1.0  0.85073  0.05555  0.67723  1.0000
  H   H91       1.0  0.61112  0.48260  0.51056  1.0000
  H   H92       1.0  0.51740  0.12852  0.51056  1.0000
  H   H93       1.0  0.87148  0.38888  0.51056  1.0000
  H   H94       1.0  0.12852  0.51740  0.98944  1.0000
  H   H95       1.0  0.38888  0.87148  0.98944  1.0000
  H   H96       1.0  0.48260  0.61112  0.98944  1.0000
  H   H97       1.0  0.94445  0.14927  0.17723  1.0000
  H   H98       1.0  0.85073  0.79519  0.17723  1.0000
  H   H99       1.0  0.20481  0.05555  0.17723  1.0000
  H   H100      1.0  0.46185  0.18407  0.65611  1.0000
  H   H101      1.0  0.72221  0.53815  0.65611  1.0000
  H   H102      1.0  0.81593  0.27779  0.65611  1.0000
  H   H103      1.0  0.27779  0.81593  0.84389  1.0000
  H   H104      1.0  0.18407  0.46185  0.84389  1.0000
  H   H105      1.0  0.53815  0.72221  0.84389  1.0000
  H   H106      1.0  0.79519  0.85073  0.32277  1.0000
  H   H107      1.0  0.05555  0.20481  0.32277  1.0000
  H   H108      1.0  0.14927  0.94445  0.32277  1.0000
  C   C109      1.0  0.34430  0.36030  0.49483  1.0000
  C   C110      1.0  0.63970  0.98400  0.49483  1.0000
  C   C111      1.0  0.01600  0.65570  0.49483  1.0000
  C   C112      1.0  0.98400  0.63970  0.00517  1.0000
  C   C113      1.0  0.65570  0.01600  0.00517  1.0000
  C   C114      1.0  0.36030  0.34430  0.00517  1.0000
  C   C115      1.0  0.01097  0.69363  0.82816  1.0000
  C   C116      1.0  0.30637  0.31733  0.82816  1.0000
  C   C117      1.0  0.68267  0.98903  0.82816  1.0000
  C   C118      1.0  0.65067  0.97303  0.33850  1.0000
  C   C119      1.0  0.32237  0.34933  0.33850  1.0000
  C   C120      1.0  0.02697  0.67763  0.33850  1.0000
  C   C121      1.0  0.67763  0.02697  0.16150  1.0000
  C   C122      1.0  0.97303  0.65067  0.16150  1.0000
  C   C123      1.0  0.34933  0.32237  0.16150  1.0000
  C   C124      1.0  0.31733  0.30637  0.67184  1.0000
  C   C125      1.0  0.98903  0.68267  0.67184  1.0000
  C   C126      1.0  0.69363  0.01097  0.67184  1.0000
  C   C127      1.0  0.65570  0.63970  0.50517  1.0000
  C   C128      1.0  0.36030  0.01600  0.50517  1.0000
  C   C129      1.0  0.98400  0.34430  0.50517  1.0000
  C   C130      1.0  0.01600  0.36030  0.99483  1.0000
  C   C131      1.0  0.34430  0.98400  0.99483  1.0000
  C   C132      1.0  0.63970  0.65570  0.99483  1.0000
  C   C133      1.0  0.98903  0.30637  0.17184  1.0000
  C   C134      1.0  0.69363  0.68267  0.17184  1.0000
  C   C135      1.0  0.31733  0.01097  0.17184  1.0000
  C   C136      1.0  0.34933  0.02697  0.66150  1.0000
  C   C137      1.0  0.67763  0.65067  0.66150  1.0000
  C   C138      1.0  0.97303  0.32237  0.66150  1.0000
  C   C139      1.0  0.32237  0.97303  0.83850  1.0000
  C   C140      1.0  0.02697  0.34933  0.83850  1.0000
  C   C141      1.0  0.65067  0.67763  0.83850  1.0000
  C   C142      1.0  0.68267  0.69363  0.32816  1.0000
  C   C143      1.0  0.01097  0.31733  0.32816  1.0000
  C   C144      1.0  0.30637  0.98903  0.32816  1.0000
  H   H109      1.0  0.39021  0.35766  0.48072  1.0000
  H   H110      1.0  0.64234  0.03255  0.48072  1.0000
  H   H111      1.0  0.96745  0.60979  0.48072  1.0000
  H   H112      1.0  0.03255  0.64234  0.01928  1.0000
  H   H113      1.0  0.60979  0.96745  0.01928  1.0000
  H   H114      1.0  0.35766  0.39021  0.01928  1.0000
  H   H115      1.0  0.05688  0.69099  0.81405  1.0000
  H   H116      1.0  0.30901  0.36588  0.81405  1.0000
  H   H117      1.0  0.63412  0.94312  0.81405  1.0000
  H   H118      1.0  0.69922  0.97567  0.35261  1.0000
  H   H119      1.0  0.27646  0.30078  0.35261  1.0000
  H   H120      1.0  0.02433  0.72354  0.35261  1.0000
  H   H121      1.0  0.72354  0.02433  0.14739  1.0000
  H   H122      1.0  0.97567  0.69922  0.14739  1.0000
  H   H123      1.0  0.30078  0.27646  0.14739  1.0000
  H   H124      1.0  0.36588  0.30901  0.68595  1.0000
  H   H125      1.0  0.94312  0.63412  0.68595  1.0000
  H   H126      1.0  0.69099  0.05688  0.68595  1.0000
  H   H127      1.0  0.60979  0.64234  0.51928  1.0000
  H   H128      1.0  0.35766  0.96745  0.51928  1.0000
  H   H129      1.0  0.03255  0.39021  0.51928  1.0000
  H   H130      1.0  0.96745  0.35766  0.98072  1.0000
  H   H131      1.0  0.39021  0.03255  0.98072  1.0000
  H   H132      1.0  0.64234  0.60979  0.98072  1.0000
  H   H133      1.0  0.94312  0.30901  0.18595  1.0000
  H   H134      1.0  0.69099  0.63412  0.18595  1.0000
  H   H135      1.0  0.36588  0.05688  0.18595  1.0000
  H   H136      1.0  0.30078  0.02433  0.64739  1.0000
  H   H137      1.0  0.72354  0.69922  0.64739  1.0000
  H   H138      1.0  0.97567  0.27646  0.64739  1.0000
  H   H139      1.0  0.27646  0.97567  0.85261  1.0000
  H   H140      1.0  0.02433  0.30078  0.85261  1.0000
  H   H141      1.0  0.69922  0.72354  0.85261  1.0000
  H   H142      1.0  0.63412  0.69099  0.31405  1.0000
  H   H143      1.0  0.05688  0.36588  0.31405  1.0000
  H   H144      1.0  0.30901  0.94312  0.31405  1.0000
  C   C145      1.0  0.27610  0.26950  0.51047  1.0000
  C   C146      1.0  0.73050  0.00660  0.51047  1.0000
  C   C147      1.0  0.99340  0.72390  0.51047  1.0000
  C   C148      1.0  0.00660  0.73050  0.98953  1.0000
  C   C149      1.0  0.72390  0.99340  0.98953  1.0000
  C   C150      1.0  0.26950  0.27610  0.98953  1.0000
  C   C151      1.0  0.94277  0.60283  0.84380  1.0000
  C   C152      1.0  0.39717  0.33993  0.84380  1.0000
  C   C153      1.0  0.66007  0.05723  0.84380  1.0000
  C   C154      1.0  0.67327  0.06383  0.32286  1.0000
  C   C155      1.0  0.39057  0.32673  0.32286  1.0000
  C   C156      1.0  0.93617  0.60943  0.32286  1.0000
  C   C157      1.0  0.60943  0.93617  0.17714  1.0000
  C   C158      1.0  0.06383  0.67327  0.17714  1.0000
  C   C159      1.0  0.32673  0.39057  0.17714  1.0000
  C   C160      1.0  0.33993  0.39717  0.65620  1.0000
  C   C161      1.0  0.05723  0.66007  0.65620  1.0000
  C   C162      1.0  0.60283  0.94277  0.65620  1.0000
  C   C163      1.0  0.72390  0.73050  0.48953  1.0000
  C   C164      1.0  0.26950  0.99340  0.48953  1.0000
  C   C165      1.0  0.00660  0.27610  0.48953  1.0000
  C   C166      1.0  0.99340  0.26950  0.01047  1.0000
  C   C167      1.0  0.27610  0.00660  0.01047  1.0000
  C   C168      1.0  0.73050  0.72390  0.01047  1.0000
  C   C169      1.0  0.05723  0.39717  0.15620  1.0000
  C   C170      1.0  0.60283  0.66007  0.15620  1.0000
  C   C171      1.0  0.33993  0.94277  0.15620  1.0000
  C   C172      1.0  0.32673  0.93617  0.67714  1.0000
  C   C173      1.0  0.60943  0.67327  0.67714  1.0000
  C   C174      1.0  0.06383  0.39057  0.67714  1.0000
  C   C175      1.0  0.39057  0.06383  0.82286  1.0000
  C   C176      1.0  0.93617  0.32673  0.82286  1.0000
  C   C177      1.0  0.67327  0.60943  0.82286  1.0000
  C   C178      1.0  0.66007  0.60283  0.34380  1.0000
  C   C179      1.0  0.94277  0.33993  0.34380  1.0000
  C   C180      1.0  0.39717  0.05723  0.34380  1.0000
  H   H145      1.0  0.27630  0.20487  0.50673  1.0000
  H   H146      1.0  0.79513  0.07143  0.50673  1.0000
  H   H147      1.0  0.92857  0.72370  0.50673  1.0000
  H   H148      1.0  0.07143  0.79513  0.99327  1.0000
  H   H149      1.0  0.72370  0.92857  0.99327  1.0000
  H   H150      1.0  0.20487  0.27630  0.99327  1.0000
  H   H151      1.0  0.94297  0.53820  0.84006  1.0000
  H   H152      1.0  0.46180  0.40476  0.84006  1.0000
  H   H153      1.0  0.59524  0.05703  0.84006  1.0000
  H   H154      1.0  0.73810  0.12846  0.32660  1.0000
  H   H155      1.0  0.39037  0.26190  0.32660  1.0000
  H   H156      1.0  0.87154  0.60963  0.32660  1.0000
  H   H157      1.0  0.60963  0.87154  0.17340  1.0000
  H   H158      1.0  0.12846  0.73810  0.17340  1.0000
  H   H159      1.0  0.26190  0.39037  0.17340  1.0000
  H   H160      1.0  0.40476  0.46180  0.65994  1.0000
  H   H161      1.0  0.05703  0.59524  0.65994  1.0000
  H   H162      1.0  0.53820  0.94297  0.65994  1.0000
  H   H163      1.0  0.72370  0.79513  0.49327  1.0000
  H   H164      1.0  0.20487  0.92857  0.49327  1.0000
  H   H165      1.0  0.07143  0.27630  0.49327  1.0000
  H   H166      1.0  0.92857  0.20487  0.00673  1.0000
  H   H167      1.0  0.27630  0.07143  0.00673  1.0000
  H   H168      1.0  0.79513  0.72370  0.00673  1.0000
  H   H169      1.0  0.05703  0.46180  0.15994  1.0000
  H   H170      1.0  0.53820  0.59524  0.15994  1.0000
  H   H171      1.0  0.40476  0.94297  0.15994  1.0000
  H   H172      1.0  0.26190  0.87154  0.67340  1.0000
  H   H173      1.0  0.60963  0.73810  0.67340  1.0000
  H   H174      1.0  0.12846  0.39037  0.67340  1.0000
  H   H175      1.0  0.39037  0.12846  0.82660  1.0000
  H   H176      1.0  0.87154  0.26190  0.82660  1.0000
  H   H177      1.0  0.73810  0.60963  0.82660  1.0000
  H   H178      1.0  0.59524  0.53820  0.34006  1.0000
  H   H179      1.0  0.94297  0.40476  0.34006  1.0000
  H   H180      1.0  0.46180  0.05703  0.34006  1.0000
  O   O1        1.0  0.33333  0.66667  0.48167  1.0000
  O   O2        1.0  0.66666  0.33333  0.01833  1.0000
  O   O3        1.0  1.00000  0.00000  0.81500  1.0000
  O   O4        1.0  0.33333  0.66666  0.35166  1.0000
  O   O5        1.0  0.66666  0.33334  0.14834  1.0000
  O   O6        1.0  0.99999  1.00000  0.68500  1.0000
  O   O7        1.0  0.66667  0.33333  0.51833  1.0000
  O   O8        1.0  0.33334  0.66667  0.98167  1.0000
  O   O9        1.0  0.00000  1.00000  0.18500  1.0000
  O   O10       1.0  0.66667  0.33334  0.64834  1.0000
  O   O11       1.0  0.33334  0.66666  0.85166  1.0000
  O   O12       1.0  0.00001  0.00000  0.31500  1.0000
