data_image0
_chemical_formula_structural       Cr8Mn8O96C48
_chemical_formula_sum              "Cr8 Mn8 O96 C48"
_cell_length_a       21.01
_cell_length_b       15.988
_cell_length_c       21.963
_cell_angle_alpha    90
_cell_angle_beta     90.339
_cell_angle_gamma    90

_space_group_name_H-M_alt    "P 1"
_space_group_IT_number       1

loop_
  _space_group_symop_operation_xyz
  'x, y, z'

loop_
  _atom_site_type_symbol
  _atom_site_label
  _atom_site_symmetry_multiplicity
  _atom_site_fract_x
  _atom_site_fract_y
  _atom_site_fract_z
  _atom_site_occupancy
  Cr  Cr1       1.0  0.12666  0.50670  0.24789  1.0000
  Cr  Cr2       1.0  0.37334  0.00670  0.25211  1.0000
  Cr  Cr3       1.0  0.87334  0.49330  0.75211  1.0000
  Cr  Cr4       1.0  0.62666  0.99330  0.74789  1.0000
  Cr  Cr5       1.0  0.75273  0.76192  0.37722  1.0000
  Cr  Cr6       1.0  0.74727  0.26192  0.12278  1.0000
  Cr  Cr7       1.0  0.24727  0.23808  0.62278  1.0000
  Cr  Cr8       1.0  0.25273  0.73808  0.87722  1.0000
  Mn  Mn1       1.0  0.86883  0.51540  0.24468  1.0000
  Mn  Mn2       1.0  0.63117  0.01540  0.25532  1.0000
  Mn  Mn3       1.0  0.13117  0.48460  0.75532  1.0000
  Mn  Mn4       1.0  0.36883  0.98460  0.74468  1.0000
  Mn  Mn5       1.0  0.25869  0.75120  0.12613  1.0000
  Mn  Mn6       1.0  0.24131  0.25120  0.37387  1.0000
  Mn  Mn7       1.0  0.74131  0.24880  0.87387  1.0000
  Mn  Mn8       1.0  0.75869  0.74880  0.62613  1.0000
  O   O1        1.0  0.19320  0.51810  0.18760  1.0000
  O   O2        1.0  0.30680  0.01810  0.31240  1.0000
  O   O3        1.0  0.80680  0.48190  0.81240  1.0000
  O   O4        1.0  0.69320  0.98190  0.68760  1.0000
  O   O5        1.0  0.13510  0.63230  0.24620  1.0000
  O   O6        1.0  0.36490  0.13230  0.25380  1.0000
  O   O7        1.0  0.86490  0.36770  0.75380  1.0000
  O   O8        1.0  0.63510  0.86770  0.74620  1.0000
  O   O9        1.0  0.18550  0.72830  0.19210  1.0000
  O   O10       1.0  0.31450  0.22830  0.30790  1.0000
  O   O11       1.0  0.81450  0.27170  0.80790  1.0000
  O   O12       1.0  0.68550  0.77170  0.69210  1.0000
  O   O13       1.0  0.25490  0.61410  0.14210  1.0000
  O   O14       1.0  0.24510  0.11410  0.35790  1.0000
  O   O15       1.0  0.74510  0.38590  0.85790  1.0000
  O   O16       1.0  0.75490  0.88590  0.64210  1.0000
  O   O17       1.0  0.13020  0.38430  0.24920  1.0000
  O   O18       1.0  0.36980  0.88430  0.25080  1.0000
  O   O19       1.0  0.86980  0.61570  0.75080  1.0000
  O   O20       1.0  0.63020  0.11570  0.74920  1.0000
  O   O21       1.0  0.19130  0.48300  0.31560  1.0000
  O   O22       1.0  0.30870  0.98300  0.18440  1.0000
  O   O23       1.0  0.80870  0.51700  0.68440  1.0000
  O   O24       1.0  0.69130  0.01700  0.81560  1.0000
  O   O25       1.0  0.16780  0.27550  0.30340  1.0000
  O   O26       1.0  0.33220  0.77550  0.19660  1.0000
  O   O27       1.0  0.83220  0.72450  0.69660  1.0000
  O   O28       1.0  0.66780  0.22450  0.80340  1.0000
  O   O29       1.0  0.23800  0.38740  0.36640  1.0000
  O   O30       1.0  0.26200  0.88740  0.13360  1.0000
  O   O31       1.0  0.76200  0.61260  0.63360  1.0000
  O   O32       1.0  0.73800  0.11260  0.86640  1.0000
  O   O33       1.0  0.05580  0.51530  0.30490  1.0000
  O   O34       1.0  0.44420  0.01530  0.19510  1.0000
  O   O35       1.0  0.94420  0.48470  0.69510  1.0000
  O   O36       1.0  0.55580  0.98470  0.80490  1.0000
  O   O37       1.0  0.05820  0.51410  0.19370  1.0000
  O   O38       1.0  0.44180  0.01410  0.30630  1.0000
  O   O39       1.0  0.94180  0.48590  0.80630  1.0000
  O   O40       1.0  0.55820  0.98590  0.69370  1.0000
  O   O41       1.0  0.94740  0.51330  0.30810  1.0000
  O   O42       1.0  0.55260  0.01330  0.19190  1.0000
  O   O43       1.0  0.05260  0.48670  0.69190  1.0000
  O   O44       1.0  0.44740  0.98670  0.80810  1.0000
  O   O45       1.0  0.94910  0.52700  0.18160  1.0000
  O   O46       1.0  0.55090  0.02700  0.31840  1.0000
  O   O47       1.0  0.05090  0.47300  0.81840  1.0000
  O   O48       1.0  0.44910  0.97300  0.68160  1.0000
  O   O49       1.0  0.75180  0.63650  0.37090  1.0000
  O   O50       1.0  0.74820  0.13650  0.12910  1.0000
  O   O51       1.0  0.24820  0.36350  0.62910  1.0000
  O   O52       1.0  0.25180  0.86350  0.87090  1.0000
  O   O53       1.0  0.81610  0.75210  0.31080  1.0000
  O   O54       1.0  0.68390  0.25210  0.18920  1.0000
  O   O55       1.0  0.18390  0.24790  0.68920  1.0000
  O   O56       1.0  0.31610  0.74790  0.81080  1.0000
  O   O57       1.0  0.79910  0.53450  0.31730  1.0000
  O   O58       1.0  0.70090  0.03450  0.18270  1.0000
  O   O59       1.0  0.20090  0.46550  0.68270  1.0000
  O   O60       1.0  0.29910  0.96550  0.81730  1.0000
  O   O61       1.0  0.85740  0.65550  0.24720  1.0000
  O   O62       1.0  0.64260  0.15550  0.25280  1.0000
  O   O63       1.0  0.14260  0.34450  0.75280  1.0000
  O   O64       1.0  0.35740  0.84450  0.74720  1.0000
  O   O65       1.0  0.74640  0.38260  0.12690  1.0000
  O   O66       1.0  0.75360  0.88260  0.37310  1.0000
  O   O67       1.0  0.25360  0.61740  0.87310  1.0000
  O   O68       1.0  0.24640  0.11740  0.62690  1.0000
  O   O69       1.0  0.81630  0.27940  0.18380  1.0000
  O   O70       1.0  0.68370  0.77940  0.31620  1.0000
  O   O71       1.0  0.18370  0.72060  0.81620  1.0000
  O   O72       1.0  0.31630  0.22060  0.68380  1.0000
  O   O73       1.0  0.79740  0.49640  0.16950  1.0000
  O   O74       1.0  0.70260  0.99640  0.33050  1.0000
  O   O75       1.0  0.20260  0.50360  0.83050  1.0000
  O   O76       1.0  0.29740  0.00360  0.66950  1.0000
  O   O77       1.0  0.86170  0.37640  0.23930  1.0000
  O   O78       1.0  0.63830  0.87640  0.26070  1.0000
  O   O79       1.0  0.13830  0.62360  0.76070  1.0000
  O   O80       1.0  0.36170  0.12360  0.73930  1.0000
  O   O81       1.0  0.31430  0.74470  0.94390  1.0000
  O   O82       1.0  0.18570  0.24470  0.55610  1.0000
  O   O83       1.0  0.68570  0.25530  0.05610  1.0000
  O   O84       1.0  0.81430  0.75530  0.44390  1.0000
  O   O85       1.0  0.32090  0.74080  0.04560  1.0000
  O   O86       1.0  0.17910  0.24080  0.45440  1.0000
  O   O87       1.0  0.67910  0.25920  0.95440  1.0000
  O   O88       1.0  0.82090  0.75920  0.54560  1.0000
  O   O89       1.0  0.19510  0.74050  0.94420  1.0000
  O   O90       1.0  0.30490  0.24050  0.55580  1.0000
  O   O91       1.0  0.80490  0.25950  0.05580  1.0000
  O   O92       1.0  0.69510  0.75950  0.44420  1.0000
  O   O93       1.0  0.19190  0.74640  0.05000  1.0000
  O   O94       1.0  0.30810  0.24640  0.45000  1.0000
  O   O95       1.0  0.80810  0.25360  0.95000  1.0000
  O   O96       1.0  0.69190  0.75360  0.55000  1.0000
  C   C1        1.0  0.17350  0.65490  0.21160  1.0000
  C   C2        1.0  0.32650  0.15490  0.28840  1.0000
  C   C3        1.0  0.82650  0.34510  0.78840  1.0000
  C   C4        1.0  0.67350  0.84510  0.71160  1.0000
  C   C5        1.0  0.21260  0.59270  0.17590  1.0000
  C   C6        1.0  0.28740  0.09270  0.32410  1.0000
  C   C7        1.0  0.78740  0.40730  0.82410  1.0000
  C   C8        1.0  0.71260  0.90730  0.67590  1.0000
  C   C9        1.0  0.16020  0.35200  0.28600  1.0000
  C   C10       1.0  0.33980  0.85200  0.21400  1.0000
  C   C11       1.0  0.83980  0.64800  0.71400  1.0000
  C   C12       1.0  0.66020  0.14800  0.78600  1.0000
  C   C13       1.0  0.19840  0.41380  0.32660  1.0000
  C   C14       1.0  0.30160  0.91380  0.17340  1.0000
  C   C15       1.0  0.80160  0.58620  0.67340  1.0000
  C   C16       1.0  0.69840  0.08620  0.82660  1.0000
  C   C17       1.0  0.00100  0.51400  0.27910  1.0000
  C   C18       1.0  0.49900  0.01400  0.22090  1.0000
  C   C19       1.0  0.99900  0.48600  0.72090  1.0000
  C   C20       1.0  0.50100  0.98600  0.77910  1.0000
  C   C21       1.0  0.99720  0.52030  0.21250  1.0000
  C   C22       1.0  0.50280  0.02030  0.28750  1.0000
  C   C23       1.0  0.00280  0.47970  0.78750  1.0000
  C   C24       1.0  0.49720  0.97970  0.71250  1.0000
  C   C25       1.0  0.78640  0.60110  0.33200  1.0000
  C   C26       1.0  0.71360  0.10110  0.16800  1.0000
  C   C27       1.0  0.21360  0.39890  0.66800  1.0000
  C   C28       1.0  0.28640  0.89890  0.83200  1.0000
  C   C29       1.0  0.82650  0.68000  0.29150  1.0000
  C   C30       1.0  0.67350  0.18000  0.20850  1.0000
  C   C31       1.0  0.17350  0.32000  0.70850  1.0000
  C   C32       1.0  0.32650  0.82000  0.79150  1.0000
  C   C33       1.0  0.79030  0.41730  0.16230  1.0000
  C   C34       1.0  0.70970  0.91730  0.33770  1.0000
  C   C35       1.0  0.20970  0.58270  0.83770  1.0000
  C   C36       1.0  0.29030  0.08270  0.66230  1.0000
  C   C37       1.0  0.82500  0.35580  0.19900  1.0000
  C   C38       1.0  0.67500  0.85580  0.30100  1.0000
  C   C39       1.0  0.17500  0.64420  0.80100  1.0000
  C   C40       1.0  0.32500  0.14420  0.69900  1.0000
  C   C41       1.0  0.28770  0.74210  0.99510  1.0000
  C   C42       1.0  0.21230  0.24210  0.50490  1.0000
  C   C43       1.0  0.71230  0.25790  0.00490  1.0000
  C   C44       1.0  0.78770  0.75790  0.49510  1.0000
  C   C45       1.0  0.22010  0.74130  0.99790  1.0000
  C   C46       1.0  0.27990  0.24130  0.50210  1.0000
  C   C47       1.0  0.77990  0.25870  0.00210  1.0000
  C   C48       1.0  0.72010  0.75870  0.49790  1.0000
