data_image0
_chemical_formula_structural       Cu2C8N12C8N12
_chemical_formula_sum              "Cu2 C16 N24"
_cell_length_a       15.466
_cell_length_b       7.46
_cell_length_c       21.153
_cell_angle_alpha    90
_cell_angle_beta     102.079
_cell_angle_gamma    90

_space_group_name_H-M_alt    "P 1"
_space_group_IT_number       1

loop_
  _space_group_symop_operation_xyz
  'x, y, z'

loop_
  _atom_site_type_symbol
  _atom_site_label
  _atom_site_symmetry_multiplicity
  _atom_site_fract_x
  _atom_site_fract_y
  _atom_site_fract_z
  _atom_site_occupancy
  Cu  Cu1       1.0  1.00000  0.00000  0.00000  1.0000
  Cu  Cu2       1.0  0.50000  0.50000  0.50000  1.0000
  C   C1        1.0  0.88357  0.01400  0.10282  1.0000
  C   C2        1.0  0.61643  0.51400  0.39718  1.0000
  C   C3        1.0  0.11643  0.98600  0.89718  1.0000
  C   C4        1.0  0.38357  0.48600  0.60282  1.0000
  C   C5        1.0  0.76722  0.08380  0.14925  1.0000
  C   C6        1.0  0.73278  0.58380  0.35075  1.0000
  C   C7        1.0  0.23278  0.91620  0.85075  1.0000
  C   C8        1.0  0.26722  0.41620  0.64925  1.0000
  N   N1        1.0  0.92832  0.01780  0.06616  1.0000
  N   N2        1.0  0.57168  0.51780  0.43384  1.0000
  N   N3        1.0  0.07168  0.98220  0.93384  1.0000
  N   N4        1.0  0.42832  0.48220  0.56616  1.0000
  N   N5        1.0  0.70261  0.15020  0.15489  1.0000
  N   N6        1.0  0.79739  0.65020  0.34511  1.0000
  N   N7        1.0  0.29739  0.84980  0.84511  1.0000
  N   N8        1.0  0.20261  0.34980  0.65489  1.0000
  N   N9        1.0  0.84009  0.99430  0.14875  1.0000
  N   N10       1.0  0.65991  0.49430  0.35125  1.0000
  N   N11       1.0  0.15991  0.00570  0.85125  1.0000
  N   N12       1.0  0.34009  0.50570  0.64875  1.0000
  C   C9        1.0  0.12652  0.65040  0.06924  1.0000
  C   C10       1.0  0.37348  0.15040  0.43076  1.0000
  C   C11       1.0  0.87348  0.34960  0.93076  1.0000
  C   C12       1.0  0.62652  0.84960  0.56924  1.0000
  C   C13       1.0  0.10406  0.35160  0.04976  1.0000
  C   C14       1.0  0.39594  0.85160  0.45024  1.0000
  C   C15       1.0  0.89594  0.64840  0.95024  1.0000
  C   C16       1.0  0.60406  0.14840  0.54976  1.0000
  N   N13       1.0  0.06657  0.22069  0.03429  1.0000
  N   N14       1.0  0.43343  0.72069  0.46571  1.0000
  N   N15       1.0  0.93343  0.77931  0.96571  1.0000
  N   N16       1.0  0.56657  0.27931  0.53429  1.0000
  N   N17       1.0  0.10810  0.79910  0.07144  1.0000
  N   N18       1.0  0.39190  0.29910  0.42856  1.0000
  N   N19       1.0  0.89190  0.20090  0.92856  1.0000
  N   N20       1.0  0.60810  0.70090  0.57144  1.0000
  N   N21       1.0  0.15629  0.48600  0.06893  1.0000
  N   N22       1.0  0.34371  0.98600  0.43107  1.0000
  N   N23       1.0  0.84371  0.51400  0.93107  1.0000
  N   N24       1.0  0.65629  0.01400  0.56893  1.0000
