data_image0
_chemical_formula_structural       Cu2C8N12C8N12
_chemical_formula_sum              "Cu2 C16 N24"
_cell_length_a       15.541
_cell_length_b       7.5256
_cell_length_c       21.261
_cell_angle_alpha    90
_cell_angle_beta     101.81
_cell_angle_gamma    90

_space_group_name_H-M_alt    "P 1"
_space_group_IT_number       1

loop_
  _space_group_symop_operation_xyz
  'x, y, z'

loop_
  _atom_site_type_symbol
  _atom_site_label
  _atom_site_symmetry_multiplicity
  _atom_site_fract_x
  _atom_site_fract_y
  _atom_site_fract_z
  _atom_site_occupancy
  Cu  Cu1       1.0  0.00000  0.00000  0.00000  1.0000
  Cu  Cu2       1.0  0.50000  0.50000  0.50000  1.0000
  C   C1        1.0  0.88497  0.01020  0.10255  1.0000
  C   C2        1.0  0.61503  0.51020  0.39745  1.0000
  C   C3        1.0  0.11503  0.98980  0.89745  1.0000
  C   C4        1.0  0.38497  0.48980  0.60255  1.0000
  C   C5        1.0  0.76873  0.07560  0.14843  1.0000
  C   C6        1.0  0.73127  0.57560  0.35157  1.0000
  C   C7        1.0  0.23127  0.92440  0.85157  1.0000
  C   C8        1.0  0.26873  0.42440  0.64843  1.0000
  N   N1        1.0  0.93050  0.01440  0.06698  1.0000
  N   N2        1.0  0.56950  0.51440  0.43302  1.0000
  N   N3        1.0  0.06950  0.98560  0.93302  1.0000
  N   N4        1.0  0.43050  0.48560  0.56698  1.0000
  N   N5        1.0  0.70502  0.13810  0.15473  1.0000
  N   N6        1.0  0.79498  0.63810  0.34527  1.0000
  N   N7        1.0  0.29498  0.86190  0.84527  1.0000
  N   N8        1.0  0.20502  0.36190  0.65473  1.0000
  N   N9        1.0  0.84097  0.99030  0.14769  1.0000
  N   N10       1.0  0.65903  0.49030  0.35231  1.0000
  N   N11       1.0  0.15903  0.00970  0.85231  1.0000
  N   N12       1.0  0.34097  0.50970  0.64769  1.0000
  C   C9        1.0  0.10403  0.34490  0.04938  1.0000
  C   C10       1.0  0.39597  0.84490  0.45062  1.0000
  C   C11       1.0  0.89597  0.65510  0.95062  1.0000
  C   C12       1.0  0.60403  0.15510  0.54938  1.0000
  C   C13       1.0  0.12655  0.64160  0.06727  1.0000
  C   C14       1.0  0.37345  0.14160  0.43273  1.0000
  C   C15       1.0  0.87345  0.35840  0.93273  1.0000
  C   C16       1.0  0.62655  0.85840  0.56727  1.0000
  N   N13       1.0  0.06800  0.21510  0.03485  1.0000
  N   N14       1.0  0.43200  0.71510  0.46515  1.0000
  N   N15       1.0  0.93200  0.78490  0.96515  1.0000
  N   N16       1.0  0.56800  0.28490  0.53485  1.0000
  N   N17       1.0  0.10961  0.78720  0.06907  1.0000
  N   N18       1.0  0.39039  0.28720  0.43093  1.0000
  N   N19       1.0  0.89039  0.21280  0.93093  1.0000
  N   N20       1.0  0.60961  0.71280  0.56907  1.0000
  N   N21       1.0  0.15463  0.47840  0.06749  1.0000
  N   N22       1.0  0.34537  0.97840  0.43251  1.0000
  N   N23       1.0  0.84537  0.52160  0.93251  1.0000
  N   N24       1.0  0.65463  0.02160  0.56749  1.0000
