data_image0
_chemical_formula_structural       Cu2O2H4N18C12
_chemical_formula_sum              "Cu2 O2 H4 N18 C12"
_cell_length_a       7.4094
_cell_length_b       23.526
_cell_length_c       8.9951
_cell_angle_alpha    90
_cell_angle_beta     111.938
_cell_angle_gamma    90

_space_group_name_H-M_alt    "P 1"
_space_group_IT_number       1

loop_
  _space_group_symop_operation_xyz
  'x, y, z'

loop_
  _atom_site_type_symbol
  _atom_site_label
  _atom_site_symmetry_multiplicity
  _atom_site_fract_x
  _atom_site_fract_y
  _atom_site_fract_z
  _atom_site_occupancy
  Cu  Cu1       1.0  0.76161  0.25415  0.78926  1.0000
  Cu  Cu2       1.0  0.23839  0.75415  0.21074  1.0000
  O   O1        1.0  0.96860  0.31003  0.80370  1.0000
  O   O2        1.0  0.03140  0.81003  0.19630  1.0000
  H   H1        1.0  0.05700  0.31310  0.88500  1.0000
  H   H2        1.0  0.94300  0.81310  0.11500  1.0000
  H   H3        1.0  0.00100  0.30670  0.72700  1.0000
  H   H4        1.0  0.99900  0.80670  0.27300  1.0000
  N   N1        1.0  0.87930  0.24148  0.02220  1.0000
  N   N2        1.0  0.12070  0.74148  0.97780  1.0000
  N   N3        1.0  0.06830  0.29946  0.52860  1.0000
  N   N4        1.0  0.93170  0.79946  0.47140  1.0000
  N   N5        1.0  0.02720  0.23272  0.31050  1.0000
  N   N6        1.0  0.97280  0.73272  0.68950  1.0000
  N   N7        1.0  0.62910  0.28663  0.57510  1.0000
  N   N8        1.0  0.37090  0.78663  0.42490  1.0000
  N   N9        1.0  0.23770  0.33828  0.09660  1.0000
  N   N10       1.0  0.76230  0.83828  0.90340  1.0000
  N   N11       1.0  0.52570  0.34380  0.33480  1.0000
  N   N12       1.0  0.47430  0.84380  0.66520  1.0000
  N   N13       1.0  0.52090  0.21316  0.77290  1.0000
  N   N14       1.0  0.47910  0.71316  0.22710  1.0000
  N   N15       1.0  0.91810  0.18296  0.71770  1.0000
  N   N16       1.0  0.08190  0.68296  0.28230  1.0000
  N   N17       1.0  0.22860  0.15670  0.70250  1.0000
  N   N18       1.0  0.77140  0.65670  0.29750  1.0000
  C   C1        1.0  0.94550  0.24061  0.15870  1.0000
  C   C2        1.0  0.05450  0.74061  0.84130  1.0000
  C   C3        1.0  0.04480  0.27110  0.42120  1.0000
  C   C4        1.0  0.95520  0.77110  0.57880  1.0000
  C   C5        1.0  0.57200  0.31184  0.45990  1.0000
  C   C6        1.0  0.42800  0.81184  0.54010  1.0000
  C   C7        1.0  0.36830  0.33798  0.21150  1.0000
  C   C8        1.0  0.63170  0.83798  0.78850  1.0000
  C   C9        1.0  0.37870  0.18970  0.74220  1.0000
  C   C10       1.0  0.62130  0.68970  0.25780  1.0000
  C   C11       1.0  0.06730  0.17318  0.71450  1.0000
  C   C12       1.0  0.93270  0.67318  0.28550  1.0000
