data_image0
_chemical_formula_structural       Tb8Cl24O16H16O56C76H4N8C8H8C8H24C8H24
_chemical_formula_sum              "Tb8 Cl24 O72 H76 C100 N8"
_cell_length_a       10.703
_cell_length_b       16.17
_cell_length_c       22.076
_cell_angle_alpha    90
_cell_angle_beta     92.57
_cell_angle_gamma    90

_space_group_name_H-M_alt    "P 1"
_space_group_IT_number       1

loop_
  _space_group_symop_operation_xyz
  'x, y, z'

loop_
  _atom_site_type_symbol
  _atom_site_label
  _atom_site_symmetry_multiplicity
  _atom_site_fract_x
  _atom_site_fract_y
  _atom_site_fract_z
  _atom_site_occupancy
  Tb  Tb1       1.0  0.72265  0.45461  0.66923  1.0000
  Tb  Tb2       1.0  0.27735  0.45461  0.83077  1.0000
  Tb  Tb3       1.0  0.22265  0.95461  0.66923  1.0000
  Tb  Tb4       1.0  0.77735  0.95461  0.83077  1.0000
  Tb  Tb5       1.0  0.27735  0.54539  0.33077  1.0000
  Tb  Tb6       1.0  0.72265  0.54539  0.16923  1.0000
  Tb  Tb7       1.0  0.77735  0.04539  0.33077  1.0000
  Tb  Tb8       1.0  0.22265  0.04539  0.16923  1.0000
  Cl  Cl1       1.0  0.94958  0.75496  0.64896  1.0000
  Cl  Cl2       1.0  0.05042  0.75496  0.85104  1.0000
  Cl  Cl3       1.0  0.44958  0.25496  0.64896  1.0000
  Cl  Cl4       1.0  0.55042  0.25496  0.85104  1.0000
  Cl  Cl5       1.0  0.05042  0.24504  0.35104  1.0000
  Cl  Cl6       1.0  0.94958  0.24504  0.14896  1.0000
  Cl  Cl7       1.0  0.55042  0.74504  0.35104  1.0000
  Cl  Cl8       1.0  0.44958  0.74504  0.14896  1.0000
  Cl  Cl9       1.0  0.56429  0.69114  0.51275  1.0000
  Cl  Cl10      1.0  0.43571  0.69114  0.98725  1.0000
  Cl  Cl11      1.0  0.06429  0.19114  0.51275  1.0000
  Cl  Cl12      1.0  0.93571  0.19114  0.98725  1.0000
  Cl  Cl13      1.0  0.43571  0.30886  0.48725  1.0000
  Cl  Cl14      1.0  0.56429  0.30886  0.01275  1.0000
  Cl  Cl15      1.0  0.93571  0.80886  0.48725  1.0000
  Cl  Cl16      1.0  0.06429  0.80886  0.01275  1.0000
  Cl  Cl17      1.0  0.56460  0.65616  0.84772  1.0000
  Cl  Cl18      1.0  0.43540  0.65616  0.65228  1.0000
  Cl  Cl19      1.0  0.06460  0.15616  0.84772  1.0000
  Cl  Cl20      1.0  0.93540  0.15616  0.65228  1.0000
  Cl  Cl21      1.0  0.43540  0.34384  0.15228  1.0000
  Cl  Cl22      1.0  0.56460  0.34384  0.34772  1.0000
  Cl  Cl23      1.0  0.93540  0.84384  0.15228  1.0000
  Cl  Cl24      1.0  0.06460  0.84384  0.34772  1.0000
  O   O1        1.0  0.84870  0.86130  0.74980  1.0000
  O   O2        1.0  0.15130  0.86130  0.75020  1.0000
  O   O3        1.0  0.34870  0.36130  0.74980  1.0000
  O   O4        1.0  0.65130  0.36130  0.75020  1.0000
  O   O5        1.0  0.15130  0.13870  0.25020  1.0000
  O   O6        1.0  0.84870  0.13870  0.24980  1.0000
  O   O7        1.0  0.65130  0.63870  0.25020  1.0000
  O   O8        1.0  0.34870  0.63870  0.24980  1.0000
  O   O9        1.0  0.49440  0.45830  0.67550  1.0000
  O   O10       1.0  0.50560  0.45830  0.82450  1.0000
  O   O11       1.0  0.99440  0.95830  0.67550  1.0000
  O   O12       1.0  0.00560  0.95830  0.82450  1.0000
  O   O13       1.0  0.50560  0.54170  0.32450  1.0000
  O   O14       1.0  0.49440  0.54170  0.17550  1.0000
  O   O15       1.0  0.00560  0.04170  0.32450  1.0000
  O   O16       1.0  0.99440  0.04170  0.17550  1.0000
  H   H1        1.0  0.46077  0.46751  0.64033  1.0000
  H   H2        1.0  0.53923  0.46751  0.85967  1.0000
  H   H3        1.0  0.96077  0.96751  0.64033  1.0000
  H   H4        1.0  0.03923  0.96751  0.85967  1.0000
  H   H5        1.0  0.53923  0.53249  0.35967  1.0000
  H   H6        1.0  0.46077  0.53249  0.14033  1.0000
  H   H7        1.0  0.03923  0.03249  0.35967  1.0000
  H   H8        1.0  0.96077  0.03249  0.14033  1.0000
  H   H9        1.0  0.47340  0.50001  0.69653  1.0000
  H   H10       1.0  0.52660  0.50001  0.80347  1.0000
  H   H11       1.0  0.97340  0.00001  0.69653  1.0000
  H   H12       1.0  0.02660  0.00001  0.80347  1.0000
  H   H13       1.0  0.52660  0.49999  0.30347  1.0000
  H   H14       1.0  0.47340  0.49999  0.19653  1.0000
  H   H15       1.0  0.02660  0.99999  0.30347  1.0000
  H   H16       1.0  0.97340  0.99999  0.19653  1.0000
  O   O17       1.0  0.64710  0.55260  0.59320  1.0000
  O   O18       1.0  0.35290  0.55260  0.90680  1.0000
  O   O19       1.0  0.14710  0.05260  0.59320  1.0000
  O   O20       1.0  0.85290  0.05260  0.90680  1.0000
  O   O21       1.0  0.35290  0.44740  0.40680  1.0000
  O   O22       1.0  0.64710  0.44740  0.09320  1.0000
  O   O23       1.0  0.85290  0.94740  0.40680  1.0000
  O   O24       1.0  0.14710  0.94740  0.09320  1.0000
  O   O25       1.0  0.66500  0.55010  0.74840  1.0000
  O   O26       1.0  0.33500  0.55010  0.75160  1.0000
  O   O27       1.0  0.16500  0.05010  0.74840  1.0000
  O   O28       1.0  0.83500  0.05010  0.75160  1.0000
  O   O29       1.0  0.33500  0.44990  0.25160  1.0000
  O   O30       1.0  0.66500  0.44990  0.24840  1.0000
  O   O31       1.0  0.83500  0.94990  0.25160  1.0000
  O   O32       1.0  0.16500  0.94990  0.24840  1.0000
  O   O33       1.0  0.71680  0.81010  0.83950  1.0000
  O   O34       1.0  0.28320  0.81010  0.66050  1.0000
  O   O35       1.0  0.21680  0.31010  0.83950  1.0000
  O   O36       1.0  0.78320  0.31010  0.66050  1.0000
  O   O37       1.0  0.28320  0.18990  0.16050  1.0000
  O   O38       1.0  0.71680  0.18990  0.33950  1.0000
  O   O39       1.0  0.78320  0.68990  0.16050  1.0000
  O   O40       1.0  0.21680  0.68990  0.33950  1.0000
  O   O41       1.0  0.90110  0.43550  0.73330  1.0000
  O   O42       1.0  0.09890  0.43550  0.76670  1.0000
  O   O43       1.0  0.40110  0.93550  0.73330  1.0000
  O   O44       1.0  0.59890  0.93550  0.76670  1.0000
  O   O45       1.0  0.09890  0.56450  0.26670  1.0000
  O   O46       1.0  0.90110  0.56450  0.23330  1.0000
  O   O47       1.0  0.59890  0.06450  0.26670  1.0000
  O   O48       1.0  0.40110  0.06450  0.23330  1.0000
  O   O49       1.0  0.38350  0.60710  0.42160  1.0000
  O   O50       1.0  0.61650  0.60710  0.07840  1.0000
  O   O51       1.0  0.88350  0.10710  0.42160  1.0000
  O   O52       1.0  0.11650  0.10710  0.07840  1.0000
  O   O53       1.0  0.61650  0.39290  0.57840  1.0000
  O   O54       1.0  0.38350  0.39290  0.92160  1.0000
  O   O55       1.0  0.11650  0.89290  0.57840  1.0000
  O   O56       1.0  0.88350  0.89290  0.92160  1.0000
  O   O57       1.0  0.88400  0.44540  0.59700  1.0000
  O   O58       1.0  0.11600  0.44540  0.90300  1.0000
  O   O59       1.0  0.38400  0.94540  0.59700  1.0000
  O   O60       1.0  0.61600  0.94540  0.90300  1.0000
  O   O61       1.0  0.11600  0.55460  0.40300  1.0000
  O   O62       1.0  0.88400  0.55460  0.09700  1.0000
  O   O63       1.0  0.61600  0.05460  0.40300  1.0000
  O   O64       1.0  0.38400  0.05460  0.09700  1.0000
  O   O65       1.0  0.83450  0.58910  0.67210  1.0000
  O   O66       1.0  0.16550  0.58910  0.82790  1.0000
  O   O67       1.0  0.33450  0.08910  0.67210  1.0000
  O   O68       1.0  0.66550  0.08910  0.82790  1.0000
  O   O69       1.0  0.16550  0.41090  0.32790  1.0000
  O   O70       1.0  0.83450  0.41090  0.17210  1.0000
  O   O71       1.0  0.66550  0.91090  0.32790  1.0000
  O   O72       1.0  0.33450  0.91090  0.17210  1.0000
  C   C1        1.0  0.73240  0.75880  0.79850  1.0000
  C   C2        1.0  0.26760  0.75880  0.70150  1.0000
  C   C3        1.0  0.23240  0.25880  0.79850  1.0000
  C   C4        1.0  0.76760  0.25880  0.70150  1.0000
  C   C5        1.0  0.26760  0.24120  0.20150  1.0000
  C   C6        1.0  0.73240  0.24120  0.29850  1.0000
  C   C7        1.0  0.76760  0.74120  0.20150  1.0000
  C   C8        1.0  0.23240  0.74120  0.29850  1.0000
  C   C9        1.0  0.52760  0.58710  0.50490  1.0000
  C   C10       1.0  0.47240  0.58710  0.99510  1.0000
  C   C11       1.0  0.02760  0.08710  0.50490  1.0000
  C   C12       1.0  0.97240  0.08710  0.99510  1.0000
  C   C13       1.0  0.47240  0.41290  0.49510  1.0000
  C   C14       1.0  0.52760  0.41290  0.00490  1.0000
  C   C15       1.0  0.97240  0.91290  0.49510  1.0000
  C   C16       1.0  0.02760  0.91290  0.00490  1.0000
  C   C17       1.0  0.81640  0.78490  0.74800  1.0000
  C   C18       1.0  0.18360  0.78490  0.75200  1.0000
  C   C19       1.0  0.31640  0.28490  0.74800  1.0000
  C   C20       1.0  0.68360  0.28490  0.75200  1.0000
  C   C21       1.0  0.18360  0.21510  0.25200  1.0000
  C   C22       1.0  0.81640  0.21510  0.24800  1.0000
  C   C23       1.0  0.68360  0.71510  0.25200  1.0000
  C   C24       1.0  0.31640  0.71510  0.24800  1.0000
  C   C25       1.0  0.80380  0.64570  0.70650  1.0000
  C   C26       1.0  0.19620  0.64570  0.79350  1.0000
  C   C27       1.0  0.30380  0.14570  0.70650  1.0000
  C   C28       1.0  0.69620  0.14570  0.79350  1.0000
  C   C29       1.0  0.19620  0.35430  0.29350  1.0000
  C   C30       1.0  0.80380  0.35430  0.20650  1.0000
  C   C31       1.0  0.69620  0.85430  0.29350  1.0000
  C   C32       1.0  0.30380  0.85430  0.20650  1.0000
  C   C33       1.0  0.67550  0.68060  0.79570  1.0000
  C   C34       1.0  0.32450  0.68060  0.70430  1.0000
  C   C35       1.0  0.17550  0.18060  0.79570  1.0000
  C   C36       1.0  0.82450  0.18060  0.70430  1.0000
  C   C37       1.0  0.32450  0.31940  0.20430  1.0000
  C   C38       1.0  0.67550  0.31940  0.29570  1.0000
  C   C39       1.0  0.82450  0.81940  0.20430  1.0000
  C   C40       1.0  0.17550  0.81940  0.29570  1.0000
  C   C41       1.0  0.70780  0.62180  0.75320  1.0000
  C   C42       1.0  0.29220  0.62180  0.74680  1.0000
  C   C43       1.0  0.20780  0.12180  0.75320  1.0000
  C   C44       1.0  0.79220  0.12180  0.74680  1.0000
  C   C45       1.0  0.29220  0.37820  0.24680  1.0000
  C   C46       1.0  0.70780  0.37820  0.25320  1.0000
  C   C47       1.0  0.79220  0.87820  0.24680  1.0000
  C   C48       1.0  0.20780  0.87820  0.25320  1.0000
  C   C49       1.0  0.85030  0.72790  0.70590  1.0000
  C   C50       1.0  0.14970  0.72790  0.79410  1.0000
  C   C51       1.0  0.35030  0.22790  0.70590  1.0000
  C   C52       1.0  0.64970  0.22790  0.79410  1.0000
  C   C53       1.0  0.14970  0.27210  0.29410  1.0000
  C   C54       1.0  0.85030  0.27210  0.20590  1.0000
  C   C55       1.0  0.64970  0.77210  0.29410  1.0000
  C   C56       1.0  0.35030  0.77210  0.20590  1.0000
  C   C57       1.0  0.44440  0.56130  0.45890  1.0000
  C   C58       1.0  0.55560  0.56130  0.04110  1.0000
  C   C59       1.0  0.94440  0.06130  0.45890  1.0000
  C   C60       1.0  0.05560  0.06130  0.04110  1.0000
  C   C61       1.0  0.55560  0.43870  0.54110  1.0000
  C   C62       1.0  0.44440  0.43870  0.95890  1.0000
  C   C63       1.0  0.05560  0.93870  0.54110  1.0000
  C   C64       1.0  0.94440  0.93870  0.95890  1.0000
  C   C65       1.0  0.57990  0.53170  0.54780  1.0000
  C   C66       1.0  0.42010  0.53170  0.95220  1.0000
  C   C67       1.0  0.07990  0.03170  0.54780  1.0000
  C   C68       1.0  0.92010  0.03170  0.95220  1.0000
  C   C69       1.0  0.42010  0.46830  0.45220  1.0000
  C   C70       1.0  0.57990  0.46830  0.04780  1.0000
  C   C71       1.0  0.92010  0.96830  0.45220  1.0000
  C   C72       1.0  0.07990  0.96830  0.04780  1.0000
  C   C73       1.0  0.00000  0.46390  0.75000  1.0000
  C   C74       1.0  0.50000  0.96390  0.75000  1.0000
  C   C75       1.0  0.00000  0.53610  0.25000  1.0000
  C   C76       1.0  0.50000  0.03610  0.25000  1.0000
  H   H17       1.0  0.00000  0.52144  0.75000  1.0000
  H   H18       1.0  0.50000  0.02144  0.75000  1.0000
  H   H19       1.0  0.00000  0.47856  0.25000  1.0000
  H   H20       1.0  0.50000  0.97856  0.25000  1.0000
  N   N1        1.0  0.09320  0.42860  0.59610  1.0000
  N   N2        1.0  0.90680  0.42860  0.90390  1.0000
  N   N3        1.0  0.59320  0.92860  0.59610  1.0000
  N   N4        1.0  0.40680  0.92860  0.90390  1.0000
  N   N5        1.0  0.90680  0.57140  0.40390  1.0000
  N   N6        1.0  0.09320  0.57140  0.09610  1.0000
  N   N7        1.0  0.40680  0.07140  0.40390  1.0000
  N   N8        1.0  0.59320  0.07140  0.09610  1.0000
  C   C77       1.0  0.98590  0.40780  0.60490  1.0000
  C   C78       1.0  0.01410  0.40780  0.89510  1.0000
  C   C79       1.0  0.48590  0.90780  0.60490  1.0000
  C   C80       1.0  0.51410  0.90780  0.89510  1.0000
  C   C81       1.0  0.01410  0.59220  0.39510  1.0000
  C   C82       1.0  0.98590  0.59220  0.10490  1.0000
  C   C83       1.0  0.51410  0.09220  0.39510  1.0000
  C   C84       1.0  0.48590  0.09220  0.10490  1.0000
  H   H21       1.0  0.97840  0.35463  0.62033  1.0000
  H   H22       1.0  0.02160  0.35463  0.87967  1.0000
  H   H23       1.0  0.47840  0.85463  0.62033  1.0000
  H   H24       1.0  0.52160  0.85463  0.87967  1.0000
  H   H25       1.0  0.02160  0.64537  0.37967  1.0000
  H   H26       1.0  0.97840  0.64537  0.12033  1.0000
  H   H27       1.0  0.52160  0.14537  0.37967  1.0000
  H   H28       1.0  0.47840  0.14537  0.12033  1.0000
  C   C85       1.0  0.19100  0.36440  0.60460  1.0000
  C   C86       1.0  0.80900  0.36440  0.89540  1.0000
  C   C87       1.0  0.69100  0.86440  0.60460  1.0000
  C   C88       1.0  0.30900  0.86440  0.89540  1.0000
  C   C89       1.0  0.80900  0.63560  0.39540  1.0000
  C   C90       1.0  0.19100  0.63560  0.10460  1.0000
  C   C91       1.0  0.30900  0.13560  0.39540  1.0000
  C   C92       1.0  0.69100  0.13560  0.10460  1.0000
  H   H29       1.0  0.15166  0.31180  0.61075  1.0000
  H   H30       1.0  0.84834  0.31180  0.88925  1.0000
  H   H31       1.0  0.65166  0.81180  0.61075  1.0000
  H   H32       1.0  0.34834  0.81180  0.88925  1.0000
  H   H33       1.0  0.84834  0.68820  0.38925  1.0000
  H   H34       1.0  0.15166  0.68820  0.11075  1.0000
  H   H35       1.0  0.34834  0.18820  0.38925  1.0000
  H   H36       1.0  0.65166  0.18820  0.11075  1.0000
  H   H37       1.0  0.24384  0.37787  0.63936  1.0000
  H   H38       1.0  0.75616  0.37787  0.86064  1.0000
  H   H39       1.0  0.74384  0.87787  0.63936  1.0000
  H   H40       1.0  0.25616  0.87787  0.86064  1.0000
  H   H41       1.0  0.75616  0.62213  0.36064  1.0000
  H   H42       1.0  0.24384  0.62213  0.13936  1.0000
  H   H43       1.0  0.25616  0.12213  0.36064  1.0000
  H   H44       1.0  0.74384  0.12213  0.13936  1.0000
  H   H45       1.0  0.23949  0.36194  0.56925  1.0000
  H   H46       1.0  0.76051  0.36194  0.93075  1.0000
  H   H47       1.0  0.73949  0.86194  0.56925  1.0000
  H   H48       1.0  0.26051  0.86194  0.93075  1.0000
  H   H49       1.0  0.76051  0.63806  0.43075  1.0000
  H   H50       1.0  0.23949  0.63806  0.06925  1.0000
  H   H51       1.0  0.26051  0.13806  0.43075  1.0000
  H   H52       1.0  0.73949  0.13806  0.06925  1.0000
  C   C93       1.0  0.16700  0.50500  0.59700  1.0000
  C   C94       1.0  0.83300  0.50500  0.90300  1.0000
  C   C95       1.0  0.66700  0.00500  0.59700  1.0000
  C   C96       1.0  0.33300  0.00500  0.90300  1.0000
  C   C97       1.0  0.83300  0.49500  0.40300  1.0000
  C   C98       1.0  0.16700  0.49500  0.09700  1.0000
  C   C99       1.0  0.33300  0.99500  0.40300  1.0000
  C   C100      1.0  0.66700  0.99500  0.09700  1.0000
  H   H53       1.0  0.18575  0.51989  0.55638  1.0000
  H   H54       1.0  0.81425  0.51989  0.94362  1.0000
  H   H55       1.0  0.68575  0.01989  0.55638  1.0000
  H   H56       1.0  0.31425  0.01989  0.94362  1.0000
  H   H57       1.0  0.81425  0.48011  0.44362  1.0000
  H   H58       1.0  0.18575  0.48011  0.05638  1.0000
  H   H59       1.0  0.31425  0.98011  0.44362  1.0000
  H   H60       1.0  0.68575  0.98011  0.05638  1.0000
  H   H61       1.0  0.24292  0.49686  0.62080  1.0000
  H   H62       1.0  0.75708  0.49686  0.87920  1.0000
  H   H63       1.0  0.74292  0.99686  0.62080  1.0000
  H   H64       1.0  0.25708  0.99686  0.87920  1.0000
  H   H65       1.0  0.75708  0.50314  0.37920  1.0000
  H   H66       1.0  0.24292  0.50314  0.12080  1.0000
  H   H67       1.0  0.25708  0.00314  0.37920  1.0000
  H   H68       1.0  0.74292  0.00314  0.12080  1.0000
  H   H69       1.0  0.11923  0.54870  0.61460  1.0000
  H   H70       1.0  0.88077  0.54870  0.88540  1.0000
  H   H71       1.0  0.61923  0.04870  0.61460  1.0000
  H   H72       1.0  0.38077  0.04870  0.88540  1.0000
  H   H73       1.0  0.88077  0.45130  0.38540  1.0000
  H   H74       1.0  0.11923  0.45130  0.11460  1.0000
  H   H75       1.0  0.38077  0.95130  0.38540  1.0000
  H   H76       1.0  0.61923  0.95130  0.11460  1.0000
