data_image0
_chemical_formula_structural       Mn4O2C2O6C4O8C4O8C4O4
_chemical_formula_sum              "Mn4 O28 C14"
_cell_length_a       9.5442
_cell_length_b       10.3758
_cell_length_c       21.851
_cell_angle_alpha    83.72
_cell_angle_beta     80.106
_cell_angle_gamma    85.457

_space_group_name_H-M_alt    "P 1"
_space_group_IT_number       1

loop_
  _space_group_symop_operation_xyz
  'x, y, z'

loop_
  _atom_site_type_symbol
  _atom_site_label
  _atom_site_symmetry_multiplicity
  _atom_site_fract_x
  _atom_site_fract_y
  _atom_site_fract_z
  _atom_site_occupancy
  Mn  Mn1       1.0  0.39997  0.50219  0.12938  1.0000
  Mn  Mn2       1.0  0.60003  0.49781  0.87062  1.0000
  Mn  Mn3       1.0  0.29660  0.98554  0.23081  1.0000
  Mn  Mn4       1.0  0.70340  0.01446  0.76919  1.0000
  O   O1        1.0  0.35360  0.58650  0.03813  1.0000
  O   O2        1.0  0.64640  0.41350  0.96187  1.0000
  C   C1        1.0  0.43520  0.54570  0.99330  1.0000
  C   C2        1.0  0.56480  0.45430  0.00670  1.0000
  O   O3        1.0  0.42370  0.57300  0.93682  1.0000
  O   O4        1.0  0.57630  0.42700  0.06318  1.0000
  O   O5        1.0  0.23640  0.62490  0.17723  1.0000
  O   O6        1.0  0.76360  0.37510  0.82277  1.0000
  O   O7        1.0  0.18960  0.82660  0.20382  1.0000
  O   O8        1.0  0.81040  0.17340  0.79618  1.0000
  C   C3        1.0  0.27220  0.73460  0.18450  1.0000
  C   C4        1.0  0.72780  0.26540  0.81550  1.0000
  C   C5        1.0  0.43160  0.75960  0.16810  1.0000
  C   C6        1.0  0.56840  0.24040  0.83190  1.0000
  O   O9        1.0  0.51230  0.67040  0.14448  1.0000
  O   O10       1.0  0.48770  0.32960  0.85552  1.0000
  O   O11       1.0  0.46730  0.86680  0.17829  1.0000
  O   O12       1.0  0.53270  0.13320  0.82171  1.0000
  O   O13       1.0  0.45590  0.35660  0.20193  1.0000
  O   O14       1.0  0.54410  0.64340  0.79807  1.0000
  O   O15       1.0  0.41860  0.15140  0.24100  1.0000
  O   O16       1.0  0.58140  0.84860  0.75900  1.0000
  C   C7        1.0  0.39690  0.25130  0.20530  1.0000
  C   C8        1.0  0.60310  0.74870  0.79470  1.0000
  C   C9        1.0  0.28880  0.24320  0.16170  1.0000
  C   C10       1.0  0.71120  0.75680  0.83830  1.0000
  O   O17       1.0  0.26230  0.34440  0.12842  1.0000
  O   O18       1.0  0.73770  0.65560  0.87158  1.0000
  O   O19       1.0  0.23490  0.13610  0.16329  1.0000
  O   O20       1.0  0.76510  0.86390  0.83671  1.0000
  O   O21       1.0  0.10230  0.00550  0.29913  1.0000
  O   O22       1.0  0.89770  0.99450  0.70087  1.0000
  O   O23       1.0  0.99610  0.88810  0.38398  1.0000
  O   O24       1.0  0.00390  0.11190  0.61602  1.0000
  C   C11       1.0  0.10340  0.92550  0.34690  1.0000
  C   C12       1.0  0.89660  0.07450  0.65310  1.0000
  C   C13       1.0  0.24980  0.86580  0.35860  1.0000
  C   C14       1.0  0.75020  0.13420  0.64140  1.0000
  O   O25       1.0  0.35220  0.88430  0.31514  1.0000
  O   O26       1.0  0.64780  0.11570  0.68486  1.0000
  O   O27       1.0  0.25630  0.80290  0.40974  1.0000
  O   O28       1.0  0.74370  0.19710  0.59026  1.0000
