data_image0
_chemical_formula_structural       Zn18O48N32H4C2N2H4C24O2H4C4H2C8H2C10H2C4H2C2H2C10H2C4H2C2H2C10H2C2H2C4H2C2H2C2H2C2H2C2H2C8H2C4H2C16H2C2H2C6H2C2H2C2H2C4H2C4H2C2H2C2H2N2C2H2C2H2C2H2C4H2C2H2C2H2C2H2C2H2C2H2C2H2C2H2N2C4H2C4H2C2H2C2H2C4H2C4H2C2H2C2H2C2H2C4H2C2H2C2H2N2C2H2C4H2C12H2C4H2C2H2C2H2C2H2C2H2C2H2C6H2C4H2C2H2C4H2C4H2C2H2C4H2C2H2C2H2C2N2C2H2N2C6H2C4H2C10H2C2H2C4H2C6H2C2H2C2O4C2H2O2H4
_chemical_formula_sum              "Zn18 O56 N44 H168 C308"
_cell_length_a       25.4598
_cell_length_b       26.2974
_cell_length_c       31.8554
_cell_angle_alpha    90.284
_cell_angle_beta     92.982
_cell_angle_gamma    98.728

_space_group_name_H-M_alt    "P 1"
_space_group_IT_number       1

loop_
  _space_group_symop_operation_xyz
  'x, y, z'

loop_
  _atom_site_type_symbol
  _atom_site_label
  _atom_site_symmetry_multiplicity
  _atom_site_fract_x
  _atom_site_fract_y
  _atom_site_fract_z
  _atom_site_occupancy
  Zn  Zn1       1.0  0.89506  0.13181  0.82260  1.0000
  Zn  Zn2       1.0  0.10494  0.86819  0.17740  1.0000
  Zn  Zn3       1.0  0.71246  0.78518  0.48409  1.0000
  Zn  Zn4       1.0  0.28754  0.21482  0.51591  1.0000
  Zn  Zn5       1.0  0.95762  0.55271  0.94627  1.0000
  Zn  Zn6       1.0  0.04238  0.44729  0.05373  1.0000
  Zn  Zn7       1.0  0.02198  0.99485  0.04408  1.0000
  Zn  Zn8       1.0  0.97802  0.00515  0.95592  1.0000
  Zn  Zn9       1.0  0.38529  0.62114  0.82060  1.0000
  Zn  Zn10      1.0  0.61471  0.37886  0.17940  1.0000
  Zn  Zn11      1.0  0.50610  0.48094  0.04341  1.0000
  Zn  Zn12      1.0  0.49390  0.51906  0.95659  1.0000
  Zn  Zn13      1.0  0.43374  0.07052  0.87563  1.0000
  Zn  Zn14      1.0  0.56626  0.92948  0.12437  1.0000
  Zn  Zn15      1.0  0.44101  0.57470  0.73671  1.0000
  Zn  Zn16      1.0  0.55899  0.42530  0.26329  1.0000
  Zn  Zn17      1.0  0.93744  0.07585  0.73729  1.0000
  Zn  Zn18      1.0  0.06256  0.92415  0.26271  1.0000
  O   O1        1.0  0.00569  0.92088  0.02231  1.0000
  O   O2        1.0  0.99431  0.07912  0.97769  1.0000
  O   O3        1.0  0.48449  0.44092  0.94579  1.0000
  O   O4        1.0  0.51551  0.55908  0.05421  1.0000
  O   O5        1.0  0.58455  0.49031  0.02932  1.0000
  O   O6        1.0  0.41545  0.50969  0.97068  1.0000
  O   O7        1.0  0.05788  0.00878  0.94908  1.0000
  O   O8        1.0  0.94212  0.99122  0.05092  1.0000
  O   O9        1.0  0.40642  0.69530  0.82847  1.0000
  O   O10       1.0  0.59358  0.30470  0.17153  1.0000
  O   O11       1.0  0.38612  0.60913  0.75919  1.0000
  O   O12       1.0  0.61388  0.39087  0.24081  1.0000
  O   O13       1.0  0.92472  0.20288  0.83784  1.0000
  O   O14       1.0  0.07528  0.79712  0.16216  1.0000
  O   O15       1.0  0.09235  0.00415  0.01484  1.0000
  O   O16       1.0  0.90765  0.99585  0.98516  1.0000
  O   O17       1.0  0.57314  0.51807  0.96329  1.0000
  O   O18       1.0  0.42686  0.48193  0.03671  1.0000
  O   O19       1.0  0.90290  0.12868  0.76076  1.0000
  O   O20       1.0  0.09710  0.87132  0.23924  1.0000
  O   O21       1.0  0.97441  0.92649  0.95652  1.0000
  O   O22       1.0  0.02559  0.07351  0.04348  1.0000
  O   O23       1.0  0.49370  0.41431  0.01083  1.0000
  O   O24       1.0  0.50630  0.58569  0.98917  1.0000
  O   O25       1.0  0.90253  0.17399  0.90158  1.0000
  O   O26       1.0  0.09747  0.82601  0.09842  1.0000
  O   O27       1.0  0.81898  0.11447  0.83062  1.0000
  O   O28       1.0  0.18102  0.88553  0.16938  1.0000
  O   O29       1.0  0.59874  0.48402  0.29299  1.0000
  O   O30       1.0  0.40126  0.51598  0.70701  1.0000
  O   O31       1.0  0.36980  0.71218  0.76598  1.0000
  O   O32       1.0  0.63020  0.28782  0.23402  1.0000
  O   O33       1.0  0.49550  0.61670  0.70697  1.0000
  O   O34       1.0  0.50450  0.38330  0.29303  1.0000
  O   O35       1.0  0.00311  0.88470  0.29123  1.0000
  O   O36       1.0  0.99689  0.11530  0.70877  1.0000
  O   O37       1.0  0.89540  0.02410  0.70280  1.0000
  O   O38       1.0  0.10460  0.97590  0.29720  1.0000
  O   O39       1.0  0.79558  0.14320  0.76930  1.0000
  O   O40       1.0  0.20442  0.85680  0.23070  1.0000
  O   O41       1.0  0.86190  0.08490  0.66640  1.0000
  O   O42       1.0  0.13810  0.91510  0.33360  1.0000
  O   O43       1.0  0.42780  0.64160  0.66924  1.0000
  O   O44       1.0  0.57220  0.35840  0.33076  1.0000
  O   O45       1.0  0.97540  0.95790  0.29480  1.0000
  O   O46       1.0  0.02460  0.04210  0.70520  1.0000
  O   O47       1.0  0.52160  0.50650  0.30230  1.0000
  O   O48       1.0  0.47840  0.49350  0.69770  1.0000
  N   N1        1.0  0.90901  0.59960  0.97132  1.0000
  N   N2        1.0  0.09099  0.40040  0.02868  1.0000
  N   N3        1.0  0.38799  0.11433  0.90828  1.0000
  N   N4        1.0  0.61201  0.88567  0.09172  1.0000
  N   N5        1.0  0.01916  0.61368  0.95027  1.0000
  N   N6        1.0  0.98084  0.38632  0.04973  1.0000
  N   N7        1.0  0.49508  0.13055  0.87968  1.0000
  N   N8        1.0  0.50492  0.86945  0.12032  1.0000
  N   N9        1.0  0.37687  0.00765  0.88060  1.0000
  N   N10       1.0  0.62313  0.99235  0.11940  1.0000
  N   N11       1.0  0.93167  0.07608  0.84724  1.0000
  N   N12       1.0  0.06833  0.92392  0.15276  1.0000
  N   N13       1.0  0.48393  0.02394  0.85417  1.0000
  N   N14       1.0  0.51607  0.97606  0.14583  1.0000
  N   N15       1.0  0.90107  0.48897  0.95633  1.0000
  N   N16       1.0  0.09893  0.51103  0.04367  1.0000
  N   N17       1.0  0.01202  0.50400  0.93718  1.0000
  N   N18       1.0  0.98798  0.49600  0.06282  1.0000
  N   N19       1.0  0.95655  0.02172  0.89655  1.0000
  N   N20       1.0  0.04345  0.97828  0.10345  1.0000
  N   N21       1.0  0.43877  0.58043  0.84704  1.0000
  N   N22       1.0  0.56123  0.41957  0.15296  1.0000
  N   N23       1.0  0.48490  0.54513  0.89798  1.0000
  N   N24       1.0  0.51510  0.45487  0.10202  1.0000
  N   N25       1.0  0.48701  0.55680  0.78702  1.0000
  N   N26       1.0  0.51299  0.44320  0.21298  1.0000
  N   N27       1.0  0.56100  0.51320  0.80797  1.0000
  N   N28       1.0  0.43900  0.48680  0.19203  1.0000
  N   N29       1.0  0.95390  0.02835  0.78585  1.0000
  N   N30       1.0  0.04610  0.97165  0.21415  1.0000
  N   N31       1.0  0.58140  0.49340  0.87646  1.0000
  N   N32       1.0  0.41860  0.50660  0.12354  1.0000
  H   H1        1.0  0.60700  0.47810  0.86890  1.0000
  H   H2        1.0  0.39300  0.52190  0.13110  1.0000
  H   H3        1.0  0.57470  0.49490  0.90260  1.0000
  H   H4        1.0  0.42530  0.50510  0.09740  1.0000
  C   C1        1.0  0.98580  0.95930  0.84350  1.0000
  C   C2        1.0  0.01420  0.04070  0.15650  1.0000
  N   N33       1.0  0.99950  0.92470  0.87000  1.0000
  N   N34       1.0  0.00050  0.07530  0.13000  1.0000
  H   H5        1.0  0.01070  0.89770  0.86070  1.0000
  H   H6        1.0  0.98930  0.10230  0.13930  1.0000
  H   H7        1.0  0.99730  0.92910  0.89660  1.0000
  H   H8        1.0  0.00270  0.07090  0.10340  1.0000
  C   C3        1.0  0.14854  0.57589  0.91620  1.0000
  C   C4        1.0  0.85146  0.42411  0.08380  1.0000
  C   C5        1.0  0.01361  0.66342  0.95509  1.0000
  C   C6        1.0  0.98639  0.33658  0.04491  1.0000
  C   C7        1.0  0.25359  0.03983  0.92983  1.0000
  C   C8        1.0  0.74641  0.96017  0.07017  1.0000
  C   C9        1.0  0.97098  0.73897  0.97382  1.0000
  C   C10       1.0  0.02902  0.26103  0.02618  1.0000
  C   C11       1.0  0.32674  0.00685  0.89636  1.0000
  C   C12       1.0  0.67326  0.99315  0.10364  1.0000
  C   C13       1.0  0.85672  0.58515  0.98020  1.0000
  C   C14       1.0  0.14328  0.41485  0.01980  1.0000
  C   C15       1.0  0.33638  0.09860  0.91883  1.0000
  C   C16       1.0  0.66362  0.90140  0.08117  1.0000
  C   C17       1.0  0.40002  0.16442  0.91761  1.0000
  C   C18       1.0  0.59998  0.83558  0.08239  1.0000
  C   C19       1.0  0.06557  0.51736  0.93315  1.0000
  C   C20       1.0  0.93443  0.48264  0.06685  1.0000
  C   C21       1.0  0.90374  0.44057  0.94516  1.0000
  C   C22       1.0  0.09626  0.55943  0.05484  1.0000
  C   C23       1.0  0.49380  0.17942  0.89415  1.0000
  C   C24       1.0  0.50620  0.82058  0.10585  1.0000
  C   C25       1.0  0.94678  0.36668  0.92274  1.0000
  C   C26       1.0  0.05322  0.63332  0.07726  1.0000
  O   O49       1.0  0.40240  0.09240  0.80929  1.0000
  O   O50       1.0  0.59760  0.90760  0.19071  1.0000
  H   H9        1.0  0.37560  0.10720  0.80320  1.0000
  H   H10       1.0  0.62440  0.89280  0.19680  1.0000
  H   H11       1.0  0.41500  0.08720  0.78570  1.0000
  H   H12       1.0  0.58500  0.91280  0.21430  1.0000
  C   C27       1.0  0.92089  0.65101  0.97833  1.0000
  C   C28       1.0  0.07911  0.34899  0.02167  1.0000
  C   C29       1.0  0.35514  0.18295  0.93430  1.0000
  C   C30       1.0  0.64486  0.81705  0.06570  1.0000
  H   H13       1.0  0.35340  0.21640  0.94310  1.0000
  H   H14       1.0  0.64660  0.78360  0.05690  1.0000
  C   C31       1.0  0.00177  0.45169  0.93502  1.0000
  C   C32       1.0  0.99823  0.54831  0.06498  1.0000
  C   C33       1.0  0.77020  0.52956  0.98287  1.0000
  C   C34       1.0  0.22980  0.47044  0.01713  1.0000
  C   C35       1.0  0.98055  0.84576  0.98257  1.0000
  C   C36       1.0  0.01945  0.15424  0.01743  1.0000
  C   C37       1.0  0.32966  0.92584  0.87540  1.0000
  C   C38       1.0  0.67034  0.07416  0.12460  1.0000
  H   H15       1.0  0.32170  0.89060  0.87010  1.0000
  H   H16       1.0  0.67830  0.10940  0.12990  1.0000
  C   C39       1.0  0.37847  0.95861  0.86632  1.0000
  C   C40       1.0  0.62153  0.04139  0.13368  1.0000
  C   C41       1.0  0.53630  0.03819  0.84475  1.0000
  C   C42       1.0  0.46370  0.96181  0.15525  1.0000
  C   C43       1.0  0.62115  0.09645  0.83627  1.0000
  C   C44       1.0  0.37885  0.90355  0.16373  1.0000
  C   C45       1.0  0.45612  0.25054  0.92815  1.0000
  C   C46       1.0  0.54388  0.74946  0.07185  1.0000
  C   C47       1.0  0.81789  0.44122  0.95604  1.0000
  C   C48       1.0  0.18211  0.55878  0.04396  1.0000
  H   H17       1.0  0.78150  0.43220  0.95890  1.0000
  H   H18       1.0  0.21850  0.56780  0.04110  1.0000
  C   C49       1.0  0.41600  0.88630  0.83651  1.0000
  C   C50       1.0  0.58400  0.11370  0.16349  1.0000
  C   C51       1.0  0.29807  0.95523  0.89280  1.0000
  C   C52       1.0  0.70193  0.04477  0.10720  1.0000
  H   H19       1.0  0.26370  0.94440  0.90100  1.0000
  H   H20       1.0  0.73630  0.05560  0.09900  1.0000
  C   C53       1.0  0.54419  0.21069  0.89057  1.0000
  C   C54       1.0  0.45581  0.78931  0.10943  1.0000
  H   H21       1.0  0.55300  0.24520  0.89820  1.0000
  H   H22       1.0  0.44700  0.75480  0.10180  1.0000
  C   C55       1.0  0.47785  0.55791  0.82904  1.0000
  C   C56       1.0  0.52215  0.44209  0.17096  1.0000
  C   C57       1.0  0.07054  0.61299  0.93836  1.0000
  C   C58       1.0  0.92946  0.38701  0.06164  1.0000
  C   C59       1.0  0.84922  0.49173  0.96429  1.0000
  C   C60       1.0  0.15078  0.50827  0.03571  1.0000
  C   C61       1.0  0.47451  0.35172  0.95652  1.0000
  C   C62       1.0  0.52549  0.64828  0.04348  1.0000
  C   C63       1.0  0.44522  0.57179  0.88711  1.0000
  C   C64       1.0  0.55478  0.42821  0.11289  1.0000
  H   H23       1.0  0.42390  0.58330  0.90680  1.0000
  H   H24       1.0  0.57610  0.41670  0.09320  1.0000
  C   C65       1.0  0.30811  0.04880  0.91394  1.0000
  C   C66       1.0  0.69189  0.95120  0.08606  1.0000
  C   C67       1.0  0.09092  0.47256  0.93121  1.0000
  C   C68       1.0  0.90908  0.52744  0.06879  1.0000
  H   H25       1.0  0.12720  0.47160  0.93040  1.0000
  H   H26       1.0  0.87280  0.52840  0.06960  1.0000
  C   C69       1.0  0.09601  0.66590  0.93444  1.0000
  C   C70       1.0  0.90399  0.33410  0.06556  1.0000
  H   H27       1.0  0.13040  0.67620  0.92610  1.0000
  H   H28       1.0  0.86960  0.32380  0.07390  1.0000
  C   C71       1.0  0.25176  0.59246  0.88869  1.0000
  C   C72       1.0  0.74824  0.40754  0.11131  1.0000
  C   C73       1.0  0.47146  0.97260  0.84386  1.0000
  C   C74       1.0  0.52854  0.02740  0.15614  1.0000
  C   C75       1.0  0.09518  0.01063  0.97552  1.0000
  C   C76       1.0  0.90482  0.98937  0.02448  1.0000
  C   C77       1.0  0.54491  0.13022  0.86686  1.0000
  C   C78       1.0  0.45509  0.86978  0.13314  1.0000
  C   C79       1.0  0.85128  0.41020  0.94354  1.0000
  C   C80       1.0  0.14872  0.58980  0.05646  1.0000
  H   H29       1.0  0.84250  0.37580  0.93540  1.0000
  H   H30       1.0  0.15750  0.62420  0.06460  1.0000
  C   C81       1.0  0.31537  0.14159  0.93479  1.0000
  C   C82       1.0  0.68463  0.85841  0.06521  1.0000
  H   H31       1.0  0.28120  0.14160  0.94380  1.0000
  H   H32       1.0  0.71880  0.85840  0.05620  1.0000
  C   C83       1.0  0.82875  0.53578  0.97612  1.0000
  C   C84       1.0  0.17125  0.46422  0.02388  1.0000
  C   C85       1.0  0.55623  0.99470  0.82657  1.0000
  C   C86       1.0  0.44377  0.00530  0.17343  1.0000
  H   H33       1.0  0.59010  0.99460  0.81700  1.0000
  H   H34       1.0  0.40990  0.00540  0.18300  1.0000
  C   C87       1.0  0.69382  0.49606  0.02096  1.0000
  C   C88       1.0  0.30618  0.50394  0.97904  1.0000
  H   H35       1.0  0.67930  0.47800  0.04370  1.0000
  H   H36       1.0  0.32070  0.52200  0.95630  1.0000
  C   C89       1.0  0.93708  0.06498  0.88764  1.0000
  C   C90       1.0  0.06292  0.93502  0.11236  1.0000
  H   H37       1.0  0.92780  0.08620  0.90860  1.0000
  H   H38       1.0  0.07220  0.91380  0.09140  1.0000
  C   C91       1.0  0.51712  0.95516  0.82618  1.0000
  C   C92       1.0  0.48288  0.04484  0.17382  1.0000
  H   H39       1.0  0.51870  0.92210  0.81630  1.0000
  H   H40       1.0  0.48130  0.07790  0.18370  1.0000
  C   C93       1.0  0.06232  0.69722  0.94467  1.0000
  C   C94       1.0  0.93768  0.30278  0.05533  1.0000
  H   H41       1.0  0.06830  0.73300  0.94510  1.0000
  H   H42       1.0  0.93170  0.26700  0.05490  1.0000
  C   C95       1.0  0.95122  0.42132  0.93591  1.0000
  C   C96       1.0  0.04878  0.57868  0.06409  1.0000
  C   C97       1.0  0.40120  0.78185  0.81360  1.0000
  C   C98       1.0  0.59880  0.21815  0.18640  1.0000
  C   C99       1.0  0.66032  0.51477  0.99172  1.0000
  C   C100      1.0  0.33968  0.48523  0.00828  1.0000
  C   C101      1.0  0.57662  0.18112  0.87410  1.0000
  C   C102      1.0  0.42338  0.81888  0.12590  1.0000
  H   H43       1.0  0.61220  0.19100  0.86840  1.0000
  H   H44       1.0  0.38780  0.80900  0.13160  1.0000
  C   C103      1.0  0.09221  0.56855  0.93084  1.0000
  C   C104      1.0  0.90779  0.43145  0.06916  1.0000
  C   C105      1.0  0.05104  0.43126  0.93084  1.0000
  C   C106      1.0  0.94896  0.56874  0.06916  1.0000
  H   H45       1.0  0.05480  0.39680  0.92840  1.0000
  H   H46       1.0  0.94520  0.60320  0.07160  1.0000
  C   C107      1.0  0.44956  0.19546  0.91198  1.0000
  C   C108      1.0  0.55044  0.80454  0.08802  1.0000
  C   C109      1.0  0.93041  0.26409  0.89348  1.0000
  C   C110      1.0  0.06959  0.73591  0.10652  1.0000
  C   C111      1.0  0.96855  0.68172  0.96941  1.0000
  C   C112      1.0  0.03145  0.31828  0.03059  1.0000
  C   C113      1.0  0.15059  0.02034  0.96102  1.0000
  C   C114      1.0  0.84941  0.97966  0.03898  1.0000
  C   C115      1.0  0.95040  0.03570  0.82742  1.0000
  C   C116      1.0  0.04960  0.96430  0.17258  1.0000
  C   C117      1.0  0.72771  0.11413  0.81500  1.0000
  C   C118      1.0  0.27229  0.88587  0.18500  1.0000
  C   C119      1.0  0.91901  0.20948  0.87788  1.0000
  C   C120      1.0  0.08099  0.79052  0.12212  1.0000
  C   C121      1.0  0.83646  0.62946  0.99490  1.0000
  C   C122      1.0  0.16354  0.37054  0.00510  1.0000
  H   H47       1.0  0.80240  0.62980  0.00400  1.0000
  H   H48       1.0  0.19760  0.37020  0.99600  1.0000
  C   C123      1.0  0.87430  0.66993  0.99348  1.0000
  C   C124      1.0  0.12570  0.33007  0.00652  1.0000
  H   H49       1.0  0.87160  0.70370  0.00070  1.0000
  H   H50       1.0  0.12840  0.29630  0.99930  1.0000
  C   C125      1.0  0.56457  0.08753  0.85001  1.0000
  C   C126      1.0  0.43543  0.91247  0.14999  1.0000
  C   C127      1.0  0.42248  0.94172  0.84969  1.0000
  C   C128      1.0  0.57752  0.05828  0.15031  1.0000
  C   C129      1.0  0.60280  0.64580  0.46960  1.0000
  C   C130      1.0  0.39720  0.35420  0.53040  1.0000
  H   H51       1.0  0.58740  0.61630  0.45470  1.0000
  H   H52       1.0  0.41260  0.38370  0.54530  1.0000
  C   C131      1.0  0.96910  0.82210  0.94452  1.0000
  C   C132      1.0  0.03090  0.17790  0.05548  1.0000
  H   H53       1.0  0.96420  0.84170  0.92080  1.0000
  H   H54       1.0  0.03580  0.15830  0.07920  1.0000
  C   C133      1.0  0.92237  0.32681  0.94698  1.0000
  C   C134      1.0  0.07763  0.67319  0.05302  1.0000
  H   H55       1.0  0.91110  0.33450  0.97330  1.0000
  H   H56       1.0  0.08890  0.66550  0.02670  1.0000
  C   C135      1.0  0.48592  0.40739  0.97360  1.0000
  C   C136      1.0  0.51408  0.59261  0.02640  1.0000
  C   C137      1.0  0.91440  0.27670  0.93340  1.0000
  C   C138      1.0  0.08560  0.72330  0.06660  1.0000
  H   H57       1.0  0.89840  0.25090  0.95050  1.0000
  H   H58       1.0  0.10160  0.74910  0.04950  1.0000
  C   C139      1.0  0.50626  0.53720  0.85978  1.0000
  C   C140      1.0  0.49374  0.46280  0.14022  1.0000
  C   C141      1.0  0.96370  0.35251  0.88416  1.0000
  C   C142      1.0  0.03630  0.64749  0.11584  1.0000
  H   H59       1.0  0.98120  0.37810  0.86760  1.0000
  H   H60       1.0  0.01880  0.62190  0.13240  1.0000
  C   C143      1.0  0.20814  0.02780  0.90209  1.0000
  C   C144      1.0  0.79186  0.97220  0.09791  1.0000
  H   H61       1.0  0.21180  0.02580  0.87330  1.0000
  H   H62       1.0  0.78820  0.97420  0.12670  1.0000
  C   C145      1.0  0.95580  0.30264  0.86924  1.0000
  C   C146      1.0  0.04420  0.69736  0.13076  1.0000
  H   H63       1.0  0.96750  0.29500  0.84310  1.0000
  H   H64       1.0  0.03250  0.70500  0.15690  1.0000
  N   N35       1.0  0.77750  0.84240  0.48445  1.0000
  N   N36       1.0  0.22250  0.15760  0.51555  1.0000
  C   C147      1.0  0.73591  0.54870  0.95320  1.0000
  C   C148      1.0  0.26409  0.45130  0.04680  1.0000
  H   H65       1.0  0.74960  0.56640  0.93000  1.0000
  H   H66       1.0  0.25040  0.43360  0.07000  1.0000
  C   C149      1.0  0.19532  0.03090  0.98723  1.0000
  C   C150      1.0  0.80468  0.96910  0.01277  1.0000
  H   H67       1.0  0.19150  0.03150  0.01610  1.0000
  H   H68       1.0  0.80850  0.96850  0.98390  1.0000
  C   C151      1.0  0.16021  0.55501  0.87898  1.0000
  C   C152      1.0  0.83979  0.44499  0.12102  1.0000
  H   H69       1.0  0.13330  0.53490  0.86280  1.0000
  H   H70       1.0  0.86670  0.46510  0.13720  1.0000
  C   C153      1.0  0.98866  0.90246  0.98855  1.0000
  C   C154      1.0  0.01134  0.09754  0.01145  1.0000
  C   C155      1.0  0.68216  0.54110  0.95840  1.0000
  C   C156      1.0  0.31784  0.45890  0.04160  1.0000
  H   H71       1.0  0.65990  0.55440  0.93860  1.0000
  H   H72       1.0  0.34010  0.44560  0.06140  1.0000
  C   C157      1.0  0.98270  0.76172  0.01349  1.0000
  C   C158      1.0  0.01730  0.23828  0.98651  1.0000
  H   H73       1.0  0.98670  0.74190  0.03720  1.0000
  H   H74       1.0  0.01330  0.25810  0.96280  1.0000
  C   C159      1.0  0.15780  0.01880  0.91830  1.0000
  C   C160      1.0  0.84220  0.98120  0.08170  1.0000
  H   H75       1.0  0.12800  0.01170  0.89980  1.0000
  H   H76       1.0  0.87200  0.98830  0.10020  1.0000
  C   C161      1.0  0.24133  0.61308  0.92676  1.0000
  C   C162      1.0  0.75867  0.38692  0.07324  1.0000
  H   H77       1.0  0.26870  0.63270  0.94290  1.0000
  H   H78       1.0  0.73130  0.36730  0.05710  1.0000
  C   C163      1.0  0.19080  0.60477  0.94095  1.0000
  C   C164      1.0  0.80920  0.39523  0.05905  1.0000
  H   H79       1.0  0.18420  0.61810  0.96690  1.0000
  H   H80       1.0  0.81580  0.38190  0.03310  1.0000
  C   C165      1.0  0.47170  0.34218  0.91360  1.0000
  C   C166      1.0  0.52830  0.65782  0.08640  1.0000
  H   H81       1.0  0.47580  0.36890  0.89450  1.0000
  H   H82       1.0  0.52420  0.63110  0.10550  1.0000
  C   C167      1.0  0.21060  0.56310  0.86519  1.0000
  C   C168      1.0  0.78940  0.43690  0.13481  1.0000
  H   H83       1.0  0.21740  0.54870  0.83970  1.0000
  H   H84       1.0  0.78260  0.45130  0.16030  1.0000
  C   C169      1.0  0.72970  0.72040  0.36280  1.0000
  C   C170      1.0  0.27030  0.27960  0.63720  1.0000
  H   H85       1.0  0.71690  0.69880  0.34020  1.0000
  H   H86       1.0  0.28310  0.30120  0.65980  1.0000
  N   N37       1.0  0.65690  0.72230  0.48732  1.0000
  N   N38       1.0  0.34310  0.27770  0.51268  1.0000
  C   C171      1.0  0.96580  0.00290  0.85738  1.0000
  C   C172      1.0  0.03420  0.99710  0.14262  1.0000
  C   C173      1.0  0.71410  0.09290  0.85200  1.0000
  C   C174      1.0  0.28590  0.90710  0.14800  1.0000
  H   H87       1.0  0.74040  0.08450  0.87100  1.0000
  H   H88       1.0  0.25960  0.91550  0.12900  1.0000
  C   C175      1.0  0.72590  0.84310  0.56740  1.0000
  C   C176      1.0  0.27410  0.15690  0.43260  1.0000
  C   C177      1.0  0.96470  0.76865  0.94045  1.0000
  C   C178      1.0  0.03530  0.23135  0.05955  1.0000
  H   H89       1.0  0.95720  0.75340  0.91400  1.0000
  H   H90       1.0  0.04280  0.24660  0.08600  1.0000
  C   C179      1.0  0.68800  0.12880  0.78840  1.0000
  C   C180      1.0  0.31200  0.87120  0.21160  1.0000
  H   H91       1.0  0.69560  0.14530  0.76320  1.0000
  H   H92       1.0  0.30440  0.85470  0.23680  1.0000
  C   C181      1.0  0.74867  0.50322  0.01763  1.0000
  C   C182      1.0  0.25133  0.49678  0.98237  1.0000
  H   H93       1.0  0.77060  0.49080  0.03810  1.0000
  H   H94       1.0  0.22940  0.50920  0.96190  1.0000
  C   C183      1.0  0.60080  0.50719  0.99401  1.0000
  C   C184      1.0  0.39920  0.49281  0.00599  1.0000
  C   C185      1.0  0.24612  0.04070  0.97260  1.0000
  C   C186      1.0  0.75388  0.95930  0.02740  1.0000
  H   H95       1.0  0.27540  0.04780  0.99150  1.0000
  H   H96       1.0  0.72460  0.95220  0.00850  1.0000
  C   C187      1.0  0.55230  0.51460  0.84790  1.0000
  C   C188      1.0  0.44770  0.48540  0.15210  1.0000
  C   C189      1.0  0.45820  0.26150  0.96910  1.0000
  C   C190      1.0  0.54180  0.73850  0.03090  1.0000
  H   H97       1.0  0.45340  0.23500  0.98850  1.0000
  H   H98       1.0  0.54660  0.76500  0.01150  1.0000
  C   C191      1.0  0.38710  0.86910  0.80060  1.0000
  C   C192      1.0  0.61290  0.13090  0.19940  1.0000
  H   H99       1.0  0.37270  0.89250  0.78340  1.0000
  H   H100      1.0  0.62730  0.10750  0.21660  1.0000
  C   C193      1.0  0.43040  0.80020  0.84770  1.0000
  C   C194      1.0  0.56960  0.19980  0.15230  1.0000
  H   H101      1.0  0.44590  0.77740  0.86490  1.0000
  H   H102      1.0  0.55410  0.22260  0.13510  1.0000
  C   C195      1.0  0.64930  0.56170  0.34970  1.0000
  C   C196      1.0  0.35070  0.43830  0.65030  1.0000
  H   H103      1.0  0.66880  0.53550  0.34390  1.0000
  H   H104      1.0  0.33120  0.46450  0.65610  1.0000
  C   C197      1.0  0.59870  0.55960  0.33470  1.0000
  C   C198      1.0  0.40130  0.44040  0.66530  1.0000
  C   C199      1.0  0.46200  0.28930  0.89970  1.0000
  C   C200      1.0  0.53800  0.71070  0.10030  1.0000
  H   H105      1.0  0.45980  0.28150  0.87110  1.0000
  H   H106      1.0  0.54020  0.71850  0.12890  1.0000
  C   C201      1.0  0.98820  0.81550  0.01660  1.0000
  C   C202      1.0  0.01180  0.18450  0.98340  1.0000
  H   H107      1.0  0.99740  0.83120  0.04270  1.0000
  H   H108      1.0  0.00260  0.16880  0.95730  1.0000
  C   C203      1.0  0.63560  0.11750  0.80160  1.0000
  C   C204      1.0  0.36440  0.88250  0.19840  1.0000
  H   H109      1.0  0.60870  0.12610  0.78340  1.0000
  H   H110      1.0  0.39130  0.87390  0.21660  1.0000
  N   N39       1.0  0.69960  0.80340  0.54502  1.0000
  N   N40       1.0  0.30040  0.19660  0.45498  1.0000
  C   C205      1.0  0.84700  0.94660  0.65080  1.0000
  C   C206      1.0  0.15300  0.05340  0.34920  1.0000
  H   H111      1.0  0.86650  0.93740  0.67430  1.0000
  H   H112      1.0  0.13350  0.06260  0.32570  1.0000
  C   C207      1.0  0.39130  0.72620  0.80210  1.0000
  C   C208      1.0  0.60870  0.27380  0.19790  1.0000
  C   C209      1.0  0.53090  0.53320  0.78080  1.0000
  C   C210      1.0  0.46910  0.46680  0.21920  1.0000
  H   H113      1.0  0.54020  0.53150  0.75300  1.0000
  H   H114      1.0  0.45980  0.46850  0.24700  1.0000
  C   C211      1.0  0.64320  0.64010  0.38680  1.0000
  C   C212      1.0  0.35680  0.35990  0.61320  1.0000
  C   C213      1.0  0.64290  0.68370  0.45630  1.0000
  C   C214      1.0  0.35710  0.31630  0.54370  1.0000
  C   C215      1.0  0.81090  0.85220  0.45380  1.0000
  C   C216      1.0  0.18910  0.14780  0.54620  1.0000
  C   C217      1.0  0.30727  0.60442  0.87330  1.0000
  C   C218      1.0  0.69273  0.39558  0.12670  1.0000
  C   C219      1.0  0.70880  0.71920  0.40450  1.0000
  C   C220      1.0  0.29120  0.28080  0.59550  1.0000
  C   C221      1.0  0.66060  0.80530  0.60900  1.0000
  C   C222      1.0  0.33940  0.19470  0.39100  1.0000
  H   H115      1.0  0.63930  0.79590  0.63140  1.0000
  H   H116      1.0  0.36070  0.20410  0.36860  1.0000
  C   C223      1.0  0.78500  0.12540  0.80270  1.0000
  C   C224      1.0  0.21500  0.87460  0.19730  1.0000
  C   C225      1.0  0.49660  0.69520  0.61140  1.0000
  C   C226      1.0  0.50340  0.30480  0.38860  1.0000
  H   H117      1.0  0.46090  0.69860  0.60730  1.0000
  H   H118      1.0  0.53910  0.30140  0.39270  1.0000
  C   C227      1.0  0.82220  0.90990  0.61910  1.0000
  C   C228      1.0  0.17780  0.09010  0.38090  1.0000
  H   H119      1.0  0.82730  0.87580  0.62220  1.0000
  H   H120      1.0  0.17270  0.12420  0.37780  1.0000
  C   C229      1.0  0.59110  0.65960  0.50730  1.0000
  C   C230      1.0  0.40890  0.34040  0.49270  1.0000
  H   H121      1.0  0.56520  0.64160  0.52340  1.0000
  H   H122      1.0  0.43480  0.35840  0.47660  1.0000
  C   C231      1.0  0.43840  0.85180  0.85840  1.0000
  C   C232      1.0  0.56160  0.14820  0.14160  1.0000
  H   H123      1.0  0.46050  0.86280  0.88200  1.0000
  H   H124      1.0  0.53950  0.13720  0.11800  1.0000
  C   C233      1.0  0.85100  0.89780  0.46860  1.0000
  C   C234      1.0  0.14900  0.10220  0.53140  1.0000
  H   H125      1.0  0.87930  0.91310  0.45340  1.0000
  H   H126      1.0  0.12070  0.08690  0.54660  1.0000
  C   C235      1.0  0.46750  0.31230  0.98300  1.0000
  C   C236      1.0  0.53250  0.68770  0.01700  1.0000
  H   H127      1.0  0.46890  0.31920  0.01180  1.0000
  H   H128      1.0  0.53110  0.68080  0.98820  1.0000
  C   C237      1.0  0.58660  0.71280  0.58810  1.0000
  C   C238      1.0  0.41340  0.28720  0.41190  1.0000
  C   C239      1.0  0.51380  0.66970  0.64540  1.0000
  C   C240      1.0  0.48620  0.33030  0.35460  1.0000
  C   C241      1.0  0.78790  0.96940  0.58030  1.0000
  C   C242      1.0  0.21210  0.03060  0.41970  1.0000
  H   H129      1.0  0.76970  0.97900  0.55630  1.0000
  H   H130      1.0  0.23030  0.02100  0.44370  1.0000
  C   C243      1.0  0.57080  0.51200  0.30700  1.0000
  C   C244      1.0  0.42920  0.48800  0.69300  1.0000
  C   C245      1.0  0.97260  0.98590  0.77760  1.0000
  C   C246      1.0  0.02740  0.01410  0.22240  1.0000
  H   H131      1.0  0.97410  0.97870  0.74910  1.0000
  H   H132      1.0  0.02590  0.02130  0.25090  1.0000
  C   C247      1.0  0.66150  0.08340  0.86180  1.0000
  C   C248      1.0  0.33850  0.91660  0.13820  1.0000
  H   H133      1.0  0.65310  0.06730  0.88700  1.0000
  H   H134      1.0  0.34690  0.93270  0.11300  1.0000
  C   C249      1.0  0.83900  0.99650  0.64300  1.0000
  C   C250      1.0  0.16100  0.00350  0.35700  1.0000
  C   C251      1.0  0.70030  0.84880  0.60640  1.0000
  C   C252      1.0  0.29970  0.15120  0.39360  1.0000
  H   H135      1.0  0.70850  0.87570  0.62590  1.0000
  H   H136      1.0  0.29150  0.12430  0.37410  1.0000
  C   C253      1.0  0.80860  0.82990  0.41440  1.0000
  C   C254      1.0  0.19140  0.17010  0.58560  1.0000
  C   C255      1.0  0.37880  0.81750  0.78910  1.0000
  C   C256      1.0  0.62120  0.18250  0.21090  1.0000
  H   H137      1.0  0.35810  0.80670  0.76490  1.0000
  H   H138      1.0  0.64190  0.19330  0.23510  1.0000
  C   C257      1.0  0.80910  0.00860  0.60920  1.0000
  C   C258      1.0  0.19090  0.99140  0.39080  1.0000
  H   H139      1.0  0.80260  0.04210  0.60530  1.0000
  H   H140      1.0  0.19740  0.95790  0.39470  1.0000
  C   C259      1.0  0.97130  0.91200  0.30120  1.0000
  C   C260      1.0  0.02870  0.08800  0.69880  1.0000
  C   C261      1.0  0.88870  0.81960  0.37350  1.0000
  C   C262      1.0  0.11130  0.18040  0.62650  1.0000
  H   H141      1.0  0.88900  0.78710  0.38470  1.0000
  H   H142      1.0  0.11100  0.21290  0.61530  1.0000
  C   C263      1.0  0.53360  0.71610  0.58280  1.0000
  C   C264      1.0  0.46640  0.28390  0.41720  1.0000
  H   H143      1.0  0.52170  0.73280  0.55930  1.0000
  H   H144      1.0  0.47830  0.26720  0.44070  1.0000
  C   C265      1.0  0.76960  0.75750  0.36340  1.0000
  C   C266      1.0  0.23040  0.24250  0.63660  1.0000
  H   H145      1.0  0.79280  0.76510  0.34190  1.0000
  H   H146      1.0  0.20720  0.23490  0.65810  1.0000
  C   C267      1.0  0.79150  0.92180  0.58420  1.0000
  C   C268      1.0  0.20850  0.07820  0.41580  1.0000
  N   N41       1.0  0.73380  0.76090  0.42657  1.0000
  N   N42       1.0  0.26620  0.23910  0.57343  1.0000
  C   C269      1.0  0.85030  0.89890  0.36730  1.0000
  C   C270      1.0  0.14970  0.10110  0.63270  1.0000
  H   H147      1.0  0.82350  0.91780  0.37340  1.0000
  H   H148      1.0  0.17650  0.08220  0.62660  1.0000
  N   N43       1.0  0.98950  0.95170  0.80260  1.0000
  N   N44       1.0  0.01050  0.04830  0.19740  1.0000
  C   C271      1.0  0.84940  0.84820  0.38430  1.0000
  C   C272      1.0  0.15060  0.15180  0.61570  1.0000
  C   C273      1.0  0.86680  0.03780  0.67580  1.0000
  C   C274      1.0  0.13320  0.96220  0.32420  1.0000
  C   C275      1.0  0.60300  0.68760  0.62220  1.0000
  C   C276      1.0  0.39700  0.31240  0.37780  1.0000
  H   H149      1.0  0.63890  0.68480  0.62590  1.0000
  H   H150      1.0  0.36110  0.31520  0.37410  1.0000
  C   C277      1.0  0.47860  0.63930  0.67940  1.0000
  C   C278      1.0  0.52140  0.36070  0.32060  1.0000
  C   C279      1.0  0.58860  0.63490  0.37280  1.0000
  C   C280      1.0  0.41140  0.36510  0.62720  1.0000
  H   H151      1.0  0.56820  0.65930  0.38130  1.0000
  H   H152      1.0  0.43180  0.34070  0.61870  1.0000
  C   C281      1.0  0.79260  0.87630  0.51740  1.0000
  C   C282      1.0  0.20740  0.12370  0.48260  1.0000
  C   C283      1.0  0.66610  0.68230  0.41730  1.0000
  C   C284      1.0  0.33390  0.31770  0.58270  1.0000
  C   C285      1.0  0.77200  0.78500  0.40290  1.0000
  C   C286      1.0  0.22800  0.21500  0.59710  1.0000
  C   C287      1.0  0.62490  0.70740  0.51980  1.0000
  C   C288      1.0  0.37510  0.29260  0.48020  1.0000
  C   C289      1.0  0.67180  0.60430  0.37400  1.0000
  C   C290      1.0  0.32820  0.39570  0.62600  1.0000
  H   H153      1.0  0.70790  0.60820  0.38180  1.0000
  H   H154      1.0  0.29210  0.39180  0.61820  1.0000
  C   C291      1.0  0.92710  0.83920  0.34640  1.0000
  C   C292      1.0  0.07290  0.16080  0.65360  1.0000
  H   H155      1.0  0.95310  0.81990  0.33920  1.0000
  H   H156      1.0  0.04690  0.18010  0.66080  1.0000
  C   C293      1.0  0.66020  0.77810  0.56820  1.0000
  C   C294      1.0  0.33980  0.22190  0.43180  1.0000
  C   C295      1.0  0.84030  0.91200  0.50480  1.0000
  C   C296      1.0  0.15970  0.08800  0.49520  1.0000
  H   H157      1.0  0.85870  0.93960  0.52050  1.0000
  H   H158      1.0  0.14130  0.06040  0.47950  1.0000
  C   C297      1.0  0.62540  0.73290  0.55700  1.0000
  C   C298      1.0  0.37460  0.26710  0.44300  1.0000
  C   C299      1.0  0.76820  0.88110  0.55480  1.0000
  C   C300      1.0  0.23180  0.11890  0.44520  1.0000
  C   C301      1.0  0.88960  0.91960  0.34250  1.0000
  C   C302      1.0  0.11040  0.08040  0.65750  1.0000
  H   H159      1.0  0.89170  0.95380  0.33450  1.0000
  H   H160      1.0  0.10830  0.04620  0.66550  1.0000
  C   C303      1.0  0.56520  0.59470  0.34700  1.0000
  C   C304      1.0  0.43480  0.40530  0.65300  1.0000
  H   H161      1.0  0.52940  0.59080  0.33820  1.0000
  H   H162      1.0  0.47060  0.40920  0.66180  1.0000
  C   C305      1.0  0.92660  0.89090  0.32900  1.0000
  C   C306      1.0  0.07340  0.10910  0.67100  1.0000
  O   O51       1.0  0.34512  0.62228  0.89788  1.0000
  O   O52       1.0  0.65488  0.37772  0.10212  1.0000
  O   O53       1.0  0.31091  0.59592  0.83367  1.0000
  O   O54       1.0  0.68909  0.40408  0.16633  1.0000
  C   C307      1.0  0.56760  0.66510  0.65270  1.0000
  C   C308      1.0  0.43240  0.33490  0.34730  1.0000
  H   H163      1.0  0.57970  0.64830  0.67610  1.0000
  H   H164      1.0  0.42030  0.35170  0.32390  1.0000
  O   O55       1.0  0.93485  0.56493  0.88098  1.0000
  O   O56       1.0  0.06515  0.43507  0.11902  1.0000
  H   H165      1.0  0.91420  0.58530  0.87120  1.0000
  H   H166      1.0  0.08580  0.41470  0.12880  1.0000
  H   H167      1.0  0.94460  0.55050  0.85920  1.0000
  H   H168      1.0  0.05540  0.44950  0.14080  1.0000
