data_image0
_chemical_formula_structural       Zn13N6O2N8O2H4N4O4H4O4N8O2N8C2H2O2N4O4C2H2C2N2C2H2O2H4C10H2N4C2H2C6O2C2H2O2H4C4H2O2C4H2C2H2C2H2C8O2C6H2N2C4H2C2H2C2N2C6H2C2O2C2H2C4H2C2H2C4H2C4H2C2H2C6H2C4H2C2H2C2H2C6H2O2H4C4H2C2H2C4H2C2H2C4H2C4H2C2H2C2H2O2H4C4H2C2H2C2H2C2H2C2H2C4H2C2H2C2H2C2H2C2H2C2H2C2H2C2H2C2H2C4H2
_chemical_formula_sum              "Zn13 N48 O36 H120 C168"
_cell_length_a       19.094
_cell_length_b       24.29
_cell_length_c       24.738
_cell_angle_alpha    61.042
_cell_angle_beta     73.947
_cell_angle_gamma    82.746

_space_group_name_H-M_alt    "P 1"
_space_group_IT_number       1

loop_
  _space_group_symop_operation_xyz
  'x, y, z'

loop_
  _atom_site_type_symbol
  _atom_site_label
  _atom_site_symmetry_multiplicity
  _atom_site_fract_x
  _atom_site_fract_y
  _atom_site_fract_z
  _atom_site_occupancy
  Zn  Zn1       1.0  0.49483  0.51129  0.24704  1.0000
  Zn  Zn2       1.0  0.50517  0.48871  0.75296  1.0000
  Zn  Zn3       1.0  0.46181  0.60899  0.08382  1.0000
  Zn  Zn4       1.0  0.53819  0.39101  0.91618  1.0000
  Zn  Zn5       1.0  0.52484  0.61527  0.31193  1.0000
  Zn  Zn6       1.0  0.47516  0.38473  0.68807  1.0000
  Zn  Zn7       1.0  0.65885  0.41838  0.23333  1.0000
  Zn  Zn8       1.0  0.34115  0.58162  0.76667  1.0000
  Zn  Zn9       1.0  0.33386  0.41130  0.35350  1.0000
  Zn  Zn10      1.0  0.66614  0.58870  0.64650  1.0000
  Zn  Zn11      1.0  0.00000  0.00000  1.00000  1.0000
  Zn  Zn12      1.0  0.07559  0.00878  0.30482  1.0000
  Zn  Zn13      1.0  0.92441  0.99122  0.69518  1.0000
  N   N1        1.0  0.49240  0.61070  0.19880  1.0000
  N   N2        1.0  0.50760  0.38930  0.80120  1.0000
  N   N3        1.0  0.49630  0.40960  0.29680  1.0000
  N   N4        1.0  0.50370  0.59040  0.70320  1.0000
  N   N5        1.0  0.56190  0.50910  0.16060  1.0000
  N   N6        1.0  0.43810  0.49090  0.83940  1.0000
  O   O1        1.0  0.46130  0.32243  0.99140  1.0000
  O   O2        1.0  0.53870  0.67757  0.00860  1.0000
  N   N7        1.0  0.42830  0.51010  0.33480  1.0000
  N   N8        1.0  0.57170  0.48990  0.66520  1.0000
  N   N9        1.0  0.44280  0.54380  0.35910  1.0000
  N   N10       1.0  0.55720  0.45620  0.64090  1.0000
  N   N11       1.0  0.54660  0.54120  0.10370  1.0000
  N   N12       1.0  0.45340  0.45880  0.89630  1.0000
  N   N13       1.0  0.39690  0.50720  0.22030  1.0000
  N   N14       1.0  0.60310  0.49280  0.77970  1.0000
  O   O3        1.0  0.44300  0.57550  0.02140  1.0000
  O   O4        1.0  0.55700  0.42450  0.97860  1.0000
  H   H1        1.0  0.46760  0.54110  0.02720  1.0000
  H   H2        1.0  0.53240  0.45890  0.97280  1.0000
  H   H3        1.0  0.46150  0.60230  0.98160  1.0000
  H   H4        1.0  0.53850  0.39770  0.01840  1.0000
  N   N15       1.0  0.43850  0.37220  0.33340  1.0000
  N   N16       1.0  0.56150  0.62780  0.66660  1.0000
  N   N17       1.0  0.59290  0.51330  0.27490  1.0000
  N   N18       1.0  0.40710  0.48670  0.72510  1.0000
  O   O5        1.0  0.44810  0.68301  0.32100  1.0000
  O   O6        1.0  0.55190  0.31699  0.67900  1.0000
  O   O7        1.0  0.54460  0.59000  0.40320  1.0000
  O   O8        1.0  0.45540  0.41000  0.59680  1.0000
  H   H5        1.0  0.53360  0.55010  0.42980  1.0000
  H   H6        1.0  0.46640  0.44990  0.57020  1.0000
  H   H7        1.0  0.51420  0.61020  0.42100  1.0000
  H   H8        1.0  0.48580  0.38980  0.57900  1.0000
  O   O9        1.0  0.44100  0.35180  0.06760  1.0000
  O   O10       1.0  0.55900  0.64820  0.93240  1.0000
  O   O11       1.0  0.37920  0.67460  0.05860  1.0000
  O   O12       1.0  0.62080  0.32540  0.94140  1.0000
  N   N19       1.0  0.37450  0.46950  0.37820  1.0000
  N   N20       1.0  0.62550  0.53050  0.62180  1.0000
  N   N21       1.0  0.07360  0.91330  0.35100  1.0000
  N   N22       1.0  0.92640  0.08670  0.64900  1.0000
  N   N23       1.0  0.48150  0.64580  0.14020  1.0000
  N   N24       1.0  0.51850  0.35420  0.85980  1.0000
  N   N25       1.0  0.38360  0.54240  0.16160  1.0000
  N   N26       1.0  0.61640  0.45760  0.83840  1.0000
  O   O13       1.0  0.39360  0.31650  0.73070  1.0000
  O   O14       1.0  0.60640  0.68350  0.26930  1.0000
  N   N27       1.0  0.33790  0.47070  0.25870  1.0000
  N   N28       1.0  0.66210  0.52930  0.74130  1.0000
  N   N29       1.0  0.60400  0.54960  0.29920  1.0000
  N   N30       1.0  0.39600  0.45040  0.70080  1.0000
  N   N31       1.0  0.07530  0.10340  0.24760  1.0000
  N   N32       1.0  0.92470  0.89660  0.75240  1.0000
  N   N33       1.0  0.96390  0.00740  0.32820  1.0000
  N   N34       1.0  0.03610  0.99260  0.67180  1.0000
  C   C1        1.0  0.48570  0.70600  0.13160  1.0000
  C   C2        1.0  0.51430  0.29400  0.86840  1.0000
  H   H9        1.0  0.47730  0.74290  0.09520  1.0000
  H   H10       1.0  0.52270  0.25710  0.90480  1.0000
  O   O15       1.0  0.33700  0.33930  0.65290  1.0000
  O   O16       1.0  0.66300  0.66070  0.34710  1.0000
  N   N35       1.0  0.55520  0.37410  0.29260  1.0000
  N   N36       1.0  0.44480  0.62590  0.70740  1.0000
  N   N37       1.0  0.61850  0.47210  0.15630  1.0000
  N   N38       1.0  0.38150  0.52790  0.84370  1.0000
  O   O17       1.0  0.32840  0.64830  0.00260  1.0000
  O   O18       1.0  0.67160  0.35170  0.99740  1.0000
  O   O19       1.0  0.71540  0.34000  0.27740  1.0000
  O   O20       1.0  0.28460  0.66000  0.72260  1.0000
  C   C3        1.0  0.84610  0.97550  0.37700  1.0000
  C   C4        1.0  0.15390  0.02450  0.62300  1.0000
  H   H11       1.0  0.80480  0.94850  0.40230  1.0000
  H   H12       1.0  0.19520  0.05150  0.59770  1.0000
  C   C5        1.0  0.26580  0.17200  0.15990  1.0000
  C   C6        1.0  0.73420  0.82800  0.84010  1.0000
  N   N39       1.0  0.50380  0.64780  0.21870  1.0000
  N   N40       1.0  0.49620  0.35220  0.78130  1.0000
  C   C7        1.0  0.53880  0.31630  0.32470  1.0000
  C   C8        1.0  0.46120  0.68370  0.67530  1.0000
  H   H13       1.0  0.57060  0.28190  0.32870  1.0000
  H   H14       1.0  0.42940  0.71810  0.67130  1.0000
  O   O21       1.0  0.22440  0.44820  0.37560  1.0000
  O   O22       1.0  0.77560  0.55180  0.62440  1.0000
  H   H15       1.0  0.19500  0.43870  0.41310  1.0000
  H   H16       1.0  0.80500  0.56130  0.58690  1.0000
  H   H17       1.0  0.20040  0.47570  0.34850  1.0000
  H   H18       1.0  0.79960  0.52430  0.65150  1.0000
  C   C9        1.0  0.88430  0.84280  0.44080  1.0000
  C   C10       1.0  0.11570  0.15720  0.55920  1.0000
  C   C11       1.0  0.13550  0.14220  0.21080  1.0000
  C   C12       1.0  0.86450  0.85780  0.78920  1.0000
  C   C13       1.0  0.01770  0.14180  0.24210  1.0000
  C   C14       1.0  0.98230  0.85820  0.75790  1.0000
  C   C15       1.0  0.37370  0.26650  0.08470  1.0000
  C   C16       1.0  0.62630  0.73350  0.91530  1.0000
  C   C17       1.0  0.22500  0.02840  0.89740  1.0000
  C   C18       1.0  0.77500  0.97160  0.10260  1.0000
  H   H19       1.0  0.26610  0.05430  0.86850  1.0000
  H   H20       1.0  0.73390  0.94570  0.13150  1.0000
  N   N41       1.0  0.18550  0.00790  0.26630  1.0000
  N   N42       1.0  0.81450  0.99210  0.73370  1.0000
  N   N43       1.0  0.65490  0.47810  0.27080  1.0000
  N   N44       1.0  0.34510  0.52190  0.72920  1.0000
  C   C19       1.0  0.30430  0.03900  0.21730  1.0000
  C   C20       1.0  0.69570  0.96100  0.78270  1.0000
  H   H21       1.0  0.34560  0.06590  0.19190  1.0000
  H   H22       1.0  0.65440  0.93410  0.80810  1.0000
  C   C21       1.0  0.26430  0.84290  0.33390  1.0000
  C   C22       1.0  0.73570  0.15710  0.66610  1.0000
  C   C23       1.0  0.36590  0.74720  0.35430  1.0000
  C   C24       1.0  0.63410  0.25280  0.64570  1.0000
  C   C25       1.0  0.88540  0.17180  0.26510  1.0000
  C   C26       1.0  0.11460  0.82820  0.73490  1.0000
  O   O23       1.0  0.70080  0.34020  0.19190  1.0000
  O   O24       1.0  0.29920  0.65980  0.80810  1.0000
  C   C27       1.0  0.84500  0.03950  0.34390  1.0000
  C   C28       1.0  0.15500  0.96050  0.65610  1.0000
  H   H23       1.0  0.80300  0.06530  0.34110  1.0000
  H   H24       1.0  0.19700  0.93470  0.65890  1.0000
  O   O25       1.0  0.77100  0.46000  0.17380  1.0000
  O   O26       1.0  0.22900  0.54000  0.82620  1.0000
  H   H25       1.0  0.81240  0.43960  0.16790  1.0000
  H   H26       1.0  0.18760  0.56040  0.83210  1.0000
  H   H27       1.0  0.78370  0.50070  0.15090  1.0000
  H   H28       1.0  0.21630  0.49930  0.84910  1.0000
  C   C29       1.0  0.13360  0.87370  0.35500  1.0000
  C   C30       1.0  0.86640  0.12630  0.64500  1.0000
  C   C31       1.0  0.46430  0.31330  0.35300  1.0000
  C   C32       1.0  0.53570  0.68670  0.64700  1.0000
  H   H29       1.0  0.43650  0.27590  0.38160  1.0000
  H   H30       1.0  0.56350  0.72410  0.61840  1.0000
  O   O27       1.0  0.70140  0.66880  0.53970  1.0000
  O   O28       1.0  0.29860  0.33120  0.46030  1.0000
  C   C33       1.0  0.78180  0.26600  0.24850  1.0000
  C   C34       1.0  0.21820  0.73400  0.75150  1.0000
  C   C35       1.0  0.30600  0.97670  0.25050  1.0000
  C   C36       1.0  0.69400  0.02330  0.74950  1.0000
  H   H31       1.0  0.34790  0.95070  0.25410  1.0000
  H   H32       1.0  0.65210  0.04930  0.74590  1.0000
  C   C37       1.0  0.35120  0.47880  0.42960  1.0000
  C   C38       1.0  0.64880  0.52120  0.57040  1.0000
  H   H33       1.0  0.31420  0.45660  0.46720  1.0000
  H   H34       1.0  0.68580  0.54340  0.53280  1.0000
  C   C39       1.0  0.22330  0.96550  0.92800  1.0000
  C   C40       1.0  0.77670  0.03450  0.07200  1.0000
  H   H35       1.0  0.26260  0.93850  0.92390  1.0000
  H   H36       1.0  0.73740  0.06150  0.07610  1.0000
  C   C41       1.0  0.91870  0.06040  0.31420  1.0000
  C   C42       1.0  0.08130  0.93960  0.68580  1.0000
  C   C43       1.0  0.01450  0.87460  0.38660  1.0000
  C   C44       1.0  0.98550  0.12540  0.61340  1.0000
  C   C45       1.0  0.20760  0.12140  0.20120  1.0000
  C   C46       1.0  0.79240  0.87860  0.79880  1.0000
  C   C47       1.0  0.94200  0.12130  0.27590  1.0000
  C   C48       1.0  0.05800  0.87870  0.72410  1.0000
  O   O29       1.0  0.43140  0.66370  0.41870  1.0000
  O   O30       1.0  0.56860  0.33630  0.58130  1.0000
  C   C49       1.0  0.18260  0.83100  0.00910  1.0000
  C   C50       1.0  0.81740  0.16900  0.99090  1.0000
  C   C51       1.0  0.41890  0.69500  0.36710  1.0000
  C   C52       1.0  0.58110  0.30500  0.63290  1.0000
  C   C53       1.0  0.50240  0.70640  0.17830  1.0000
  C   C54       1.0  0.49760  0.29360  0.82170  1.0000
  H   H37       1.0  0.51160  0.74180  0.18210  1.0000
  H   H38       1.0  0.48840  0.25820  0.81790  1.0000
  N   N45       1.0  0.10790  0.99800  0.95900  1.0000
  N   N46       1.0  0.89210  0.00200  0.04100  1.0000
  C   C55       1.0  0.22850  0.05960  0.22630  1.0000
  C   C56       1.0  0.77150  0.94040  0.77370  1.0000
  C   C57       1.0  0.03640  0.81030  0.41510  1.0000
  C   C58       1.0  0.96360  0.18970  0.58490  1.0000
  H   H39       1.0  0.00570  0.77460  0.44410  1.0000
  H   H40       1.0  0.99430  0.22540  0.55590  1.0000
  C   C59       1.0  0.35920  0.22660  0.06500  1.0000
  C   C60       1.0  0.64080  0.77340  0.93500  1.0000
  H   H41       1.0  0.38590  0.23170  0.02420  1.0000
  H   H42       1.0  0.61410  0.76830  0.97580  1.0000
  C   C61       1.0  0.20620  0.89400  0.32150  1.0000
  C   C62       1.0  0.79380  0.10600  0.67850  1.0000
  N   N47       1.0  0.00320  0.09530  0.95440  1.0000
  N   N48       1.0  0.99680  0.90470  0.04560  1.0000
  C   C63       1.0  0.72600  0.31900  0.24110  1.0000
  C   C64       1.0  0.27400  0.68100  0.75890  1.0000
  C   C65       1.0  0.29110  0.25540  0.75770  1.0000
  C   C66       1.0  0.70890  0.74460  0.24230  1.0000
  C   C67       1.0  0.34560  0.77920  0.29750  1.0000
  C   C68       1.0  0.65440  0.22080  0.70250  1.0000
  H   H43       1.0  0.36680  0.76730  0.26510  1.0000
  H   H44       1.0  0.63320  0.23270  0.73490  1.0000
  C   C69       1.0  0.22950  0.95640  0.28030  1.0000
  C   C70       1.0  0.77050  0.04360  0.71970  1.0000
  O   O31       1.0  0.72020  0.67040  0.62360  1.0000
  O   O32       1.0  0.27980  0.32960  0.37640  1.0000
  C   C71       1.0  0.29670  0.82670  0.28550  1.0000
  C   C72       1.0  0.70330  0.17330  0.71450  1.0000
  H   H45       1.0  0.28490  0.84840  0.24540  1.0000
  H   H46       1.0  0.71510  0.15160  0.75460  1.0000
  C   C73       1.0  0.92070  0.95600  0.36710  1.0000
  C   C74       1.0  0.07930  0.04400  0.63290  1.0000
  C   C75       1.0  0.39250  0.52680  0.41520  1.0000
  C   C76       1.0  0.60750  0.47320  0.58480  1.0000
  H   H47       1.0  0.38720  0.54650  0.44120  1.0000
  H   H48       1.0  0.61280  0.45350  0.55880  1.0000
  C   C77       1.0  0.03860  0.20550  0.20120  1.0000
  C   C78       1.0  0.96140  0.79450  0.79880  1.0000
  H   H49       1.0  0.00740  0.24090  0.19040  1.0000
  H   H50       1.0  0.99260  0.75910  0.80960  1.0000
  C   C79       1.0  0.18950  0.16160  0.84550  1.0000
  C   C80       1.0  0.81050  0.83840  0.15450  1.0000
  C   C81       1.0  0.29340  0.22110  0.81810  1.0000
  C   C82       1.0  0.70660  0.77890  0.18190  1.0000
  H   H51       1.0  0.33160  0.22910  0.83120  1.0000
  H   H52       1.0  0.66840  0.77090  0.16880  1.0000
  C   C83       1.0  0.28170  0.73570  0.02020  1.0000
  C   C84       1.0  0.71830  0.26430  0.97980  1.0000
  C   C85       1.0  0.69850  0.49380  0.29440  1.0000
  C   C86       1.0  0.30150  0.50620  0.70560  1.0000
  H   H53       1.0  0.74490  0.47580  0.29920  1.0000
  H   H54       1.0  0.25510  0.52420  0.70080  1.0000
  C   C87       1.0  0.59650  0.52370  0.06480  1.0000
  C   C88       1.0  0.40350  0.47630  0.93520  1.0000
  H   H55       1.0  0.60110  0.54000  0.02040  1.0000
  H   H56       1.0  0.39890  0.46000  0.97960  1.0000
  C   C89       1.0  0.78400  0.74710  0.52210  1.0000
  C   C90       1.0  0.21600  0.25290  0.47790  1.0000
  C   C91       1.0  0.42970  0.31800  0.04520  1.0000
  C   C92       1.0  0.57030  0.68200  0.95480  1.0000
  C   C93       1.0  0.30750  0.17930  0.10120  1.0000
  C   C94       1.0  0.69250  0.82070  0.89880  1.0000
  H   H57       1.0  0.30050  0.15170  0.08610  1.0000
  H   H58       1.0  0.69950  0.84830  0.91390  1.0000
  C   C95       1.0  0.06200  0.13300  0.91400  1.0000
  C   C96       1.0  0.93800  0.86700  0.08600  1.0000
  C   C97       1.0  0.31590  0.52780  0.16760  1.0000
  C   C98       1.0  0.68410  0.47220  0.83240  1.0000
  H   H59       1.0  0.29130  0.54700  0.13440  1.0000
  H   H60       1.0  0.70870  0.45300  0.86560  1.0000
  C   C99       1.0  0.27860  0.21260  0.18150  1.0000
  C   C100      1.0  0.72140  0.78740  0.81850  1.0000
  H   H61       1.0  0.25060  0.20780  0.22190  1.0000
  H   H62       1.0  0.74940  0.79220  0.77810  1.0000
  C   C101      1.0  0.63790  0.48060  0.09800  1.0000
  C   C102      1.0  0.36210  0.51940  0.90200  1.0000
  H   H63       1.0  0.67600  0.45900  0.08210  1.0000
  H   H64       1.0  0.32400  0.54100  0.91790  1.0000
  C   C103      1.0  0.15200  0.04970  0.91670  1.0000
  C   C104      1.0  0.84800  0.95030  0.08330  1.0000
  C   C105      1.0  0.94200  0.89450  0.39460  1.0000
  C   C106      1.0  0.05800  0.10550  0.60540  1.0000
  C   C107      1.0  0.67020  0.53680  0.31020  1.0000
  C   C108      1.0  0.32980  0.46320  0.68980  1.0000
  H   H65       1.0  0.69270  0.55600  0.32680  1.0000
  H   H66       1.0  0.30730  0.44400  0.67320  1.0000
  O   O33       1.0  0.09010  0.01560  0.39170  1.0000
  O   O34       1.0  0.90990  0.98440  0.60830  1.0000
  H   H67       1.0  0.08470  0.98470  0.43250  1.0000
  H   H68       1.0  0.91530  0.01530  0.56750  1.0000
  H   H69       1.0  0.10270  0.05020  0.39210  1.0000
  H   H70       1.0  0.89730  0.94980  0.60790  1.0000
  C   C109      1.0  0.12490  0.88460  0.00600  1.0000
  C   C110      1.0  0.87510  0.11540  0.99400  1.0000
  C   C111      1.0  0.10900  0.81050  0.39280  1.0000
  C   C112      1.0  0.89100  0.18950  0.60720  1.0000
  H   H71       1.0  0.13880  0.77430  0.40090  1.0000
  H   H72       1.0  0.86120  0.22570  0.59910  1.0000
  C   C113      1.0  0.33060  0.25910  0.14560  1.0000
  C   C114      1.0  0.66940  0.74090  0.85440  1.0000
  H   H73       1.0  0.33820  0.28650  0.16090  1.0000
  H   H74       1.0  0.66180  0.71350  0.83910  1.0000
  C   C115      1.0  0.13170  0.11180  0.89290  1.0000
  C   C116      1.0  0.86830  0.88820  0.10710  1.0000
  C   C117      1.0  0.24360  0.17470  0.86270  1.0000
  C   C118      1.0  0.75640  0.82530  0.13730  1.0000
  H   H75       1.0  0.24720  0.15180  0.90570  1.0000
  H   H76       1.0  0.75280  0.84820  0.09430  1.0000
  C   C119      1.0  0.11150  0.20590  0.18080  1.0000
  C   C120      1.0  0.88850  0.79410  0.81920  1.0000
  H   H77       1.0  0.14160  0.24190  0.15170  1.0000
  H   H78       1.0  0.85840  0.75810  0.84830  1.0000
  C   C121      1.0  0.73330  0.68960  0.57070  1.0000
  C   C122      1.0  0.26670  0.31040  0.42930  1.0000
  C   C123      1.0  0.28780  0.48320  0.22550  1.0000
  C   C124      1.0  0.71220  0.51680  0.77450  1.0000
  H   H79       1.0  0.24130  0.46380  0.24080  1.0000
  H   H80       1.0  0.75870  0.53620  0.75920  1.0000
  C   C125      1.0  0.15000  0.94590  0.96890  1.0000
  C   C126      1.0  0.85000  0.05410  0.03110  1.0000
  C   C127      1.0  0.28360  0.77240  0.04440  1.0000
  C   C128      1.0  0.71640  0.22760  0.95560  1.0000
  H   H81       1.0  0.32080  0.76530  0.06580  1.0000
  H   H82       1.0  0.67920  0.23470  0.93420  1.0000
  C   C129      1.0  0.17590  0.79420  0.97900  1.0000
  C   C130      1.0  0.82410  0.20580  0.02100  1.0000
  H   H83       1.0  0.14010  0.80160  0.95610  1.0000
  H   H84       1.0  0.85990  0.19840  0.04390  1.0000
  C   C131      1.0  0.23400  0.82250  0.04130  1.0000
  C   C132      1.0  0.76600  0.17750  0.95870  1.0000
  H   H85       1.0  0.23660  0.84800  0.06010  1.0000
  H   H86       1.0  0.76340  0.15200  0.93990  1.0000
  O   O35       1.0  0.03570  0.00200  0.08440  1.0000
  O   O36       1.0  0.96430  0.99800  0.91560  1.0000
  H   H87       1.0  0.01310  0.98190  0.13040  1.0000
  H   H88       1.0  0.98690  0.01810  0.86960  1.0000
  H   H89       1.0  0.07670  0.02550  0.07930  1.0000
  H   H90       1.0  0.92330  0.97450  0.92070  1.0000
  C   C133      1.0  0.33600  0.68110  0.02900  1.0000
  C   C134      1.0  0.66400  0.31890  0.97100  1.0000
  C   C135      1.0  0.23610  0.24350  0.73460  1.0000
  C   C136      1.0  0.76390  0.75650  0.26540  1.0000
  H   H91       1.0  0.23450  0.26450  0.69100  1.0000
  H   H92       1.0  0.76550  0.73550  0.30900  1.0000
  C   C137      1.0  0.85010  0.81720  0.41750  1.0000
  C   C138      1.0  0.14990  0.18280  0.58250  1.0000
  H   H93       1.0  0.85890  0.83410  0.37260  1.0000
  H   H94       1.0  0.14110  0.16590  0.62740  1.0000
  C   C139      1.0  0.80930  0.24560  0.20930  1.0000
  C   C140      1.0  0.19070  0.75440  0.79070  1.0000
  H   H95       1.0  0.79240  0.26450  0.17150  1.0000
  H   H96       1.0  0.20760  0.73550  0.82850  1.0000
  C   C141      1.0  0.32730  0.76180  0.40180  1.0000
  C   C142      1.0  0.67270  0.23820  0.59820  1.0000
  H   H97       1.0  0.33360  0.73790  0.44390  1.0000
  H   H98       1.0  0.66640  0.26210  0.55610  1.0000
  C   C143      1.0  0.22670  0.74770  0.98720  1.0000
  C   C144      1.0  0.77330  0.25230  0.01280  1.0000
  H   H99       1.0  0.22510  0.72110  0.96930  1.0000
  H   H100      1.0  0.77490  0.27890  0.03070  1.0000
  C   C145      1.0  0.34460  0.30730  0.71040  1.0000
  C   C146      1.0  0.65540  0.69270  0.28960  1.0000
  C   C147      1.0  0.28140  0.80970  0.38780  1.0000
  C   C148      1.0  0.71860  0.19030  0.61220  1.0000
  H   H101      1.0  0.25900  0.82070  0.42070  1.0000
  H   H102      1.0  0.74100  0.17930  0.57930  1.0000
  C   C149      1.0  0.85840  0.19110  0.30910  1.0000
  C   C150      1.0  0.14160  0.80890  0.69090  1.0000
  H   H103      1.0  0.87600  0.17330  0.34640  1.0000
  H   H104      1.0  0.12400  0.82670  0.65360  1.0000
  C   C151      1.0  0.04100  0.19720  0.90090  1.0000
  C   C152      1.0  0.95900  0.80280  0.09910  1.0000
  H   H105      1.0  0.07350  0.23200  0.88060  1.0000
  H   H106      1.0  0.92650  0.76800  0.11940  1.0000
  C   C153      1.0  0.81700  0.77360  0.54110  1.0000
  C   C154      1.0  0.18300  0.22640  0.45890  1.0000
  H   H107      1.0  0.80810  0.75720  0.58590  1.0000
  H   H108      1.0  0.19190  0.24280  0.41410  1.0000
  C   C155      1.0  0.18270  0.19560  0.78560  1.0000
  C   C156      1.0  0.81730  0.80440  0.21440  1.0000
  H   H109      1.0  0.14120  0.18830  0.77560  1.0000
  H   H110      1.0  0.85880  0.81170  0.22440  1.0000
  C   C157      1.0  0.80630  0.23560  0.30080  1.0000
  C   C158      1.0  0.19370  0.76440  0.69920  1.0000
  H   H111      1.0  0.78610  0.24580  0.33450  1.0000
  H   H112      1.0  0.21390  0.75420  0.66550  1.0000
  C   C159      1.0  0.80330  0.76780  0.45650  1.0000
  C   C160      1.0  0.19670  0.23220  0.54350  1.0000
  H   H113      1.0  0.78390  0.74740  0.43920  1.0000
  H   H114      1.0  0.21610  0.25260  0.56080  1.0000
  C   C161      1.0  0.86090  0.19920  0.21410  1.0000
  C   C162      1.0  0.13910  0.80080  0.78590  1.0000
  H   H115      1.0  0.87800  0.18770  0.18100  1.0000
  H   H116      1.0  0.12200  0.81230  0.81900  1.0000
  C   C163      1.0  0.86430  0.82370  0.50370  1.0000
  C   C164      1.0  0.13570  0.17630  0.49630  1.0000
  H   H117      1.0  0.88230  0.84420  0.52170  1.0000
  H   H118      1.0  0.11770  0.15580  0.47830  1.0000
  C   C165      1.0  0.94640  0.13420  0.96160  1.0000
  C   C166      1.0  0.05360  0.86580  0.03840  1.0000
  C   C167      1.0  0.97110  0.19930  0.92120  1.0000
  C   C168      1.0  0.02890  0.80070  0.07880  1.0000
  H   H119      1.0  0.94180  0.23590  0.91160  1.0000
  H   H120      1.0  0.05820  0.76410  0.08840  1.0000
