data_image0
_chemical_formula_structural       K4Cr4O8C8O16C8O8C8O16
_chemical_formula_sum              "K4 Cr4 O48 C24"
_cell_length_a       9.7306
_cell_length_b       17.0857
_cell_length_c       17.6917
_cell_angle_alpha    90
_cell_angle_beta     91.889
_cell_angle_gamma    90

_space_group_name_H-M_alt    "P 1"
_space_group_IT_number       1

loop_
  _space_group_symop_operation_xyz
  'x, y, z'

loop_
  _atom_site_type_symbol
  _atom_site_label
  _atom_site_symmetry_multiplicity
  _atom_site_fract_x
  _atom_site_fract_y
  _atom_site_fract_z
  _atom_site_occupancy
  K   K1        1.0  0.03184  0.11324  0.24210  1.0000
  K   K2        1.0  0.46816  0.61324  0.25790  1.0000
  K   K3        1.0  0.96816  0.88676  0.75790  1.0000
  K   K4        1.0  0.53184  0.38676  0.74210  1.0000
  Cr  Cr1       1.0  0.52948  0.94265  0.24253  1.0000
  Cr  Cr2       1.0  0.97052  0.44265  0.25747  1.0000
  Cr  Cr3       1.0  0.47052  0.05735  0.75747  1.0000
  Cr  Cr4       1.0  0.02948  0.55735  0.74253  1.0000
  O   O1        1.0  0.69720  0.94530  0.18265  1.0000
  O   O2        1.0  0.80280  0.44530  0.31735  1.0000
  O   O3        1.0  0.30280  0.05470  0.81735  1.0000
  O   O4        1.0  0.19720  0.55470  0.68265  1.0000
  O   O5        1.0  0.63640  0.01740  0.30651  1.0000
  O   O6        1.0  0.86360  0.51740  0.19349  1.0000
  O   O7        1.0  0.36360  0.98260  0.69349  1.0000
  O   O8        1.0  0.13640  0.48260  0.80651  1.0000
  C   C1        1.0  0.79190  0.99320  0.20700  1.0000
  C   C2        1.0  0.70810  0.49320  0.29300  1.0000
  C   C3        1.0  0.20810  0.00680  0.79300  1.0000
  C   C4        1.0  0.29190  0.50680  0.70700  1.0000
  C   C5        1.0  0.75400  0.03530  0.28160  1.0000
  C   C6        1.0  0.74600  0.53530  0.21840  1.0000
  C   C7        1.0  0.24600  0.96470  0.71840  1.0000
  C   C8        1.0  0.25400  0.46470  0.78160  1.0000
  O   O9        1.0  0.90140  0.00680  0.17800  1.0000
  O   O10       1.0  0.59860  0.50680  0.32200  1.0000
  O   O11       1.0  0.09860  0.99320  0.82200  1.0000
  O   O12       1.0  0.40140  0.49320  0.67800  1.0000
  O   O13       1.0  0.83650  0.08040  0.31150  1.0000
  O   O14       1.0  0.66350  0.58040  0.18850  1.0000
  O   O15       1.0  0.16350  0.91960  0.68850  1.0000
  O   O16       1.0  0.33650  0.41960  0.81150  1.0000
  O   O17       1.0  0.05650  0.35810  0.31730  1.0000
  O   O18       1.0  0.44350  0.85810  0.18270  1.0000
  O   O19       1.0  0.94350  0.64190  0.68270  1.0000
  O   O20       1.0  0.55650  0.14190  0.81730  1.0000
  O   O21       1.0  0.90480  0.35469  0.19467  1.0000
  O   O22       1.0  0.59520  0.85469  0.30533  1.0000
  O   O23       1.0  0.09520  0.64531  0.80533  1.0000
  O   O24       1.0  0.40480  0.14531  0.69467  1.0000
  C   C9        1.0  0.03780  0.29010  0.29040  1.0000
  C   C10       1.0  0.46220  0.79010  0.20960  1.0000
  C   C11       1.0  0.96220  0.70990  0.70960  1.0000
  C   C12       1.0  0.53780  0.20990  0.79040  1.0000
  C   C13       1.0  0.95180  0.28770  0.21510  1.0000
  C   C14       1.0  0.54820  0.78770  0.28490  1.0000
  C   C15       1.0  0.04820  0.71230  0.78490  1.0000
  C   C16       1.0  0.45180  0.21230  0.71510  1.0000
  O   O25       1.0  0.08200  0.22810  0.31800  1.0000
  O   O26       1.0  0.41800  0.72810  0.18200  1.0000
  O   O27       1.0  0.91800  0.77190  0.68200  1.0000
  O   O28       1.0  0.58200  0.27190  0.81800  1.0000
  O   O29       1.0  0.93230  0.22540  0.18130  1.0000
  O   O30       1.0  0.56770  0.72540  0.31870  1.0000
  O   O31       1.0  0.06770  0.77460  0.81870  1.0000
  O   O32       1.0  0.43230  0.27460  0.68130  1.0000
  C   C17       1.0  0.28260  0.00880  0.28300  1.0000
  C   C18       1.0  0.21740  0.50880  0.21700  1.0000
  C   C19       1.0  0.71740  0.99120  0.71700  1.0000
  C   C20       1.0  0.78260  0.49120  0.78300  1.0000
  C   C21       1.0  0.32340  0.04950  0.20840  1.0000
  C   C22       1.0  0.17660  0.54950  0.29160  1.0000
  C   C23       1.0  0.67660  0.95050  0.79160  1.0000
  C   C24       1.0  0.82340  0.45050  0.70840  1.0000
  O   O33       1.0  0.43820  0.02710  0.18297  1.0000
  O   O34       1.0  0.06180  0.52710  0.31703  1.0000
  O   O35       1.0  0.56180  0.97290  0.81703  1.0000
  O   O36       1.0  0.93820  0.47290  0.68297  1.0000
  O   O37       1.0  0.36690  0.95475  0.30548  1.0000
  O   O38       1.0  0.13310  0.45475  0.19452  1.0000
  O   O39       1.0  0.63310  0.04525  0.69452  1.0000
  O   O40       1.0  0.86690  0.54525  0.80548  1.0000
  O   O41       1.0  0.17820  0.02770  0.31430  1.0000
  O   O42       1.0  0.32180  0.52770  0.18570  1.0000
  O   O43       1.0  0.82180  0.97230  0.68570  1.0000
  O   O44       1.0  0.67820  0.47230  0.81430  1.0000
  O   O45       1.0  0.24550  0.09850  0.18018  1.0000
  O   O46       1.0  0.25450  0.59850  0.31982  1.0000
  O   O47       1.0  0.75450  0.90150  0.81982  1.0000
  O   O48       1.0  0.74550  0.40150  0.68018  1.0000
