data_image0
_chemical_formula_structural       Gd6Mo12O108H24O12H24O12H24C24H12C12H12C12
_chemical_formula_sum              "Gd6 Mo12 O132 H96 C48"
_cell_length_a       15.298
_cell_length_b       15.298
_cell_length_c       18.6613
_cell_angle_alpha    90
_cell_angle_beta     90
_cell_angle_gamma    120

_space_group_name_H-M_alt    "P 1"
_space_group_IT_number       1

loop_
  _space_group_symop_operation_xyz
  'x, y, z'

loop_
  _atom_site_type_symbol
  _atom_site_label
  _atom_site_symmetry_multiplicity
  _atom_site_fract_x
  _atom_site_fract_y
  _atom_site_fract_z
  _atom_site_occupancy
  Gd  Gd1       1.0  0.27242  0.54485  0.25000  1.0000
  Gd  Gd2       1.0  0.45515  0.72757  0.91667  1.0000
  Gd  Gd3       1.0  0.27243  0.72758  0.58333  1.0000
  Gd  Gd4       1.0  0.72758  0.45515  0.75000  1.0000
  Gd  Gd5       1.0  0.54485  0.27243  0.41667  1.0000
  Gd  Gd6       1.0  0.72757  0.27242  0.08333  1.0000
  Mo  Mo1       1.0  0.12684  0.27957  0.97856  1.0000
  Mo  Mo2       1.0  0.72043  0.84727  0.64523  1.0000
  Mo  Mo3       1.0  0.15273  0.87316  0.31189  1.0000
  Mo  Mo4       1.0  0.87316  0.72043  0.47856  1.0000
  Mo  Mo5       1.0  0.27957  0.15273  0.14523  1.0000
  Mo  Mo6       1.0  0.84727  0.12684  0.81189  1.0000
  Mo  Mo7       1.0  0.27957  0.12684  0.68811  1.0000
  Mo  Mo8       1.0  0.84727  0.72043  0.02144  1.0000
  Mo  Mo9       1.0  0.87316  0.15273  0.35477  1.0000
  Mo  Mo10      1.0  0.72043  0.87316  0.18811  1.0000
  Mo  Mo11      1.0  0.15273  0.27957  0.52144  1.0000
  Mo  Mo12      1.0  0.12684  0.84727  0.85477  1.0000
  O   O1        1.0  0.17080  0.39380  0.06550  1.0000
  O   O2        1.0  0.60620  0.77700  0.73217  1.0000
  O   O3        1.0  0.22300  0.82920  0.39883  1.0000
  O   O4        1.0  0.82920  0.60620  0.56550  1.0000
  O   O5        1.0  0.39380  0.22300  0.23217  1.0000
  O   O6        1.0  0.77700  0.17080  0.89883  1.0000
  O   O7        1.0  0.39380  0.17080  0.60117  1.0000
  O   O8        1.0  0.77700  0.60620  0.93450  1.0000
  O   O9        1.0  0.82920  0.22300  0.26783  1.0000
  O   O10       1.0  0.60620  0.82920  0.10117  1.0000
  O   O11       1.0  0.22300  0.39380  0.43450  1.0000
  O   O12       1.0  0.17080  0.77700  0.76783  1.0000
  O   O13       1.0  0.29670  0.49640  0.13600  1.0000
  O   O14       1.0  0.50360  0.80030  0.80267  1.0000
  O   O15       1.0  0.19970  0.70330  0.46933  1.0000
  O   O16       1.0  0.70330  0.50360  0.63600  1.0000
  O   O17       1.0  0.49640  0.19970  0.30267  1.0000
  O   O18       1.0  0.80030  0.29670  0.96933  1.0000
  O   O19       1.0  0.49640  0.29670  0.53067  1.0000
  O   O20       1.0  0.80030  0.50360  0.86400  1.0000
  O   O21       1.0  0.70330  0.19970  0.19733  1.0000
  O   O22       1.0  0.50360  0.70330  0.03067  1.0000
  O   O23       1.0  0.19970  0.49640  0.36400  1.0000
  O   O24       1.0  0.29670  0.80030  0.69733  1.0000
  O   O25       1.0  0.27070  0.33250  0.99266  1.0000
  O   O26       1.0  0.66750  0.93820  0.65933  1.0000
  O   O27       1.0  0.06180  0.72930  0.32599  1.0000
  O   O28       1.0  0.72930  0.66750  0.49266  1.0000
  O   O29       1.0  0.33250  0.06180  0.15933  1.0000
  O   O30       1.0  0.93820  0.27070  0.82599  1.0000
  O   O31       1.0  0.33250  0.27070  0.67401  1.0000
  O   O32       1.0  0.93820  0.66750  0.00734  1.0000
  O   O33       1.0  0.72930  0.06180  0.34067  1.0000
  O   O34       1.0  0.66750  0.72930  0.17401  1.0000
  O   O35       1.0  0.06180  0.33250  0.50734  1.0000
  O   O36       1.0  0.27070  0.93820  0.84067  1.0000
  O   O37       1.0  0.29790  0.28770  0.13849  1.0000
  O   O38       1.0  0.71230  0.01020  0.80516  1.0000
  O   O39       1.0  0.98980  0.70210  0.47182  1.0000
  O   O40       1.0  0.70210  0.71230  0.63849  1.0000
  O   O41       1.0  0.28770  0.98980  0.30516  1.0000
  O   O42       1.0  0.01020  0.29790  0.97182  1.0000
  O   O43       1.0  0.28770  0.29790  0.52818  1.0000
  O   O44       1.0  0.01020  0.71230  0.86151  1.0000
  O   O45       1.0  0.70210  0.98980  0.19484  1.0000
  O   O46       1.0  0.71230  0.70210  0.02818  1.0000
  O   O47       1.0  0.98980  0.28770  0.36151  1.0000
  O   O48       1.0  0.29790  0.01020  0.69484  1.0000
  O   O49       1.0  0.50350  0.37880  0.01740  1.0000
  O   O50       1.0  0.62120  0.12470  0.68407  1.0000
  O   O51       1.0  0.87530  0.49650  0.35073  1.0000
  O   O52       1.0  0.49650  0.62120  0.51740  1.0000
  O   O53       1.0  0.37880  0.87530  0.18407  1.0000
  O   O54       1.0  0.12470  0.50350  0.85073  1.0000
  O   O55       1.0  0.37880  0.50350  0.64927  1.0000
  O   O56       1.0  0.12470  0.62120  0.98260  1.0000
  O   O57       1.0  0.49650  0.87530  0.31593  1.0000
  O   O58       1.0  0.62120  0.49650  0.14927  1.0000
  O   O59       1.0  0.87530  0.37880  0.48260  1.0000
  O   O60       1.0  0.50350  0.12470  0.81593  1.0000
  O   O61       1.0  0.41940  0.24010  0.08270  1.0000
  O   O62       1.0  0.75990  0.17930  0.74937  1.0000
  O   O63       1.0  0.82070  0.58060  0.41603  1.0000
  O   O64       1.0  0.58060  0.75990  0.58270  1.0000
  O   O65       1.0  0.24010  0.82070  0.24937  1.0000
  O   O66       1.0  0.17930  0.41940  0.91603  1.0000
  O   O67       1.0  0.24010  0.41940  0.58397  1.0000
  O   O68       1.0  0.17930  0.75990  0.91730  1.0000
  O   O69       1.0  0.58060  0.82070  0.25063  1.0000
  O   O70       1.0  0.75990  0.58060  0.08397  1.0000
  O   O71       1.0  0.82070  0.24010  0.41730  1.0000
  O   O72       1.0  0.41940  0.17930  0.75063  1.0000
  O   O73       1.0  0.07090  0.18430  0.03930  1.0000
  O   O74       1.0  0.81570  0.88660  0.70597  1.0000
  O   O75       1.0  0.11340  0.92910  0.37263  1.0000
  O   O76       1.0  0.92910  0.81570  0.53930  1.0000
  O   O77       1.0  0.18430  0.11340  0.20597  1.0000
  O   O78       1.0  0.88660  0.07090  0.87263  1.0000
  O   O79       1.0  0.18430  0.07090  0.62737  1.0000
  O   O80       1.0  0.88660  0.81570  0.96070  1.0000
  O   O81       1.0  0.92910  0.11340  0.29403  1.0000
  O   O82       1.0  0.81570  0.92910  0.12737  1.0000
  O   O83       1.0  0.11340  0.18430  0.46070  1.0000
  O   O84       1.0  0.07090  0.88660  0.79403  1.0000
  O   O85       1.0  0.12420  0.21970  0.90150  1.0000
  O   O86       1.0  0.78030  0.90450  0.56817  1.0000
  O   O87       1.0  0.09550  0.87580  0.23483  1.0000
  O   O88       1.0  0.87580  0.78030  0.40150  1.0000
  O   O89       1.0  0.21970  0.09550  0.06817  1.0000
  O   O90       1.0  0.90450  0.12420  0.73483  1.0000
  O   O91       1.0  0.21970  0.12420  0.76517  1.0000
  O   O92       1.0  0.90450  0.78030  0.09850  1.0000
  O   O93       1.0  0.87580  0.09550  0.43183  1.0000
  O   O94       1.0  0.78030  0.87580  0.26517  1.0000
  O   O95       1.0  0.09550  0.21970  0.59850  1.0000
  O   O96       1.0  0.12420  0.90450  0.93183  1.0000
  O   O97       1.0  0.44530  0.60450  0.27520  1.0000
  O   O98       1.0  0.39550  0.84080  0.94187  1.0000
  O   O99       1.0  0.15920  0.55470  0.60853  1.0000
  O   O100      1.0  0.55470  0.39550  0.77520  1.0000
  O   O101      1.0  0.60450  0.15920  0.44187  1.0000
  O   O102      1.0  0.84080  0.44530  0.10853  1.0000
  O   O103      1.0  0.60450  0.44530  0.39147  1.0000
  O   O104      1.0  0.84080  0.39550  0.72480  1.0000
  O   O105      1.0  0.55470  0.15920  0.05813  1.0000
  O   O106      1.0  0.39550  0.55470  0.89147  1.0000
  O   O107      1.0  0.15920  0.60450  0.22480  1.0000
  O   O108      1.0  0.44530  0.84080  0.55813  1.0000
  H   H1        1.0  0.48050  0.65450  0.25070  1.0000
  H   H2        1.0  0.34550  0.82600  0.91737  1.0000
  H   H3        1.0  0.17400  0.51950  0.58403  1.0000
  H   H4        1.0  0.51950  0.34550  0.75070  1.0000
  H   H5        1.0  0.65450  0.17400  0.41737  1.0000
  H   H6        1.0  0.82600  0.48050  0.08403  1.0000
  H   H7        1.0  0.65450  0.48050  0.41597  1.0000
  H   H8        1.0  0.82600  0.34550  0.74930  1.0000
  H   H9        1.0  0.51950  0.17400  0.08263  1.0000
  H   H10       1.0  0.34550  0.51950  0.91597  1.0000
  H   H11       1.0  0.17400  0.65450  0.24930  1.0000
  H   H12       1.0  0.48050  0.82600  0.58263  1.0000
  H   H13       1.0  0.46270  0.57250  0.30780  1.0000
  H   H14       1.0  0.42750  0.89020  0.97447  1.0000
  H   H15       1.0  0.10980  0.53730  0.64113  1.0000
  H   H16       1.0  0.53730  0.42750  0.80780  1.0000
  H   H17       1.0  0.57250  0.10980  0.47447  1.0000
  H   H18       1.0  0.89020  0.46270  0.14113  1.0000
  H   H19       1.0  0.57250  0.46270  0.35887  1.0000
  H   H20       1.0  0.89020  0.42750  0.69220  1.0000
  H   H21       1.0  0.53730  0.10980  0.02553  1.0000
  H   H22       1.0  0.42750  0.53730  0.85887  1.0000
  H   H23       1.0  0.10980  0.57250  0.19220  1.0000
  H   H24       1.0  0.46270  0.89020  0.52553  1.0000
  O   O109      1.0  0.29160  0.40180  0.26750  1.0000
  O   O110      1.0  0.59820  0.88980  0.93417  1.0000
  O   O111      1.0  0.11020  0.70840  0.60083  1.0000
  O   O112      1.0  0.70840  0.59820  0.76750  1.0000
  O   O113      1.0  0.40180  0.11020  0.43417  1.0000
  O   O114      1.0  0.88980  0.29160  0.10083  1.0000
  O   O115      1.0  0.40180  0.29160  0.39917  1.0000
  O   O116      1.0  0.88980  0.59820  0.73250  1.0000
  O   O117      1.0  0.70840  0.11020  0.06583  1.0000
  O   O118      1.0  0.59820  0.70840  0.89917  1.0000
  O   O119      1.0  0.11020  0.40180  0.23250  1.0000
  O   O120      1.0  0.29160  0.88980  0.56583  1.0000
  H   H25       1.0  0.33720  0.40640  0.24180  1.0000
  H   H26       1.0  0.59360  0.93080  0.90847  1.0000
  H   H27       1.0  0.06920  0.66280  0.57513  1.0000
  H   H28       1.0  0.66280  0.59360  0.74180  1.0000
  H   H29       1.0  0.40640  0.06920  0.40847  1.0000
  H   H30       1.0  0.93080  0.33720  0.07513  1.0000
  H   H31       1.0  0.40640  0.33720  0.42487  1.0000
  H   H32       1.0  0.93080  0.59360  0.75820  1.0000
  H   H33       1.0  0.66280  0.06920  0.09153  1.0000
  H   H34       1.0  0.59360  0.66280  0.92487  1.0000
  H   H35       1.0  0.06920  0.40640  0.25820  1.0000
  H   H36       1.0  0.33720  0.93080  0.59153  1.0000
  H   H37       1.0  0.25130  0.35330  0.29860  1.0000
  H   H38       1.0  0.64670  0.89800  0.96527  1.0000
  H   H39       1.0  0.10200  0.74870  0.63193  1.0000
  H   H40       1.0  0.74870  0.64670  0.79860  1.0000
  H   H41       1.0  0.35330  0.10200  0.46527  1.0000
  H   H42       1.0  0.89800  0.25130  0.13193  1.0000
  H   H43       1.0  0.35330  0.25130  0.36807  1.0000
  H   H44       1.0  0.89800  0.64670  0.70140  1.0000
  H   H45       1.0  0.74870  0.10200  0.03473  1.0000
  H   H46       1.0  0.64670  0.74870  0.86807  1.0000
  H   H47       1.0  0.10200  0.35330  0.20140  1.0000
  H   H48       1.0  0.25130  0.89800  0.53473  1.0000
  O   O121      1.0  0.36550  0.69140  0.17350  1.0000
  O   O122      1.0  0.30860  0.67410  0.84017  1.0000
  O   O123      1.0  0.32590  0.63450  0.50683  1.0000
  O   O124      1.0  0.63450  0.30860  0.67350  1.0000
  O   O125      1.0  0.69140  0.32590  0.34017  1.0000
  O   O126      1.0  0.67410  0.36550  0.00683  1.0000
  O   O127      1.0  0.69140  0.36550  0.49317  1.0000
  O   O128      1.0  0.67410  0.30860  0.82650  1.0000
  O   O129      1.0  0.63450  0.32590  0.15983  1.0000
  O   O130      1.0  0.30860  0.63450  0.99317  1.0000
  O   O131      1.0  0.32590  0.69140  0.32650  1.0000
  O   O132      1.0  0.36550  0.67410  0.65983  1.0000
  H   H49       1.0  0.40850  0.68580  0.15100  1.0000
  H   H50       1.0  0.31420  0.72270  0.81767  1.0000
  H   H51       1.0  0.27730  0.59150  0.48433  1.0000
  H   H52       1.0  0.59150  0.31420  0.65100  1.0000
  H   H53       1.0  0.68580  0.27730  0.31767  1.0000
  H   H54       1.0  0.72270  0.40850  0.98433  1.0000
  H   H55       1.0  0.68580  0.40850  0.51567  1.0000
  H   H56       1.0  0.72270  0.31420  0.84900  1.0000
  H   H57       1.0  0.59150  0.27730  0.18233  1.0000
  H   H58       1.0  0.31420  0.59150  0.01567  1.0000
  H   H59       1.0  0.27730  0.68580  0.34900  1.0000
  H   H60       1.0  0.40850  0.72270  0.68233  1.0000
  H   H61       1.0  0.34910  0.74030  0.17330  1.0000
  H   H62       1.0  0.25970  0.60880  0.83997  1.0000
  H   H63       1.0  0.39120  0.65090  0.50663  1.0000
  H   H64       1.0  0.65090  0.25970  0.67330  1.0000
  H   H65       1.0  0.74030  0.39120  0.33997  1.0000
  H   H66       1.0  0.60880  0.34910  0.00663  1.0000
  H   H67       1.0  0.74030  0.34910  0.49337  1.0000
  H   H68       1.0  0.60880  0.25970  0.82670  1.0000
  H   H69       1.0  0.65090  0.39120  0.16003  1.0000
  H   H70       1.0  0.25970  0.65090  0.99337  1.0000
  H   H71       1.0  0.39120  0.74030  0.32670  1.0000
  H   H72       1.0  0.34910  0.60880  0.66003  1.0000
  C   C1        1.0  0.25990  0.43390  0.08500  1.0000
  C   C2        1.0  0.56610  0.82600  0.75167  1.0000
  C   C3        1.0  0.17400  0.74010  0.41833  1.0000
  C   C4        1.0  0.74010  0.56610  0.58500  1.0000
  C   C5        1.0  0.43390  0.17400  0.25167  1.0000
  C   C6        1.0  0.82600  0.25990  0.91833  1.0000
  C   C7        1.0  0.43390  0.25990  0.58167  1.0000
  C   C8        1.0  0.82600  0.56610  0.91500  1.0000
  C   C9        1.0  0.74010  0.17400  0.24833  1.0000
  C   C10       1.0  0.56610  0.74010  0.08167  1.0000
  C   C11       1.0  0.17400  0.43390  0.41500  1.0000
  C   C12       1.0  0.25990  0.82600  0.74833  1.0000
  C   C13       1.0  0.32720  0.40550  0.04520  1.0000
  C   C14       1.0  0.59450  0.92170  0.71187  1.0000
  C   C15       1.0  0.07830  0.67280  0.37853  1.0000
  C   C16       1.0  0.67280  0.59450  0.54520  1.0000
  C   C17       1.0  0.40550  0.07830  0.21187  1.0000
  C   C18       1.0  0.92170  0.32720  0.87853  1.0000
  C   C19       1.0  0.40550  0.32720  0.62147  1.0000
  C   C20       1.0  0.92170  0.59450  0.95480  1.0000
  C   C21       1.0  0.67280  0.07830  0.28813  1.0000
  C   C22       1.0  0.59450  0.67280  0.12147  1.0000
  C   C23       1.0  0.07830  0.40550  0.45480  1.0000
  C   C24       1.0  0.32720  0.92170  0.78813  1.0000
  H   H73       1.0  0.38100  0.46560  0.02160  1.0000
  H   H74       1.0  0.53440  0.91540  0.68827  1.0000
  H   H75       1.0  0.08460  0.61900  0.35493  1.0000
  H   H76       1.0  0.61900  0.53440  0.52160  1.0000
  H   H77       1.0  0.46560  0.08460  0.18827  1.0000
  H   H78       1.0  0.91540  0.38100  0.85493  1.0000
  H   H79       1.0  0.46560  0.38100  0.64507  1.0000
  H   H80       1.0  0.91540  0.53440  0.97840  1.0000
  H   H81       1.0  0.61900  0.08460  0.31173  1.0000
  H   H82       1.0  0.53440  0.61900  0.14507  1.0000
  H   H83       1.0  0.08460  0.46560  0.47840  1.0000
  H   H84       1.0  0.38100  0.91540  0.81173  1.0000
  C   C25       1.0  0.37450  0.36470  0.09790  1.0000
  C   C26       1.0  0.63530  0.00980  0.76457  1.0000
  C   C27       1.0  0.99020  0.62550  0.43123  1.0000
  C   C28       1.0  0.62550  0.63530  0.59790  1.0000
  C   C29       1.0  0.36470  0.99020  0.26457  1.0000
  C   C30       1.0  0.00980  0.37450  0.93123  1.0000
  C   C31       1.0  0.36470  0.37450  0.56877  1.0000
  C   C32       1.0  0.00980  0.63530  0.90210  1.0000
  C   C33       1.0  0.62550  0.99020  0.23543  1.0000
  C   C34       1.0  0.63530  0.62550  0.06877  1.0000
  C   C35       1.0  0.99020  0.36470  0.40210  1.0000
  C   C36       1.0  0.37450  0.00980  0.73543  1.0000
  H   H85       1.0  0.41840  0.41950  0.13050  1.0000
  H   H86       1.0  0.58050  0.99890  0.79717  1.0000
  H   H87       1.0  0.00110  0.58160  0.46383  1.0000
  H   H88       1.0  0.58160  0.58050  0.63050  1.0000
  H   H89       1.0  0.41950  0.00110  0.29717  1.0000
  H   H90       1.0  0.99890  0.41840  0.96383  1.0000
  H   H91       1.0  0.41950  0.41840  0.53617  1.0000
  H   H92       1.0  0.99890  0.58050  0.86950  1.0000
  H   H93       1.0  0.58160  0.00110  0.20283  1.0000
  H   H94       1.0  0.58050  0.58160  0.03617  1.0000
  H   H95       1.0  0.00110  0.41950  0.36950  1.0000
  H   H96       1.0  0.41840  0.99890  0.70283  1.0000
  C   C37       1.0  0.43810  0.32520  0.06180  1.0000
  C   C38       1.0  0.67480  0.11290  0.72847  1.0000
  C   C39       1.0  0.88710  0.56190  0.39513  1.0000
  C   C40       1.0  0.56190  0.67480  0.56180  1.0000
  C   C41       1.0  0.32520  0.88710  0.22847  1.0000
  C   C42       1.0  0.11290  0.43810  0.89513  1.0000
  C   C43       1.0  0.32520  0.43810  0.60487  1.0000
  C   C44       1.0  0.11290  0.67480  0.93820  1.0000
  C   C45       1.0  0.56190  0.88710  0.27153  1.0000
  C   C46       1.0  0.67480  0.56190  0.10487  1.0000
  C   C47       1.0  0.88710  0.32520  0.43820  1.0000
  C   C48       1.0  0.43810  0.11290  0.77153  1.0000
