data_image0
_chemical_formula_structural       O16C4Co2N4C8H4C4H4C4H4C8
_chemical_formula_sum              "O16 C28 Co2 N4 H12"
_cell_length_a       9.764
_cell_length_b       8.9979
_cell_length_c       18.269
_cell_angle_alpha    90
_cell_angle_beta     99.59
_cell_angle_gamma    90

_space_group_name_H-M_alt    "P 1"
_space_group_IT_number       1

loop_
  _space_group_symop_operation_xyz
  'x, y, z'

loop_
  _atom_site_type_symbol
  _atom_site_label
  _atom_site_symmetry_multiplicity
  _atom_site_fract_x
  _atom_site_fract_y
  _atom_site_fract_z
  _atom_site_occupancy
  O   O1        1.0  0.49570  0.96960  0.65700  1.0000
  O   O2        1.0  0.50430  0.96960  0.84300  1.0000
  O   O3        1.0  0.50430  0.03040  0.34300  1.0000
  O   O4        1.0  0.49570  0.03040  0.15700  1.0000
  O   O5        1.0  0.37680  0.92640  0.54228  1.0000
  O   O6        1.0  0.62320  0.92640  0.95772  1.0000
  O   O7        1.0  0.62320  0.07360  0.45772  1.0000
  O   O8        1.0  0.37680  0.07360  0.04228  1.0000
  O   O9        1.0  0.20350  0.40760  0.81280  1.0000
  O   O10       1.0  0.79650  0.40760  0.68720  1.0000
  O   O11       1.0  0.79650  0.59240  0.18720  1.0000
  O   O12       1.0  0.20350  0.59240  0.31280  1.0000
  O   O13       1.0  0.40036  0.28040  0.81264  1.0000
  O   O14       1.0  0.59964  0.28040  0.68736  1.0000
  O   O15       1.0  0.59964  0.71960  0.18736  1.0000
  O   O16       1.0  0.40036  0.71960  0.31264  1.0000
  C   C1        1.0  0.27700  0.31890  0.78499  1.0000
  C   C2        1.0  0.72300  0.31890  0.71501  1.0000
  C   C3        1.0  0.72300  0.68110  0.21501  1.0000
  C   C4        1.0  0.27700  0.68110  0.28499  1.0000
  Co  Co1       1.0  0.50000  0.12260  0.75000  1.0000
  Co  Co2       1.0  0.50000  0.87740  0.25000  1.0000
  N   N1        1.0  0.30780  0.15140  0.68836  1.0000
  N   N2        1.0  0.69220  0.15140  0.81164  1.0000
  N   N3        1.0  0.69220  0.84860  0.31164  1.0000
  N   N4        1.0  0.30780  0.84860  0.18836  1.0000
  C   C5        1.0  0.27600  0.08090  0.62340  1.0000
  C   C6        1.0  0.72400  0.08090  0.87660  1.0000
  C   C7        1.0  0.72400  0.91910  0.37660  1.0000
  C   C8        1.0  0.27600  0.91910  0.12340  1.0000
  C   C9        1.0  0.14850  0.10220  0.57894  1.0000
  C   C10       1.0  0.85150  0.10220  0.92106  1.0000
  C   C11       1.0  0.85150  0.89780  0.42106  1.0000
  C   C12       1.0  0.14850  0.89780  0.07894  1.0000
  H   H1        1.0  0.12620  0.05260  0.53390  1.0000
  H   H2        1.0  0.87380  0.05260  0.96610  1.0000
  H   H3        1.0  0.87380  0.94740  0.46610  1.0000
  H   H4        1.0  0.12620  0.94740  0.03390  1.0000
  C   C13       1.0  0.05440  0.19910  0.60288  1.0000
  C   C14       1.0  0.94560  0.19910  0.89712  1.0000
  C   C15       1.0  0.94560  0.80090  0.39712  1.0000
  C   C16       1.0  0.05440  0.80090  0.10288  1.0000
  H   H5        1.0  0.96710  0.21300  0.57440  1.0000
  H   H6        1.0  0.03290  0.21300  0.92560  1.0000
  H   H7        1.0  0.03290  0.78700  0.42560  1.0000
  H   H8        1.0  0.96710  0.78700  0.07440  1.0000
  C   C17       1.0  0.09090  0.27520  0.66923  1.0000
  C   C18       1.0  0.90910  0.27520  0.83077  1.0000
  C   C19       1.0  0.90910  0.72480  0.33077  1.0000
  C   C20       1.0  0.09090  0.72480  0.16923  1.0000
  H   H9        1.0  0.03010  0.34270  0.68520  1.0000
  H   H10       1.0  0.96990  0.34270  0.81480  1.0000
  H   H11       1.0  0.96990  0.65730  0.31480  1.0000
  H   H12       1.0  0.03010  0.65730  0.18520  1.0000
  C   C21       1.0  0.21980  0.24810  0.71106  1.0000
  C   C22       1.0  0.78020  0.24810  0.78894  1.0000
  C   C23       1.0  0.78020  0.75190  0.28894  1.0000
  C   C24       1.0  0.21980  0.75190  0.21106  1.0000
  C   C25       1.0  0.39220  0.98290  0.60549  1.0000
  C   C26       1.0  0.60780  0.98290  0.89451  1.0000
  C   C27       1.0  0.60780  0.01710  0.39451  1.0000
  C   C28       1.0  0.39220  0.01710  0.10549  1.0000
