data_image0
_chemical_formula_structural       Cd24S16Cl8O64N32H32N48C64H16C16H16C32H16C32H16C32
_chemical_formula_sum              "Cd24 S16 Cl8 O64 N80 H96 C176"
_cell_length_a       24.715
_cell_length_b       24.819
_cell_length_c       18.975
_cell_angle_alpha    90
_cell_angle_beta     90
_cell_angle_gamma    90

_space_group_name_H-M_alt    "P 1"
_space_group_IT_number       1

loop_
  _space_group_symop_operation_xyz
  'x, y, z'

loop_
  _atom_site_type_symbol
  _atom_site_label
  _atom_site_symmetry_multiplicity
  _atom_site_fract_x
  _atom_site_fract_y
  _atom_site_fract_z
  _atom_site_occupancy
  Cd  Cd1       1.0  0.05115  0.94900  0.00000  1.0000
  Cd  Cd2       1.0  0.94885  0.05100  0.00000  1.0000
  Cd  Cd3       1.0  0.05115  0.05100  0.50000  1.0000
  Cd  Cd4       1.0  0.94885  0.94900  0.50000  1.0000
  Cd  Cd5       1.0  0.55115  0.44900  0.00000  1.0000
  Cd  Cd6       1.0  0.44885  0.55100  0.00000  1.0000
  Cd  Cd7       1.0  0.55115  0.55100  0.50000  1.0000
  Cd  Cd8       1.0  0.44885  0.44900  0.50000  1.0000
  Cd  Cd9       1.0  0.20266  0.00000  0.25000  1.0000
  Cd  Cd10      1.0  0.79734  0.00000  0.25000  1.0000
  Cd  Cd11      1.0  0.70266  0.50000  0.25000  1.0000
  Cd  Cd12      1.0  0.29734  0.50000  0.25000  1.0000
  Cd  Cd13      1.0  0.79734  0.00000  0.75000  1.0000
  Cd  Cd14      1.0  0.20266  0.00000  0.75000  1.0000
  Cd  Cd15      1.0  0.29734  0.50000  0.75000  1.0000
  Cd  Cd16      1.0  0.70266  0.50000  0.75000  1.0000
  Cd  Cd17      1.0  0.50000  0.29734  0.25000  1.0000
  Cd  Cd18      1.0  0.50000  0.70266  0.25000  1.0000
  Cd  Cd19      1.0  0.00000  0.79734  0.25000  1.0000
  Cd  Cd20      1.0  0.00000  0.20266  0.25000  1.0000
  Cd  Cd21      1.0  0.50000  0.70266  0.75000  1.0000
  Cd  Cd22      1.0  0.50000  0.29734  0.75000  1.0000
  Cd  Cd23      1.0  0.00000  0.20266  0.75000  1.0000
  Cd  Cd24      1.0  0.00000  0.79734  0.75000  1.0000
  S   S1        1.0  0.34750  0.15260  0.24560  1.0000
  S   S2        1.0  0.65250  0.84740  0.24560  1.0000
  S   S3        1.0  0.34750  0.84740  0.25440  1.0000
  S   S4        1.0  0.65250  0.15260  0.25440  1.0000
  S   S5        1.0  0.84750  0.65260  0.24560  1.0000
  S   S6        1.0  0.15250  0.34740  0.24560  1.0000
  S   S7        1.0  0.84750  0.34740  0.25440  1.0000
  S   S8        1.0  0.15250  0.65260  0.25440  1.0000
  S   S9        1.0  0.65250  0.84740  0.75440  1.0000
  S   S10       1.0  0.34750  0.15260  0.75440  1.0000
  S   S11       1.0  0.65250  0.15260  0.74560  1.0000
  S   S12       1.0  0.34750  0.84740  0.74560  1.0000
  S   S13       1.0  0.15250  0.34740  0.75440  1.0000
  S   S14       1.0  0.84750  0.65260  0.75440  1.0000
  S   S15       1.0  0.15250  0.65260  0.74560  1.0000
  S   S16       1.0  0.84750  0.34740  0.74560  1.0000
  Cl  Cl1       1.0  0.12460  0.87540  0.00000  1.0000
  Cl  Cl2       1.0  0.87540  0.12460  0.00000  1.0000
  Cl  Cl3       1.0  0.12460  0.12460  0.50000  1.0000
  Cl  Cl4       1.0  0.87540  0.87540  0.50000  1.0000
  Cl  Cl5       1.0  0.62460  0.37540  0.00000  1.0000
  Cl  Cl6       1.0  0.37540  0.62460  0.00000  1.0000
  Cl  Cl7       1.0  0.62460  0.62460  0.50000  1.0000
  Cl  Cl8       1.0  0.37540  0.37540  0.50000  1.0000
  O   O1        1.0  0.26910  0.06290  0.22500  1.0000
  O   O2        1.0  0.73090  0.93710  0.22500  1.0000
  O   O3        1.0  0.26910  0.93710  0.27500  1.0000
  O   O4        1.0  0.73090  0.06290  0.27500  1.0000
  O   O5        1.0  0.76910  0.56290  0.22500  1.0000
  O   O6        1.0  0.23090  0.43710  0.22500  1.0000
  O   O7        1.0  0.76910  0.43710  0.27500  1.0000
  O   O8        1.0  0.23090  0.56290  0.27500  1.0000
  O   O9        1.0  0.73090  0.93710  0.77500  1.0000
  O   O10       1.0  0.26910  0.06290  0.77500  1.0000
  O   O11       1.0  0.73090  0.06290  0.72500  1.0000
  O   O12       1.0  0.26910  0.93710  0.72500  1.0000
  O   O13       1.0  0.23090  0.43710  0.77500  1.0000
  O   O14       1.0  0.76910  0.56290  0.77500  1.0000
  O   O15       1.0  0.23090  0.56290  0.72500  1.0000
  O   O16       1.0  0.76910  0.43710  0.72500  1.0000
  O   O17       1.0  0.43710  0.23030  0.22300  1.0000
  O   O18       1.0  0.56290  0.76970  0.22300  1.0000
  O   O19       1.0  0.43710  0.76970  0.27700  1.0000
  O   O20       1.0  0.56290  0.23030  0.27700  1.0000
  O   O21       1.0  0.93710  0.73030  0.22300  1.0000
  O   O22       1.0  0.06290  0.26970  0.22300  1.0000
  O   O23       1.0  0.93710  0.26970  0.27700  1.0000
  O   O24       1.0  0.06290  0.73030  0.27700  1.0000
  O   O25       1.0  0.56290  0.76970  0.77700  1.0000
  O   O26       1.0  0.43710  0.23030  0.77700  1.0000
  O   O27       1.0  0.56290  0.23030  0.72300  1.0000
  O   O28       1.0  0.43710  0.76970  0.72300  1.0000
  O   O29       1.0  0.06290  0.26970  0.77700  1.0000
  O   O30       1.0  0.93710  0.73030  0.77700  1.0000
  O   O31       1.0  0.06290  0.73030  0.72300  1.0000
  O   O32       1.0  0.93710  0.26970  0.72300  1.0000
  O   O33       1.0  0.42190  0.28100  0.31650  1.0000
  O   O34       1.0  0.57810  0.71900  0.31650  1.0000
  O   O35       1.0  0.42190  0.71900  0.18350  1.0000
  O   O36       1.0  0.57810  0.28100  0.18350  1.0000
  O   O37       1.0  0.92190  0.78100  0.31650  1.0000
  O   O38       1.0  0.07810  0.21900  0.31650  1.0000
  O   O39       1.0  0.92190  0.21900  0.18350  1.0000
  O   O40       1.0  0.07810  0.78100  0.18350  1.0000
  O   O41       1.0  0.57810  0.71900  0.68350  1.0000
  O   O42       1.0  0.42190  0.28100  0.68350  1.0000
  O   O43       1.0  0.57810  0.28100  0.81650  1.0000
  O   O44       1.0  0.42190  0.71900  0.81650  1.0000
  O   O45       1.0  0.07810  0.21900  0.68350  1.0000
  O   O46       1.0  0.92190  0.78100  0.68350  1.0000
  O   O47       1.0  0.07810  0.78100  0.81650  1.0000
  O   O48       1.0  0.92190  0.21900  0.81650  1.0000
  O   O49       1.0  0.21820  0.07770  0.31650  1.0000
  O   O50       1.0  0.78180  0.92230  0.31650  1.0000
  O   O51       1.0  0.21820  0.92230  0.18350  1.0000
  O   O52       1.0  0.78180  0.07770  0.18350  1.0000
  O   O53       1.0  0.71820  0.57770  0.31650  1.0000
  O   O54       1.0  0.28180  0.42230  0.31650  1.0000
  O   O55       1.0  0.71820  0.42230  0.18350  1.0000
  O   O56       1.0  0.28180  0.57770  0.18350  1.0000
  O   O57       1.0  0.78180  0.92230  0.68350  1.0000
  O   O58       1.0  0.21820  0.07770  0.68350  1.0000
  O   O59       1.0  0.78180  0.07770  0.81650  1.0000
  O   O60       1.0  0.21820  0.92230  0.81650  1.0000
  O   O61       1.0  0.28180  0.42230  0.68350  1.0000
  O   O62       1.0  0.71820  0.57770  0.68350  1.0000
  O   O63       1.0  0.28180  0.57770  0.81650  1.0000
  O   O64       1.0  0.71820  0.42230  0.81650  1.0000
  N   N1        1.0  0.13670  0.03080  0.17610  1.0000
  N   N2        1.0  0.86330  0.96920  0.17610  1.0000
  N   N3        1.0  0.13670  0.96920  0.32390  1.0000
  N   N4        1.0  0.86330  0.03080  0.32390  1.0000
  N   N5        1.0  0.63670  0.53080  0.17610  1.0000
  N   N6        1.0  0.36330  0.46920  0.17610  1.0000
  N   N7        1.0  0.63670  0.46920  0.32390  1.0000
  N   N8        1.0  0.36330  0.53080  0.32390  1.0000
  N   N9        1.0  0.86330  0.96920  0.82390  1.0000
  N   N10       1.0  0.13670  0.03080  0.82390  1.0000
  N   N11       1.0  0.86330  0.03080  0.67610  1.0000
  N   N12       1.0  0.13670  0.96920  0.67610  1.0000
  N   N13       1.0  0.36330  0.46920  0.82390  1.0000
  N   N14       1.0  0.63670  0.53080  0.82390  1.0000
  N   N15       1.0  0.36330  0.53080  0.67610  1.0000
  N   N16       1.0  0.63670  0.46920  0.67610  1.0000
  N   N17       1.0  0.11820  0.11720  0.25880  1.0000
  N   N18       1.0  0.88180  0.88280  0.25880  1.0000
  N   N19       1.0  0.11820  0.88280  0.24120  1.0000
  N   N20       1.0  0.88180  0.11720  0.24120  1.0000
  N   N21       1.0  0.61820  0.61720  0.25880  1.0000
  N   N22       1.0  0.38180  0.38280  0.25880  1.0000
  N   N23       1.0  0.61820  0.38280  0.24120  1.0000
  N   N24       1.0  0.38180  0.61720  0.24120  1.0000
  N   N25       1.0  0.88180  0.88280  0.74120  1.0000
  N   N26       1.0  0.11820  0.11720  0.74120  1.0000
  N   N27       1.0  0.88180  0.11720  0.75880  1.0000
  N   N28       1.0  0.11820  0.88280  0.75880  1.0000
  N   N29       1.0  0.38180  0.38280  0.74120  1.0000
  N   N30       1.0  0.61820  0.61720  0.74120  1.0000
  N   N31       1.0  0.38180  0.61720  0.75880  1.0000
  N   N32       1.0  0.61820  0.38280  0.75880  1.0000
  H   H1        1.0  0.09800  0.14540  0.25980  1.0000
  H   H2        1.0  0.90200  0.85460  0.25980  1.0000
  H   H3        1.0  0.09800  0.85460  0.24020  1.0000
  H   H4        1.0  0.90200  0.14540  0.24020  1.0000
  H   H5        1.0  0.59800  0.64540  0.25980  1.0000
  H   H6        1.0  0.40200  0.35460  0.25980  1.0000
  H   H7        1.0  0.59800  0.35460  0.24020  1.0000
  H   H8        1.0  0.40200  0.64540  0.24020  1.0000
  H   H9        1.0  0.90200  0.85460  0.74020  1.0000
  H   H10       1.0  0.09800  0.14540  0.74020  1.0000
  H   H11       1.0  0.90200  0.14540  0.75980  1.0000
  H   H12       1.0  0.09800  0.85460  0.75980  1.0000
  H   H13       1.0  0.40200  0.35460  0.74020  1.0000
  H   H14       1.0  0.59800  0.64540  0.74020  1.0000
  H   H15       1.0  0.40200  0.64540  0.75980  1.0000
  H   H16       1.0  0.59800  0.35460  0.75980  1.0000
  H   H17       1.0  0.14310  0.11290  0.29010  1.0000
  H   H18       1.0  0.85690  0.88710  0.29010  1.0000
  H   H19       1.0  0.14310  0.88710  0.20990  1.0000
  H   H20       1.0  0.85690  0.11290  0.20990  1.0000
  H   H21       1.0  0.64310  0.61290  0.29010  1.0000
  H   H22       1.0  0.35690  0.38710  0.29010  1.0000
  H   H23       1.0  0.64310  0.38710  0.20990  1.0000
  H   H24       1.0  0.35690  0.61290  0.20990  1.0000
  H   H25       1.0  0.85690  0.88710  0.70990  1.0000
  H   H26       1.0  0.14310  0.11290  0.70990  1.0000
  H   H27       1.0  0.85690  0.11290  0.79010  1.0000
  H   H28       1.0  0.14310  0.88710  0.79010  1.0000
  H   H29       1.0  0.35690  0.38710  0.70990  1.0000
  H   H30       1.0  0.64310  0.61290  0.70990  1.0000
  H   H31       1.0  0.35690  0.61290  0.79010  1.0000
  H   H32       1.0  0.64310  0.38710  0.79010  1.0000
  N   N33       1.0  0.01160  0.07990  0.08540  1.0000
  N   N34       1.0  0.98840  0.92010  0.08540  1.0000
  N   N35       1.0  0.01160  0.92010  0.41460  1.0000
  N   N36       1.0  0.98840  0.07990  0.41460  1.0000
  N   N37       1.0  0.51160  0.57990  0.08540  1.0000
  N   N38       1.0  0.48840  0.42010  0.08540  1.0000
  N   N39       1.0  0.51160  0.42010  0.41460  1.0000
  N   N40       1.0  0.48840  0.57990  0.41460  1.0000
  N   N41       1.0  0.98840  0.92010  0.91460  1.0000
  N   N42       1.0  0.01160  0.07990  0.91460  1.0000
  N   N43       1.0  0.98840  0.07990  0.58540  1.0000
  N   N44       1.0  0.01160  0.92010  0.58540  1.0000
  N   N45       1.0  0.48840  0.42010  0.91460  1.0000
  N   N46       1.0  0.51160  0.57990  0.91460  1.0000
  N   N47       1.0  0.48840  0.57990  0.58540  1.0000
  N   N48       1.0  0.51160  0.42010  0.58540  1.0000
  N   N49       1.0  0.03070  0.13690  0.17470  1.0000
  N   N50       1.0  0.96930  0.86310  0.17470  1.0000
  N   N51       1.0  0.03070  0.86310  0.32530  1.0000
  N   N52       1.0  0.96930  0.13690  0.32530  1.0000
  N   N53       1.0  0.53070  0.63690  0.17470  1.0000
  N   N54       1.0  0.46930  0.36310  0.17470  1.0000
  N   N55       1.0  0.53070  0.36310  0.32530  1.0000
  N   N56       1.0  0.46930  0.63690  0.32530  1.0000
  N   N57       1.0  0.96930  0.86310  0.82530  1.0000
  N   N58       1.0  0.03070  0.13690  0.82530  1.0000
  N   N59       1.0  0.96930  0.13690  0.67470  1.0000
  N   N60       1.0  0.03070  0.86310  0.67470  1.0000
  N   N61       1.0  0.46930  0.36310  0.82530  1.0000
  N   N62       1.0  0.53070  0.63690  0.82530  1.0000
  N   N63       1.0  0.46930  0.63690  0.67470  1.0000
  N   N64       1.0  0.53070  0.36310  0.67470  1.0000
  N   N65       1.0  0.07970  0.01120  0.08490  1.0000
  N   N66       1.0  0.92030  0.98880  0.08490  1.0000
  N   N67       1.0  0.07970  0.98880  0.41510  1.0000
  N   N68       1.0  0.92030  0.01120  0.41510  1.0000
  N   N69       1.0  0.57970  0.51120  0.08490  1.0000
  N   N70       1.0  0.42030  0.48880  0.08490  1.0000
  N   N71       1.0  0.57970  0.48880  0.41510  1.0000
  N   N72       1.0  0.42030  0.51120  0.41510  1.0000
  N   N73       1.0  0.92030  0.98880  0.91510  1.0000
  N   N74       1.0  0.07970  0.01120  0.91510  1.0000
  N   N75       1.0  0.92030  0.01120  0.58490  1.0000
  N   N76       1.0  0.07970  0.98880  0.58490  1.0000
  N   N77       1.0  0.42030  0.48880  0.91510  1.0000
  N   N78       1.0  0.57970  0.51120  0.91510  1.0000
  N   N79       1.0  0.42030  0.51120  0.58490  1.0000
  N   N80       1.0  0.57970  0.48880  0.58490  1.0000
  C   C1        1.0  0.11030  0.07660  0.20420  1.0000
  C   C2        1.0  0.88970  0.92340  0.20420  1.0000
  C   C3        1.0  0.11030  0.92340  0.29580  1.0000
  C   C4        1.0  0.88970  0.07660  0.29580  1.0000
  C   C5        1.0  0.61030  0.57660  0.20420  1.0000
  C   C6        1.0  0.38970  0.42340  0.20420  1.0000
  C   C7        1.0  0.61030  0.42340  0.29580  1.0000
  C   C8        1.0  0.38970  0.57660  0.29580  1.0000
  C   C9        1.0  0.88970  0.92340  0.79580  1.0000
  C   C10       1.0  0.11030  0.07660  0.79580  1.0000
  C   C11       1.0  0.88970  0.07660  0.70420  1.0000
  C   C12       1.0  0.11030  0.92340  0.70420  1.0000
  C   C13       1.0  0.38970  0.42340  0.79580  1.0000
  C   C14       1.0  0.61030  0.57660  0.79580  1.0000
  C   C15       1.0  0.38970  0.57660  0.70420  1.0000
  C   C16       1.0  0.61030  0.42340  0.70420  1.0000
  C   C17       1.0  0.06840  0.09810  0.16680  1.0000
  C   C18       1.0  0.93160  0.90190  0.16680  1.0000
  C   C19       1.0  0.06840  0.90190  0.33320  1.0000
  C   C20       1.0  0.93160  0.09810  0.33320  1.0000
  C   C21       1.0  0.56840  0.59810  0.16680  1.0000
  C   C22       1.0  0.43160  0.40190  0.16680  1.0000
  C   C23       1.0  0.56840  0.40190  0.33320  1.0000
  C   C24       1.0  0.43160  0.59810  0.33320  1.0000
  C   C25       1.0  0.93160  0.90190  0.83320  1.0000
  C   C26       1.0  0.06840  0.09810  0.83320  1.0000
  C   C27       1.0  0.93160  0.09810  0.66680  1.0000
  C   C28       1.0  0.06840  0.90190  0.66680  1.0000
  C   C29       1.0  0.43160  0.40190  0.83320  1.0000
  C   C30       1.0  0.56840  0.59810  0.83320  1.0000
  C   C31       1.0  0.43160  0.59810  0.66680  1.0000
  C   C32       1.0  0.56840  0.40190  0.66680  1.0000
  C   C33       1.0  0.05840  0.05640  0.11080  1.0000
  C   C34       1.0  0.94160  0.94360  0.11080  1.0000
  C   C35       1.0  0.05840  0.94360  0.38920  1.0000
  C   C36       1.0  0.94160  0.05640  0.38920  1.0000
  C   C37       1.0  0.55840  0.55640  0.11080  1.0000
  C   C38       1.0  0.44160  0.44360  0.11080  1.0000
  C   C39       1.0  0.55840  0.44360  0.38920  1.0000
  C   C40       1.0  0.44160  0.55640  0.38920  1.0000
  C   C41       1.0  0.94160  0.94360  0.88920  1.0000
  C   C42       1.0  0.05840  0.05640  0.88920  1.0000
  C   C43       1.0  0.94160  0.05640  0.61080  1.0000
  C   C44       1.0  0.05840  0.94360  0.61080  1.0000
  C   C45       1.0  0.44160  0.44360  0.88920  1.0000
  C   C46       1.0  0.55840  0.55640  0.88920  1.0000
  C   C47       1.0  0.44160  0.55640  0.61080  1.0000
  C   C48       1.0  0.55840  0.44360  0.61080  1.0000
  C   C49       1.0  0.12440  0.00090  0.12440  1.0000
  C   C50       1.0  0.87560  0.99910  0.12440  1.0000
  C   C51       1.0  0.12440  0.99910  0.37560  1.0000
  C   C52       1.0  0.87560  0.00090  0.37560  1.0000
  C   C53       1.0  0.62440  0.50090  0.12440  1.0000
  C   C54       1.0  0.37560  0.49910  0.12440  1.0000
  C   C55       1.0  0.62440  0.49910  0.37560  1.0000
  C   C56       1.0  0.37560  0.50090  0.37560  1.0000
  C   C57       1.0  0.87560  0.99910  0.87560  1.0000
  C   C58       1.0  0.12440  0.00090  0.87560  1.0000
  C   C59       1.0  0.87560  0.00090  0.62440  1.0000
  C   C60       1.0  0.12440  0.99910  0.62440  1.0000
  C   C61       1.0  0.37560  0.49910  0.87560  1.0000
  C   C62       1.0  0.62440  0.50090  0.87560  1.0000
  C   C63       1.0  0.37560  0.50090  0.62440  1.0000
  C   C64       1.0  0.62440  0.49910  0.62440  1.0000
  H   H33       1.0  0.14620  0.97160  0.11330  1.0000
  H   H34       1.0  0.85380  0.02840  0.11330  1.0000
  H   H35       1.0  0.14620  0.02840  0.38670  1.0000
  H   H36       1.0  0.85380  0.97160  0.38670  1.0000
  H   H37       1.0  0.64620  0.47160  0.11330  1.0000
  H   H38       1.0  0.35380  0.52840  0.11330  1.0000
  H   H39       1.0  0.64620  0.52840  0.38670  1.0000
  H   H40       1.0  0.35380  0.47160  0.38670  1.0000
  H   H41       1.0  0.85380  0.02840  0.88670  1.0000
  H   H42       1.0  0.14620  0.97160  0.88670  1.0000
  H   H43       1.0  0.85380  0.97160  0.61330  1.0000
  H   H44       1.0  0.14620  0.02840  0.61330  1.0000
  H   H45       1.0  0.35380  0.52840  0.88670  1.0000
  H   H46       1.0  0.64620  0.47160  0.88670  1.0000
  H   H47       1.0  0.35380  0.47160  0.61330  1.0000
  H   H48       1.0  0.64620  0.52840  0.61330  1.0000
  C   C65       1.0  0.99360  0.12540  0.11940  1.0000
  C   C66       1.0  0.00640  0.87460  0.11940  1.0000
  C   C67       1.0  0.99360  0.87460  0.38060  1.0000
  C   C68       1.0  0.00640  0.12540  0.38060  1.0000
  C   C69       1.0  0.49360  0.62540  0.11940  1.0000
  C   C70       1.0  0.50640  0.37460  0.11940  1.0000
  C   C71       1.0  0.49360  0.37460  0.38060  1.0000
  C   C72       1.0  0.50640  0.62540  0.38060  1.0000
  C   C73       1.0  0.00640  0.87460  0.88060  1.0000
  C   C74       1.0  0.99360  0.12540  0.88060  1.0000
  C   C75       1.0  0.00640  0.12540  0.61940  1.0000
  C   C76       1.0  0.99360  0.87460  0.61940  1.0000
  C   C77       1.0  0.50640  0.37460  0.88060  1.0000
  C   C78       1.0  0.49360  0.62540  0.88060  1.0000
  C   C79       1.0  0.50640  0.62540  0.61940  1.0000
  C   C80       1.0  0.49360  0.37460  0.61940  1.0000
  H   H49       1.0  0.96280  0.14510  0.10830  1.0000
  H   H50       1.0  0.03720  0.85490  0.10830  1.0000
  H   H51       1.0  0.96280  0.85490  0.39170  1.0000
  H   H52       1.0  0.03720  0.14510  0.39170  1.0000
  H   H53       1.0  0.46280  0.64510  0.10830  1.0000
  H   H54       1.0  0.53720  0.35490  0.10830  1.0000
  H   H55       1.0  0.46280  0.35490  0.39170  1.0000
  H   H56       1.0  0.53720  0.64510  0.39170  1.0000
  H   H57       1.0  0.03720  0.85490  0.89170  1.0000
  H   H58       1.0  0.96280  0.14510  0.89170  1.0000
  H   H59       1.0  0.03720  0.14510  0.60830  1.0000
  H   H60       1.0  0.96280  0.85490  0.60830  1.0000
  H   H61       1.0  0.53720  0.35490  0.89170  1.0000
  H   H62       1.0  0.46280  0.64510  0.89170  1.0000
  H   H63       1.0  0.53720  0.64510  0.60830  1.0000
  H   H64       1.0  0.46280  0.35490  0.60830  1.0000
  C   C81       1.0  0.29120  0.13890  0.29810  1.0000
  C   C82       1.0  0.70880  0.86110  0.29810  1.0000
  C   C83       1.0  0.29120  0.86110  0.20190  1.0000
  C   C84       1.0  0.70880  0.13890  0.20190  1.0000
  C   C85       1.0  0.79120  0.63890  0.29810  1.0000
  C   C86       1.0  0.20880  0.36110  0.29810  1.0000
  C   C87       1.0  0.79120  0.36110  0.20190  1.0000
  C   C88       1.0  0.20880  0.63890  0.20190  1.0000
  C   C89       1.0  0.70880  0.86110  0.70190  1.0000
  C   C90       1.0  0.29120  0.13890  0.70190  1.0000
  C   C91       1.0  0.70880  0.13890  0.79810  1.0000
  C   C92       1.0  0.29120  0.86110  0.79810  1.0000
  C   C93       1.0  0.20880  0.36110  0.70190  1.0000
  C   C94       1.0  0.79120  0.63890  0.70190  1.0000
  C   C95       1.0  0.20880  0.63890  0.79810  1.0000
  C   C96       1.0  0.79120  0.36110  0.79810  1.0000
  C   C97       1.0  0.28500  0.17750  0.34560  1.0000
  C   C98       1.0  0.71500  0.82250  0.34560  1.0000
  C   C99       1.0  0.28500  0.82250  0.15440  1.0000
  C   C100      1.0  0.71500  0.17750  0.15440  1.0000
  C   C101      1.0  0.78500  0.67750  0.34560  1.0000
  C   C102      1.0  0.21500  0.32250  0.34560  1.0000
  C   C103      1.0  0.78500  0.32250  0.15440  1.0000
  C   C104      1.0  0.21500  0.67750  0.15440  1.0000
  C   C105      1.0  0.71500  0.82250  0.65440  1.0000
  C   C106      1.0  0.28500  0.17750  0.65440  1.0000
  C   C107      1.0  0.71500  0.17750  0.84560  1.0000
  C   C108      1.0  0.28500  0.82250  0.84560  1.0000
  C   C109      1.0  0.21500  0.32250  0.65440  1.0000
  C   C110      1.0  0.78500  0.67750  0.65440  1.0000
  C   C111      1.0  0.21500  0.67750  0.84560  1.0000
  C   C112      1.0  0.78500  0.32250  0.84560  1.0000
  H   H65       1.0  0.25610  0.17770  0.37690  1.0000
  H   H66       1.0  0.74390  0.82230  0.37690  1.0000
  H   H67       1.0  0.25610  0.82230  0.12310  1.0000
  H   H68       1.0  0.74390  0.17770  0.12310  1.0000
  H   H69       1.0  0.75610  0.67770  0.37690  1.0000
  H   H70       1.0  0.24390  0.32230  0.37690  1.0000
  H   H71       1.0  0.75610  0.32230  0.12310  1.0000
  H   H72       1.0  0.24390  0.67770  0.12310  1.0000
  H   H73       1.0  0.74390  0.82230  0.62310  1.0000
  H   H74       1.0  0.25610  0.17770  0.62310  1.0000
  H   H75       1.0  0.74390  0.17770  0.87690  1.0000
  H   H76       1.0  0.25610  0.82230  0.87690  1.0000
  H   H77       1.0  0.24390  0.32230  0.62310  1.0000
  H   H78       1.0  0.75610  0.67770  0.62310  1.0000
  H   H79       1.0  0.24390  0.67770  0.87690  1.0000
  H   H80       1.0  0.75610  0.32230  0.87690  1.0000
  C   C113      1.0  0.36240  0.20900  0.29790  1.0000
  C   C114      1.0  0.63760  0.79100  0.29790  1.0000
  C   C115      1.0  0.36240  0.79100  0.20210  1.0000
  C   C116      1.0  0.63760  0.20900  0.20210  1.0000
  C   C117      1.0  0.86240  0.70900  0.29790  1.0000
  C   C118      1.0  0.13760  0.29100  0.29790  1.0000
  C   C119      1.0  0.86240  0.29100  0.20210  1.0000
  C   C120      1.0  0.13760  0.70900  0.20210  1.0000
  C   C121      1.0  0.63760  0.79100  0.70210  1.0000
  C   C122      1.0  0.36240  0.20900  0.70210  1.0000
  C   C123      1.0  0.63760  0.20900  0.79790  1.0000
  C   C124      1.0  0.36240  0.79100  0.79790  1.0000
  C   C125      1.0  0.13760  0.29100  0.70210  1.0000
  C   C126      1.0  0.86240  0.70900  0.70210  1.0000
  C   C127      1.0  0.13760  0.70900  0.79790  1.0000
  C   C128      1.0  0.86240  0.29100  0.79790  1.0000
  C   C129      1.0  0.32330  0.21660  0.34620  1.0000
  C   C130      1.0  0.67670  0.78340  0.34620  1.0000
  C   C131      1.0  0.32330  0.78340  0.15380  1.0000
  C   C132      1.0  0.67670  0.21660  0.15380  1.0000
  C   C133      1.0  0.82330  0.71660  0.34620  1.0000
  C   C134      1.0  0.17670  0.28340  0.34620  1.0000
  C   C135      1.0  0.82330  0.28340  0.15380  1.0000
  C   C136      1.0  0.17670  0.71660  0.15380  1.0000
  C   C137      1.0  0.67670  0.78340  0.65380  1.0000
  C   C138      1.0  0.32330  0.21660  0.65380  1.0000
  C   C139      1.0  0.67670  0.21660  0.84620  1.0000
  C   C140      1.0  0.32330  0.78340  0.84620  1.0000
  C   C141      1.0  0.17670  0.28340  0.65380  1.0000
  C   C142      1.0  0.82330  0.71660  0.65380  1.0000
  C   C143      1.0  0.17670  0.71660  0.84620  1.0000
  C   C144      1.0  0.82330  0.28340  0.84620  1.0000
  H   H81       1.0  0.32260  0.24570  0.37690  1.0000
  H   H82       1.0  0.67740  0.75430  0.37690  1.0000
  H   H83       1.0  0.32260  0.75430  0.12310  1.0000
  H   H84       1.0  0.67740  0.24570  0.12310  1.0000
  H   H85       1.0  0.82260  0.74570  0.37690  1.0000
  H   H86       1.0  0.17740  0.25430  0.37690  1.0000
  H   H87       1.0  0.82260  0.25430  0.12310  1.0000
  H   H88       1.0  0.17740  0.74570  0.12310  1.0000
  H   H89       1.0  0.67740  0.75430  0.62310  1.0000
  H   H90       1.0  0.32260  0.24570  0.62310  1.0000
  H   H91       1.0  0.67740  0.24570  0.87690  1.0000
  H   H92       1.0  0.32260  0.75430  0.87690  1.0000
  H   H93       1.0  0.17740  0.25430  0.62310  1.0000
  H   H94       1.0  0.82260  0.74570  0.62310  1.0000
  H   H95       1.0  0.17740  0.74570  0.87690  1.0000
  H   H96       1.0  0.82260  0.25430  0.87690  1.0000
  C   C145      1.0  0.25650  0.08980  0.27980  1.0000
  C   C146      1.0  0.74350  0.91020  0.27980  1.0000
  C   C147      1.0  0.25650  0.91020  0.22020  1.0000
  C   C148      1.0  0.74350  0.08980  0.22020  1.0000
  C   C149      1.0  0.75650  0.58980  0.27980  1.0000
  C   C150      1.0  0.24350  0.41020  0.27980  1.0000
  C   C151      1.0  0.75650  0.41020  0.22020  1.0000
  C   C152      1.0  0.24350  0.58980  0.22020  1.0000
  C   C153      1.0  0.74350  0.91020  0.72020  1.0000
  C   C154      1.0  0.25650  0.08980  0.72020  1.0000
  C   C155      1.0  0.74350  0.08980  0.77980  1.0000
  C   C156      1.0  0.25650  0.91020  0.77980  1.0000
  C   C157      1.0  0.24350  0.41020  0.72020  1.0000
  C   C158      1.0  0.75650  0.58980  0.72020  1.0000
  C   C159      1.0  0.24350  0.58980  0.77980  1.0000
  C   C160      1.0  0.75650  0.41020  0.77980  1.0000
  C   C161      1.0  0.40860  0.24260  0.28100  1.0000
  C   C162      1.0  0.59140  0.75740  0.28100  1.0000
  C   C163      1.0  0.40860  0.75740  0.21900  1.0000
  C   C164      1.0  0.59140  0.24260  0.21900  1.0000
  C   C165      1.0  0.90860  0.74260  0.28100  1.0000
  C   C166      1.0  0.09140  0.25740  0.28100  1.0000
  C   C167      1.0  0.90860  0.25740  0.21900  1.0000
  C   C168      1.0  0.09140  0.74260  0.21900  1.0000
  C   C169      1.0  0.59140  0.75740  0.71900  1.0000
  C   C170      1.0  0.40860  0.24260  0.71900  1.0000
  C   C171      1.0  0.59140  0.24260  0.78100  1.0000
  C   C172      1.0  0.40860  0.75740  0.78100  1.0000
  C   C173      1.0  0.09140  0.25740  0.71900  1.0000
  C   C174      1.0  0.90860  0.74260  0.71900  1.0000
  C   C175      1.0  0.09140  0.74260  0.78100  1.0000
  C   C176      1.0  0.90860  0.25740  0.78100  1.0000
