data_image0
_chemical_formula_structural       In2O20C10
_chemical_formula_sum              "In2 O20 C10"
_cell_length_a       8.725
_cell_length_b       9.17
_cell_length_c       9.901
_cell_angle_alpha    98.101
_cell_angle_beta     97.068
_cell_angle_gamma    102.403

_space_group_name_H-M_alt    "P 1"
_space_group_IT_number       1

loop_
  _space_group_symop_operation_xyz
  'x, y, z'

loop_
  _atom_site_type_symbol
  _atom_site_label
  _atom_site_symmetry_multiplicity
  _atom_site_fract_x
  _atom_site_fract_y
  _atom_site_fract_z
  _atom_site_occupancy
  In  In1       1.0  0.27996  0.19088  0.91709  1.0000
  In  In2       1.0  0.72004  0.80912  0.08291  1.0000
  O   O1        1.0  0.99790  0.38600  0.65240  1.0000
  O   O2        1.0  0.00210  0.61400  0.34760  1.0000
  O   O3        1.0  0.11400  0.17830  0.49530  1.0000
  O   O4        1.0  0.88600  0.82170  0.50470  1.0000
  O   O5        1.0  0.11930  0.32790  0.84210  1.0000
  O   O6        1.0  0.88070  0.67210  0.15790  1.0000
  O   O7        1.0  0.22890  0.12450  0.68810  1.0000
  O   O8        1.0  0.77110  0.87550  0.31190  1.0000
  O   O9        1.0  0.45380  0.38790  0.83860  1.0000
  O   O10       1.0  0.54620  0.61210  0.16140  1.0000
  O   O11       1.0  0.61150  0.62070  0.90800  1.0000
  O   O12       1.0  0.38850  0.37930  0.09200  1.0000
  O   O13       1.0  0.37370  0.07360  0.09680  1.0000
  O   O14       1.0  0.62630  0.92640  0.90320  1.0000
  O   O15       1.0  0.52290  0.91090  0.14260  1.0000
  O   O16       1.0  0.47710  0.08910  0.85740  1.0000
  O   O17       1.0  0.09620  0.18790  0.06570  1.0000
  O   O18       1.0  0.90380  0.81210  0.93430  1.0000
  O   O19       1.0  0.88170  0.04360  0.12220  1.0000
  O   O20       1.0  0.11830  0.95640  0.87780  1.0000
  C   C1        1.0  0.07940  0.31290  0.71150  1.0000
  C   C2        1.0  0.92060  0.68710  0.28850  1.0000
  C   C3        1.0  0.14550  0.19470  0.62350  1.0000
  C   C4        1.0  0.85450  0.80530  0.37650  1.0000
  C   C5        1.0  0.52000  0.50270  0.92760  1.0000
  C   C6        1.0  0.48000  0.49730  0.07240  1.0000
  C   C7        1.0  0.46930  0.99560  0.06880  1.0000
  C   C8        1.0  0.53070  0.00440  0.93120  1.0000
  C   C9        1.0  0.99470  0.06630  0.05420  1.0000
  C   C10       1.0  0.00530  0.93370  0.94580  1.0000
