data_image0
_chemical_formula_structural       Zn4O36H4O4H4C12H4C8H4C8H4C12H4C16H4C4H4C4
_chemical_formula_sum              "Zn4 O40 H32 C64"
_cell_length_a       14.0354
_cell_length_b       14.1131
_cell_length_c       22.598
_cell_angle_alpha    90
_cell_angle_beta     90
_cell_angle_gamma    90

_space_group_name_H-M_alt    "P 1"
_space_group_IT_number       1

loop_
  _space_group_symop_operation_xyz
  'x, y, z'

loop_
  _atom_site_type_symbol
  _atom_site_label
  _atom_site_symmetry_multiplicity
  _atom_site_fract_x
  _atom_site_fract_y
  _atom_site_fract_z
  _atom_site_occupancy
  Zn  Zn1       1.0  0.75531  0.49855  0.24569  1.0000
  Zn  Zn2       1.0  0.74469  0.50145  0.74569  1.0000
  Zn  Zn3       1.0  0.24469  0.99855  0.25431  1.0000
  Zn  Zn4       1.0  0.25531  0.00145  0.75431  1.0000
  O   O1        1.0  0.84360  0.57331  0.29506  1.0000
  O   O2        1.0  0.65640  0.42669  0.79506  1.0000
  O   O3        1.0  0.15640  0.07331  0.20494  1.0000
  O   O4        1.0  0.34360  0.92669  0.70494  1.0000
  O   O5        1.0  0.92245  0.63722  0.21930  1.0000
  O   O6        1.0  0.57755  0.36278  0.71930  1.0000
  O   O7        1.0  0.07755  0.13722  0.28070  1.0000
  O   O8        1.0  0.42245  0.86278  0.78070  1.0000
  O   O9        1.0  0.68771  0.42806  0.31104  1.0000
  O   O10       1.0  0.81229  0.57194  0.81104  1.0000
  O   O11       1.0  0.31229  0.92806  0.18896  1.0000
  O   O12       1.0  0.18771  0.07194  0.68896  1.0000
  O   O13       1.0  0.63054  0.37255  0.22686  1.0000
  O   O14       1.0  0.86946  0.62745  0.72686  1.0000
  O   O15       1.0  0.36946  0.87255  0.27314  1.0000
  O   O16       1.0  0.13054  0.12745  0.77314  1.0000
  O   O17       1.0  0.31677  0.07859  0.30920  1.0000
  O   O18       1.0  0.18323  0.92141  0.80920  1.0000
  O   O19       1.0  0.68323  0.57859  0.19080  1.0000
  O   O20       1.0  0.81677  0.42141  0.69080  1.0000
  O   O21       1.0  0.37169  0.13983  0.22477  1.0000
  O   O22       1.0  0.12831  0.86017  0.72477  1.0000
  O   O23       1.0  0.62831  0.63983  0.27523  1.0000
  O   O24       1.0  0.87169  0.36017  0.77523  1.0000
  O   O25       1.0  0.14986  0.89802  0.27374  1.0000
  O   O26       1.0  0.35014  0.10198  0.77374  1.0000
  O   O27       1.0  0.85014  0.39802  0.22626  1.0000
  O   O28       1.0  0.64986  0.60198  0.72626  1.0000
  O   O29       1.0  0.19646  0.91360  0.36716  1.0000
  O   O30       1.0  0.30354  0.08640  0.86716  1.0000
  O   O31       1.0  0.80354  0.41360  0.13284  1.0000
  O   O32       1.0  0.69646  0.58640  0.63284  1.0000
  O   O33       1.0  0.03926  0.64456  0.47428  1.0000
  O   O34       1.0  0.46074  0.35544  0.97428  1.0000
  O   O35       1.0  0.96074  0.14456  0.02572  1.0000
  O   O36       1.0  0.53926  0.85544  0.52572  1.0000
  H   H1        1.0  0.01170  0.59180  0.47640  1.0000
  H   H2        1.0  0.48830  0.40820  0.97640  1.0000
  H   H3        1.0  0.98830  0.09180  0.02360  1.0000
  H   H4        1.0  0.51170  0.90820  0.52360  1.0000
  O   O37       1.0  0.51661  0.24077  0.46736  1.0000
  O   O38       1.0  0.98339  0.75923  0.96736  1.0000
  O   O39       1.0  0.48339  0.74077  0.03264  1.0000
  O   O40       1.0  0.01661  0.25923  0.53264  1.0000
  H   H5        1.0  0.46970  0.21150  0.48140  1.0000
  H   H6        1.0  0.03030  0.78850  0.98140  1.0000
  H   H7        1.0  0.53030  0.71150  0.01860  1.0000
  H   H8        1.0  0.96970  0.28850  0.51860  1.0000
  C   C1        1.0  0.90990  0.62177  0.27269  1.0000
  C   C2        1.0  0.59010  0.37823  0.77269  1.0000
  C   C3        1.0  0.09010  0.12177  0.22731  1.0000
  C   C4        1.0  0.40990  0.87823  0.72731  1.0000
  C   C5        1.0  0.97648  0.66674  0.31741  1.0000
  C   C6        1.0  0.52352  0.33326  0.81741  1.0000
  C   C7        1.0  0.02352  0.16674  0.18259  1.0000
  C   C8        1.0  0.47648  0.83326  0.68259  1.0000
  C   C9        1.0  0.97763  0.63265  0.37543  1.0000
  C   C10       1.0  0.52237  0.36735  0.87543  1.0000
  C   C11       1.0  0.02237  0.13265  0.12457  1.0000
  C   C12       1.0  0.47763  0.86735  0.62457  1.0000
  H   H9        1.0  0.93900  0.58010  0.38620  1.0000
  H   H10       1.0  0.56100  0.41990  0.88620  1.0000
  H   H11       1.0  0.06100  0.08010  0.11380  1.0000
  H   H12       1.0  0.43900  0.91990  0.61380  1.0000
  C   C13       1.0  0.03618  0.67650  0.41768  1.0000
  C   C14       1.0  0.46382  0.32350  0.91768  1.0000
  C   C15       1.0  0.96382  0.17650  0.08232  1.0000
  C   C16       1.0  0.53618  0.82350  0.58232  1.0000
  C   C17       1.0  0.09061  0.75340  0.40193  1.0000
  C   C18       1.0  0.40939  0.24660  0.90193  1.0000
  C   C19       1.0  0.90939  0.25340  0.09807  1.0000
  C   C20       1.0  0.59061  0.74660  0.59807  1.0000
  H   H13       1.0  0.12890  0.78390  0.43090  1.0000
  H   H14       1.0  0.37110  0.21610  0.93090  1.0000
  H   H15       1.0  0.87110  0.28390  0.06910  1.0000
  H   H16       1.0  0.62890  0.71610  0.56910  1.0000
  C   C21       1.0  0.09027  0.78708  0.34419  1.0000
  C   C22       1.0  0.40973  0.21292  0.84419  1.0000
  C   C23       1.0  0.90973  0.28708  0.15581  1.0000
  C   C24       1.0  0.59027  0.71292  0.65581  1.0000
  C   C25       1.0  0.03411  0.74325  0.30173  1.0000
  C   C26       1.0  0.46589  0.25675  0.80173  1.0000
  C   C27       1.0  0.96589  0.24325  0.19827  1.0000
  C   C28       1.0  0.53411  0.75675  0.69827  1.0000
  H   H17       1.0  0.03490  0.76530  0.26200  1.0000
  H   H18       1.0  0.46510  0.23470  0.76200  1.0000
  H   H19       1.0  0.96510  0.26530  0.23800  1.0000
  H   H20       1.0  0.53490  0.73470  0.73800  1.0000
  C   C29       1.0  0.63199  0.37469  0.28212  1.0000
  C   C30       1.0  0.86801  0.62531  0.78212  1.0000
  C   C31       1.0  0.36801  0.87469  0.21788  1.0000
  C   C32       1.0  0.13199  0.12531  0.71788  1.0000
  C   C33       1.0  0.56827  0.30838  0.31556  1.0000
  C   C34       1.0  0.93173  0.69162  0.81556  1.0000
  C   C35       1.0  0.43173  0.80838  0.18444  1.0000
  C   C36       1.0  0.06827  0.19162  0.68444  1.0000
  C   C37       1.0  0.57210  0.30345  0.37652  1.0000
  C   C38       1.0  0.92790  0.69655  0.87652  1.0000
  C   C39       1.0  0.42790  0.80345  0.12348  1.0000
  C   C40       1.0  0.07210  0.19655  0.62348  1.0000
  H   H21       1.0  0.61700  0.34080  0.39760  1.0000
  H   H22       1.0  0.88300  0.65920  0.89760  1.0000
  H   H23       1.0  0.38300  0.84080  0.10240  1.0000
  H   H24       1.0  0.11700  0.15920  0.60240  1.0000
  C   C41       1.0  0.50973  0.24328  0.40747  1.0000
  C   C42       1.0  0.99027  0.75672  0.90747  1.0000
  C   C43       1.0  0.49027  0.74328  0.09253  1.0000
  C   C44       1.0  0.00973  0.25672  0.59253  1.0000
  C   C45       1.0  0.37232  0.13313  0.27941  1.0000
  C   C46       1.0  0.12768  0.86687  0.77941  1.0000
  C   C47       1.0  0.62768  0.63313  0.22059  1.0000
  C   C48       1.0  0.87232  0.36687  0.72059  1.0000
  C   C49       1.0  0.44112  0.19407  0.31451  1.0000
  C   C50       1.0  0.05888  0.80593  0.81451  1.0000
  C   C51       1.0  0.55888  0.69407  0.18549  1.0000
  C   C52       1.0  0.94112  0.30593  0.68549  1.0000
  C   C53       1.0  0.50155  0.25365  0.28455  1.0000
  C   C54       1.0  0.99845  0.74635  0.78455  1.0000
  C   C55       1.0  0.49845  0.75365  0.21545  1.0000
  C   C56       1.0  0.00155  0.24635  0.71545  1.0000
  H   H25       1.0  0.49810  0.25780  0.24260  1.0000
  H   H26       1.0  0.00190  0.74220  0.74260  1.0000
  H   H27       1.0  0.50190  0.75780  0.25740  1.0000
  H   H28       1.0  0.99810  0.24220  0.75740  1.0000
  C   C57       1.0  0.44516  0.18821  0.37623  1.0000
  C   C58       1.0  0.05484  0.81179  0.87623  1.0000
  C   C59       1.0  0.55484  0.68821  0.12377  1.0000
  C   C60       1.0  0.94516  0.31179  0.62377  1.0000
  H   H29       1.0  0.40360  0.14650  0.39680  1.0000
  H   H30       1.0  0.09640  0.85350  0.89680  1.0000
  H   H31       1.0  0.59640  0.64650  0.10320  1.0000
  H   H32       1.0  0.90360  0.35350  0.60320  1.0000
  C   C61       1.0  0.15045  0.87201  0.32847  1.0000
  C   C62       1.0  0.34955  0.12799  0.82847  1.0000
  C   C63       1.0  0.84955  0.37201  0.17153  1.0000
  C   C64       1.0  0.65045  0.62799  0.67153  1.0000
