data_image0
_chemical_formula_structural       Zn4O24C12
_chemical_formula_sum              "Zn4 O24 C12"
_cell_length_a       9.1157
_cell_length_b       9.3593
_cell_length_c       13.381
_cell_angle_alpha    96.404
_cell_angle_beta     97.138
_cell_angle_gamma    116.682

_space_group_name_H-M_alt    "P 1"
_space_group_IT_number       1

loop_
  _space_group_symop_operation_xyz
  'x, y, z'

loop_
  _atom_site_type_symbol
  _atom_site_label
  _atom_site_symmetry_multiplicity
  _atom_site_fract_x
  _atom_site_fract_y
  _atom_site_fract_z
  _atom_site_occupancy
  Zn  Zn1       1.0  0.28761  0.54191  0.23820  1.0000
  Zn  Zn2       1.0  0.71239  0.45809  0.76180  1.0000
  Zn  Zn3       1.0  0.95490  0.89960  0.24610  1.0000
  Zn  Zn4       1.0  0.04510  0.10040  0.75390  1.0000
  O   O1        1.0  0.08660  0.55310  0.14960  1.0000
  O   O2        1.0  0.91340  0.44690  0.85040  1.0000
  O   O3        1.0  0.14410  0.38640  0.32860  1.0000
  O   O4        1.0  0.85590  0.61360  0.67140  1.0000
  O   O5        1.0  0.51900  0.59060  0.32050  1.0000
  O   O6        1.0  0.48100  0.40940  0.67950  1.0000
  O   O7        1.0  0.23660  0.32010  0.15280  1.0000
  O   O8        1.0  0.76340  0.67990  0.84720  1.0000
  O   O9        1.0  0.44940  0.68900  0.14810  1.0000
  O   O10       1.0  0.55060  0.31100  0.85190  1.0000
  O   O11       1.0  0.29730  0.74690  0.32420  1.0000
  O   O12       1.0  0.70270  0.25310  0.67580  1.0000
  O   O13       1.0  0.16070  0.89390  0.32790  1.0000
  O   O14       1.0  0.83930  0.10610  0.67210  1.0000
  O   O15       1.0  0.72140  0.85350  0.16020  1.0000
  O   O16       1.0  0.27860  0.14650  0.83980  1.0000
  O   O17       1.0  0.94560  0.69450  0.15570  1.0000
  O   O18       1.0  0.05440  0.30550  0.84430  1.0000
  O   O19       1.0  0.00380  0.12210  0.32880  1.0000
  O   O20       1.0  0.99620  0.87790  0.67120  1.0000
  O   O21       1.0  0.79060  0.75260  0.33120  1.0000
  O   O22       1.0  0.20940  0.24740  0.66880  1.0000
  O   O23       1.0  0.09430  0.05450  0.15320  1.0000
  O   O24       1.0  0.90570  0.94550  0.84680  1.0000
  C   C1        1.0  0.06050  0.66600  0.18960  1.0000
  C   C2        1.0  0.93950  0.33400  0.81040  1.0000
  C   C3        1.0  0.18420  0.77950  0.29020  1.0000
  C   C4        1.0  0.81580  0.22050  0.70980  1.0000
  C   C5        1.0  0.63960  0.69200  0.29010  1.0000
  C   C6        1.0  0.36040  0.30800  0.70990  1.0000
  C   C7        1.0  0.60080  0.75150  0.19020  1.0000
  C   C8        1.0  0.39920  0.24850  0.80980  1.0000
  C   C9        1.0  0.14550  0.20270  0.18940  1.0000
  C   C10       1.0  0.85450  0.79730  0.81060  1.0000
  C   C11       1.0  0.09280  0.23950  0.29150  1.0000
  C   C12       1.0  0.90720  0.76050  0.70850  1.0000
