data_image0
_chemical_formula_structural       MgSO2CF3NSO2CF3SO2CF3NSO2CF3SO2CF3NSO2CF3MgSO2CF3NSO2CF3SO2CF3NSO2CF3SO2CF3NSO2CF3
_chemical_formula_sum              "Mg2 S12 O24 C12 F36 N6"
_cell_length_a       11.4359
_cell_length_b       12.0538
_cell_length_c       13.8956
_cell_angle_alpha    69.152
_cell_angle_beta     82.96
_cell_angle_gamma    81.651

_space_group_name_H-M_alt    "P 1"
_space_group_IT_number       1

loop_
  _space_group_symop_operation_xyz
  'x, y, z'

loop_
  _atom_site_type_symbol
  _atom_site_label
  _atom_site_symmetry_multiplicity
  _atom_site_fract_x
  _atom_site_fract_y
  _atom_site_fract_z
  _atom_site_occupancy
  Mg  Mg1       1.0  0.83632  0.99415  0.00665  1.0000
  S   S1        1.0  0.81513  0.79352  0.90157  1.0000
  O   O1        1.0  0.85290  0.83971  0.97454  1.0000
  O   O2        1.0  0.90355  0.72759  0.85553  1.0000
  C   C1        1.0  0.71690  0.68330  0.98370  1.0000
  F   F1        1.0  0.78140  0.59342  0.04738  1.0000
  F   F2        1.0  0.66420  0.64150  0.92527  1.0000
  F   F3        1.0  0.63550  0.72940  0.03788  1.0000
  N   N1        1.0  0.73514  0.88427  0.81843  1.0000
  S   S2        1.0  0.69113  0.01750  0.80737  1.0000
  O   O3        1.0  0.73038  0.05694  0.88430  1.0000
  O   O4        1.0  0.70306  0.09403  0.70266  1.0000
  C   C2        1.0  0.53068  0.01560  0.83870  1.0000
  F   F4        1.0  0.50743  0.94187  0.93310  1.0000
  F   F5        1.0  0.48456  0.98150  0.77278  1.0000
  F   F6        1.0  0.48266  0.12421  0.83245  1.0000
  S   S3        1.0  0.63796  0.97869  0.19674  1.0000
  O   O5        1.0  0.69350  0.94599  0.10937  1.0000
  O   O6        1.0  0.66050  0.89920  0.29768  1.0000
  C   C3        1.0  0.48040  0.97710  0.18390  1.0000
  F   F7        1.0  0.46465  0.86840  0.19060  1.0000
  F   F8        1.0  0.44960  0.05210  0.09336  1.0000
  F   F9        1.0  0.41380  0.00340  0.25850  1.0000
  N   N2        1.0  0.64650  0.11124  0.18690  1.0000
  S   S4        1.0  0.71823  0.20329  0.10021  1.0000
  O   O7        1.0  0.79873  0.15280  0.03316  1.0000
  O   O8        1.0  0.76580  0.27753  0.14207  1.0000
  C   C4        1.0  0.60880  0.30340  0.01330  1.0000
  F   F10       1.0  0.56370  0.24656  0.96394  1.0000
  F   F11       1.0  0.52331  0.34740  0.06570  1.0000
  F   F12       1.0  0.66160  0.39228  0.94380  1.0000
  S   S5        1.0  0.02771  0.81368  0.16160  1.0000
  O   O9        1.0  0.94155  0.91796  0.12857  1.0000
  O   O10       1.0  0.07499  0.75856  0.08810  1.0000
  C   C5        1.0  0.15101  0.87554  0.19013  1.0000
  F   F13       1.0  0.19945  0.94582  0.10209  1.0000
  F   F14       1.0  0.11377  0.94079  0.24943  1.0000
  F   F15       1.0  0.23108  0.79009  0.23682  1.0000
  N   N3        1.0  0.98707  0.73134  0.27274  1.0000
  S   S6        1.0  0.97210  0.59589  0.30696  1.0000
  O   O11       1.0  0.01225  0.53520  0.23605  1.0000
  O   O12       1.0  0.00647  0.53884  0.41155  1.0000
  C   C6        1.0  0.81082  0.59660  0.32407  1.0000
  F   F16       1.0  0.76486  0.64202  0.39564  1.0000
  F   F17       1.0  0.76507  0.66102  0.23619  1.0000
  F   F18       1.0  0.78392  0.48616  0.35324  1.0000
  Mg  Mg2       1.0  0.16145  0.47316  0.48073  1.0000
  S   S7        1.0  0.33286  0.49321  0.26809  1.0000
  O   O13       1.0  0.18532  0.31796  0.44768  1.0000
  O   O14       1.0  0.19410  0.19980  0.33550  1.0000
  C   C7        1.0  0.48790  0.49350  0.29100  1.0000
  F   F19       1.0  0.50943  0.42575  0.38547  1.0000
  F   F20       1.0  0.50672  0.60357  0.27631  1.0000
  F   F21       1.0  0.56039  0.45500  0.22552  1.0000
  N   N4        1.0  0.32390  0.35870  0.28458  1.0000
  S   S8        1.0  0.25367  0.26896  0.37407  1.0000
  O   O15       1.0  0.26602  0.53487  0.34663  1.0000
  O   O16       1.0  0.32200  0.56780  0.16263  1.0000
  C   C8        1.0  0.36860  0.16170  0.45070  1.0000
  F   F22       1.0  0.41840  0.21085  0.50376  1.0000
  F   F23       1.0  0.31910  0.06996  0.51530  1.0000
  F   F24       1.0  0.45140  0.12640  0.39050  1.0000
  S   S9        1.0  0.20850  0.66953  0.58024  1.0000
  O   O17       1.0  0.15682  0.63038  0.50930  1.0000
  O   O18       1.0  0.13168  0.73911  0.63106  1.0000
  C   C9        1.0  0.31210  0.77230  0.49390  1.0000
  F   F25       1.0  0.37830  0.80480  0.54810  1.0000
  F   F26       1.0  0.24801  0.86927  0.43598  1.0000
  F   F27       1.0  0.37960  0.72204  0.43411  1.0000
  N   N5        1.0  0.28649  0.57050  0.65975  1.0000
  S   S10       1.0  0.33378  0.44230  0.65646  1.0000
  O   O19       1.0  0.30815  0.42200  0.56464  1.0000
  O   O20       1.0  0.31095  0.35275  0.75377  1.0000
  C   C10       1.0  0.49561  0.44460  0.64082  1.0000
  F   F28       1.0  0.54563  0.34204  0.63408  1.0000
  F   F29       1.0  0.53166  0.45915  0.72188  1.0000
  F   F30       1.0  0.52722  0.53188  0.55742  1.0000
  S   S11       1.0  0.97955  0.31294  0.65811  1.0000
  O   O21       1.0  0.94655  0.25990  0.59039  1.0000
  O   O22       1.0  0.06082  0.40312  0.61613  1.0000
  C   C11       1.0  0.84443  0.39520  0.69495  1.0000
  F   F31       1.0  0.76870  0.31947  0.75084  1.0000
  F   F32       1.0  0.86819  0.45925  0.74839  1.0000
  F   F33       1.0  0.79586  0.46832  0.61020  1.0000
  N   N6        1.0  0.01837  0.22981  0.76693  1.0000
  S   S12       1.0  0.02471  0.09083  0.81053  1.0000
  O   O23       1.0  0.98133  0.03237  0.75161  1.0000
  O   O24       1.0  0.98611  0.05489  0.91911  1.0000
  C   C12       1.0  0.18460  0.04830  0.81090  1.0000
  F   F34       1.0  0.20640  0.93210  0.84630  1.0000
  F   F35       1.0  0.23192  0.09040  0.87031  1.0000
  F   F36       1.0  0.23396  0.09200  0.71686  1.0000
