data_image0
_chemical_formula_structural       CdAg6S6O12N8H2N2H6C6H2C2H2C2H2C8H2C2H2C2H2C8H2C2H2C2H2C4H4C2H4
_chemical_formula_sum              "Cd1 Ag6 S6 O12 N10 H34 C40"
_cell_length_a       12.5557
_cell_length_b       12.7795
_cell_length_c       12.875
_cell_angle_alpha    61.256
_cell_angle_beta     72.894
_cell_angle_gamma    84.428

_space_group_name_H-M_alt    "P 1"
_space_group_IT_number       1

loop_
  _space_group_symop_operation_xyz
  'x, y, z'

loop_
  _atom_site_type_symbol
  _atom_site_label
  _atom_site_symmetry_multiplicity
  _atom_site_fract_x
  _atom_site_fract_y
  _atom_site_fract_z
  _atom_site_occupancy
  Cd  Cd1       1.0  0.00000  0.00000  0.00000  1.0000
  Ag  Ag1       1.0  0.59336  0.38013  0.92282  1.0000
  Ag  Ag2       1.0  0.40664  0.61987  0.07718  1.0000
  Ag  Ag3       1.0  0.40921  0.30640  0.15780  1.0000
  Ag  Ag4       1.0  0.59079  0.69360  0.84220  1.0000
  Ag  Ag5       1.0  0.58215  0.45354  0.14919  1.0000
  Ag  Ag6       1.0  0.41785  0.54646  0.85081  1.0000
  S   S1        1.0  0.32931  0.34104  0.98976  1.0000
  S   S2        1.0  0.67069  0.65896  0.01024  1.0000
  S   S3        1.0  0.68519  0.30534  0.09022  1.0000
  S   S4        1.0  0.31481  0.69466  0.90978  1.0000
  S   S5        1.0  0.31627  0.42812  0.25918  1.0000
  S   S6        1.0  0.68373  0.57188  0.74082  1.0000
  O   O1        1.0  0.14620  0.08430  0.02430  1.0000
  O   O2        1.0  0.85380  0.91570  0.97570  1.0000
  O   O3        1.0  0.17220  0.27160  0.87000  1.0000
  O   O4        1.0  0.82780  0.72840  0.13000  1.0000
  O   O5        1.0  0.84780  0.03740  0.12940  1.0000
  O   O6        1.0  0.15220  0.96260  0.87060  1.0000
  O   O7        1.0  0.87230  0.13690  0.22340  1.0000
  O   O8        1.0  0.12770  0.86310  0.77660  1.0000
  O   O9        1.0  0.12960  0.43480  0.55210  1.0000
  O   O10       1.0  0.87040  0.56520  0.44790  1.0000
  O   O11       1.0  0.13880  0.26560  0.54430  1.0000
  O   O12       1.0  0.86120  0.73440  0.45570  1.0000
  N   N1        1.0  0.50760  0.24520  0.89940  1.0000
  N   N2        1.0  0.49240  0.75480  0.10060  1.0000
  N   N3        1.0  0.50980  0.15140  0.25270  1.0000
  N   N4        1.0  0.49020  0.84860  0.74730  1.0000
  N   N5        1.0  0.48930  0.40150  0.35060  1.0000
  N   N6        1.0  0.51070  0.59850  0.64940  1.0000
  N   N7        1.0  0.01040  0.82900  0.17220  1.0000
  N   N8        1.0  0.98960  0.17100  0.82780  1.0000
  H   H1        1.0  0.95283  0.79148  0.23308  1.0000
  H   H2        1.0  0.04717  0.20852  0.76692  1.0000
  N   N9        1.0  0.09300  0.66560  0.39870  1.0000
  N   N10       1.0  0.90700  0.33440  0.60130  1.0000
  H   H3        1.0  0.09846  0.59268  0.45819  1.0000
  H   H4        1.0  0.90154  0.40732  0.54181  1.0000
  H   H5        1.0  0.13536  0.71774  0.39842  1.0000
  H   H6        1.0  0.86464  0.28226  0.60158  1.0000
  H   H7        1.0  0.02222  0.68558  0.41229  1.0000
  H   H8        1.0  0.97778  0.31442  0.58771  1.0000
  C   C1        1.0  0.39490  0.24470  0.92980  1.0000
  C   C2        1.0  0.60510  0.75530  0.07020  1.0000
  C   C3        1.0  0.33110  0.16800  0.92010  1.0000
  C   C4        1.0  0.66890  0.83200  0.07990  1.0000
  C   C5        1.0  0.38590  0.08510  0.88480  1.0000
  C   C6        1.0  0.61410  0.91490  0.11520  1.0000
  H   H9        1.0  0.34519  0.02978  0.88217  1.0000
  H   H10       1.0  0.65481  0.97022  0.11783  1.0000
  C   C7        1.0  0.50060  0.08550  0.85380  1.0000
  C   C8        1.0  0.49940  0.91450  0.14620  1.0000
  H   H11       1.0  0.53859  0.03157  0.82882  1.0000
  H   H12       1.0  0.46141  0.96843  0.17118  1.0000
  C   C9        1.0  0.55790  0.16800  0.86070  1.0000
  C   C10       1.0  0.44210  0.83200  0.13930  1.0000
  H   H13       1.0  0.63547  0.16989  0.83718  1.0000
  H   H14       1.0  0.36453  0.83011  0.16282  1.0000
  C   C11       1.0  0.20600  0.17570  0.94050  1.0000
  C   C12       1.0  0.79400  0.82430  0.05950  1.0000
  C   C13       1.0  0.62250  0.16430  0.20980  1.0000
  C   C14       1.0  0.37750  0.83570  0.79020  1.0000
  C   C15       1.0  0.68960  0.06910  0.25750  1.0000
  C   C16       1.0  0.31040  0.93090  0.74250  1.0000
  C   C17       1.0  0.63890  0.96060  0.35460  1.0000
  C   C18       1.0  0.36110  0.03940  0.64540  1.0000
  H   H15       1.0  0.68204  0.89645  0.38851  1.0000
  H   H16       1.0  0.31796  0.10355  0.61149  1.0000
  C   C19       1.0  0.52380  0.94850  0.40050  1.0000
  C   C20       1.0  0.47620  0.05150  0.59950  1.0000
  H   H17       1.0  0.48840  0.87682  0.46611  1.0000
  H   H18       1.0  0.51160  0.12318  0.53389  1.0000
  C   C21       1.0  0.46320  0.04510  0.34690  1.0000
  C   C22       1.0  0.53680  0.95490  0.65310  1.0000
  H   H19       1.0  0.38577  0.03651  0.37720  1.0000
  H   H20       1.0  0.61423  0.96349  0.62280  1.0000
  C   C23       1.0  0.81390  0.08230  0.19960  1.0000
  C   C24       1.0  0.18610  0.91770  0.80040  1.0000
  C   C25       1.0  0.37680  0.39560  0.37870  1.0000
  C   C26       1.0  0.62320  0.60440  0.62130  1.0000
  C   C27       1.0  0.30920  0.36720  0.49780  1.0000
  C   C28       1.0  0.69080  0.63280  0.50220  1.0000
  C   C29       1.0  0.36020  0.34820  0.58660  1.0000
  C   C30       1.0  0.63980  0.65180  0.41340  1.0000
  H   H21       1.0  0.31689  0.33235  0.66538  1.0000
  H   H22       1.0  0.68311  0.66765  0.33462  1.0000
  C   C31       1.0  0.47520  0.35280  0.55910  1.0000
  C   C32       1.0  0.52480  0.64720  0.44090  1.0000
  H   H23       1.0  0.51044  0.33840  0.61859  1.0000
  H   H24       1.0  0.48956  0.66160  0.38141  1.0000
  C   C33       1.0  0.53620  0.37960  0.43930  1.0000
  C   C34       1.0  0.46380  0.62040  0.56070  1.0000
  H   H25       1.0  0.61369  0.38241  0.41987  1.0000
  H   H26       1.0  0.38631  0.61759  0.58013  1.0000
  C   C35       1.0  0.18290  0.35490  0.53190  1.0000
  C   C36       1.0  0.81710  0.64510  0.46810  1.0000
  C   C37       1.0  0.12470  0.78810  0.17020  1.0000
  C   C38       1.0  0.87530  0.21190  0.82980  1.0000
  H   H27       1.0  0.16836  0.84675  0.17010  1.0000
  H   H28       1.0  0.83164  0.15325  0.82990  1.0000
  H   H29       1.0  0.15841  0.78452  0.09393  1.0000
  H   H30       1.0  0.84159  0.21548  0.90607  1.0000
  C   C39       1.0  0.13090  0.66710  0.27780  1.0000
  C   C40       1.0  0.86910  0.33290  0.72220  1.0000
  H   H31       1.0  0.08550  0.60864  0.27971  1.0000
  H   H32       1.0  0.91450  0.39136  0.72029  1.0000
  H   H33       1.0  0.20747  0.64332  0.26476  1.0000
  H   H34       1.0  0.79253  0.35668  0.73524  1.0000
