data_image0
_chemical_formula_structural       CdAg6S2O2N2H2N2C4H2C4H2C2H2C4H4O2C2H4N2H6N4C8H2C2H2C2H2C2H2C6H2C4H2O8S4
_chemical_formula_sum              "Cd1 Ag6 S6 O12 N10 H34 C40"
_cell_length_a       11.8171
_cell_length_b       12.2377
_cell_length_c       12.5376
_cell_angle_alpha    65.73
_cell_angle_beta     81.992
_cell_angle_gamma    76.182

_space_group_name_H-M_alt    "P 1"
_space_group_IT_number       1

loop_
  _space_group_symop_operation_xyz
  'x, y, z'

loop_
  _atom_site_type_symbol
  _atom_site_label
  _atom_site_symmetry_multiplicity
  _atom_site_fract_x
  _atom_site_fract_y
  _atom_site_fract_z
  _atom_site_occupancy
  Cd  Cd1       1.0  0.00000  0.00000  0.00000  1.0000
  Ag  Ag1       1.0  0.40534  0.64919  0.07333  1.0000
  Ag  Ag2       1.0  0.59466  0.35081  0.92667  1.0000
  Ag  Ag3       1.0  0.37658  0.53112  0.84601  1.0000
  Ag  Ag4       1.0  0.62342  0.46888  0.15399  1.0000
  Ag  Ag5       1.0  0.55369  0.67582  0.86372  1.0000
  Ag  Ag6       1.0  0.44631  0.32418  0.13628  1.0000
  S   S1        1.0  0.27682  0.70030  0.91049  1.0000
  S   S2        1.0  0.72318  0.29970  0.08951  1.0000
  O   O1        1.0  0.03640  0.93990  0.83800  1.0000
  O   O2        1.0  0.96360  0.06010  0.16200  1.0000
  N   N1        1.0  0.08960  0.80590  0.11050  1.0000
  N   N2        1.0  0.91040  0.19410  0.88950  1.0000
  H   H1        1.0  0.11105  0.75603  0.07581  1.0000
  H   H2        1.0  0.88895  0.24397  0.92419  1.0000
  N   N3        1.0  0.41740  0.83880  0.75530  1.0000
  N   N4        1.0  0.58260  0.16120  0.24470  1.0000
  C   C1        1.0  0.30580  0.83160  0.78790  1.0000
  C   C2        1.0  0.69420  0.16840  0.21210  1.0000
  C   C3        1.0  0.35540  0.02910  0.59770  1.0000
  C   C4        1.0  0.64460  0.97090  0.40230  1.0000
  H   H3        1.0  0.37459  0.09656  0.53421  1.0000
  H   H4        1.0  0.62541  0.90344  0.46579  1.0000
  C   C5        1.0  0.21370  0.92130  0.72730  1.0000
  C   C6        1.0  0.78630  0.07870  0.27270  1.0000
  C   C7        1.0  0.44010  0.93640  0.66130  1.0000
  C   C8        1.0  0.55990  0.06360  0.33870  1.0000
  H   H5        1.0  0.51767  0.94116  0.63829  1.0000
  H   H6        1.0  0.48233  0.05884  0.36171  1.0000
  C   C9        1.0  0.24110  0.02000  0.63010  1.0000
  C   C10       1.0  0.75890  0.98000  0.36990  1.0000
  H   H7        1.0  0.18175  0.08048  0.58653  1.0000
  H   H8        1.0  0.81825  0.91952  0.41347  1.0000
  C   C11       1.0  0.08910  0.90940  0.76260  1.0000
  C   C12       1.0  0.91090  0.09060  0.23740  1.0000
  C   C13       1.0  0.11450  0.75740  0.23420  1.0000
  C   C14       1.0  0.88550  0.24260  0.76580  1.0000
  H   H9        1.0  0.14708  0.81491  0.24947  1.0000
  H   H10       1.0  0.85292  0.18509  0.75053  1.0000
  H   H11       1.0  0.17117  0.68098  0.25435  1.0000
  H   H12       1.0  0.82883  0.31902  0.74565  1.0000
  O   O3        1.0  0.04580  0.85990  0.71570  1.0000
  O   O4        1.0  0.95420  0.14010  0.28430  1.0000
  C   C15       1.0  0.00460  0.73650  0.30700  1.0000
  C   C16       1.0  0.99540  0.26350  0.69300  1.0000
  H   H13       1.0  0.97205  0.67992  0.29031  1.0000
  H   H14       1.0  0.02795  0.32008  0.70969  1.0000
  H   H15       1.0  0.94841  0.81328  0.28609  1.0000
  H   H16       1.0  0.05159  0.18672  0.71391  1.0000
  N   N5        1.0  0.02410  0.68640  0.43420  1.0000
  N   N6        1.0  0.97590  0.31360  0.56580  1.0000
  H   H17       1.0  0.95676  0.67518  0.47462  1.0000
  H   H18       1.0  0.04324  0.32482  0.52538  1.0000
  H   H19       1.0  0.07460  0.61516  0.45402  1.0000
  H   H20       1.0  0.92540  0.38484  0.54598  1.0000
  H   H21       1.0  0.05269  0.73874  0.45012  1.0000
  H   H22       1.0  0.94731  0.26126  0.54988  1.0000
  N   N7        1.0  0.48660  0.78320  0.10200  1.0000
  N   N8        1.0  0.51340  0.21680  0.89800  1.0000
  N   N9        1.0  0.45340  0.59390  0.65930  1.0000
  N   N10       1.0  0.54660  0.40610  0.34070  1.0000
  C   C17       1.0  0.66290  0.85290  0.09190  1.0000
  C   C18       1.0  0.33710  0.14710  0.90810  1.0000
  C   C19       1.0  0.60260  0.77520  0.07610  1.0000
  C   C20       1.0  0.39740  0.22480  0.92390  1.0000
  C   C21       1.0  0.56930  0.58720  0.64330  1.0000
  C   C22       1.0  0.43070  0.41280  0.35670  1.0000
  C   C23       1.0  0.42900  0.86740  0.14310  1.0000
  C   C24       1.0  0.57100  0.13260  0.85690  1.0000
  H   H23       1.0  0.34933  0.87219  0.16091  1.0000
  H   H24       1.0  0.65067  0.12781  0.83909  1.0000
  C   C25       1.0  0.43870  0.67030  0.45300  1.0000
  C   C26       1.0  0.56130  0.32970  0.54700  1.0000
  H   H25       1.0  0.39213  0.69776  0.38941  1.0000
  H   H26       1.0  0.60787  0.30224  0.61059  1.0000
  C   C27       1.0  0.38960  0.63710  0.56580  1.0000
  C   C28       1.0  0.61040  0.36290  0.43420  1.0000
  H   H27       1.0  0.30904  0.64525  0.57670  1.0000
  H   H28       1.0  0.69096  0.35475  0.42330  1.0000
  C   C29       1.0  0.59920  0.93990  0.13240  1.0000
  C   C30       1.0  0.40080  0.06010  0.86760  1.0000
  H   H29       1.0  0.63640  0.99450  0.14111  1.0000
  H   H30       1.0  0.36360  0.00550  0.85889  1.0000
  C   C31       1.0  0.79200  0.85050  0.06570  1.0000
  C   C32       1.0  0.20800  0.14950  0.93430  1.0000
  C   C33       1.0  0.62500  0.62020  0.53290  1.0000
  C   C34       1.0  0.37500  0.37980  0.46710  1.0000
  C   C35       1.0  0.48180  0.94700  0.16010  1.0000
  C   C36       1.0  0.51820  0.05300  0.83990  1.0000
  H   H31       1.0  0.43944  0.00399  0.18939  1.0000
  H   H32       1.0  0.56056  0.99601  0.81061  1.0000
  C   C37       1.0  0.75460  0.60960  0.51520  1.0000
  C   C38       1.0  0.24540  0.39040  0.48480  1.0000
  C   C39       1.0  0.55630  0.66220  0.43640  1.0000
  C   C40       1.0  0.44370  0.33780  0.56360  1.0000
  H   H33       1.0  0.59075  0.68443  0.36109  1.0000
  H   H34       1.0  0.40925  0.31557  0.63891  1.0000
  O   O5        1.0  0.86090  0.75020  0.08710  1.0000
  O   O6        1.0  0.13910  0.24980  0.91290  1.0000
  O   O7        1.0  0.81980  0.95340  0.02590  1.0000
  O   O8        1.0  0.18020  0.04660  0.97410  1.0000
  O   O9        1.0  0.79920  0.68120  0.53680  1.0000
  O   O10       1.0  0.20080  0.31880  0.46320  1.0000
  O   O11       1.0  0.81070  0.52990  0.48000  1.0000
  O   O12       1.0  0.18930  0.47010  0.52000  1.0000
  S   S3        1.0  0.67120  0.66745  0.01571  1.0000
  S   S4        1.0  0.32880  0.33255  0.98429  1.0000
  S   S5        1.0  0.65303  0.53312  0.76805  1.0000
  S   S6        1.0  0.34697  0.46688  0.23195  1.0000
