data_image0
_chemical_formula_structural       Zn2O14H4C6H2C2H2C2H2C8
_chemical_formula_sum              "Zn2 O14 H10 C18"
_cell_length_a       7.1095
_cell_length_b       9.5924
_cell_length_c       13.2708
_cell_angle_alpha    83.938
_cell_angle_beta     84.247
_cell_angle_gamma    86.754

_space_group_name_H-M_alt    "P 1"
_space_group_IT_number       1

loop_
  _space_group_symop_operation_xyz
  'x, y, z'

loop_
  _atom_site_type_symbol
  _atom_site_label
  _atom_site_symmetry_multiplicity
  _atom_site_fract_x
  _atom_site_fract_y
  _atom_site_fract_z
  _atom_site_occupancy
  Zn  Zn1       1.0  0.17649  0.24056  0.42364  1.0000
  Zn  Zn2       1.0  0.82351  0.75944  0.57636  1.0000
  O   O1        1.0  0.98822  0.26040  0.53988  1.0000
  O   O2        1.0  0.01178  0.73960  0.46012  1.0000
  O   O3        1.0  0.73188  0.17095  0.49365  1.0000
  O   O4        1.0  0.26812  0.82905  0.50635  1.0000
  O   O5        1.0  0.70190  0.50206  0.54926  1.0000
  O   O6        1.0  0.29810  0.49794  0.45074  1.0000
  O   O7        1.0  0.80519  0.59571  0.67732  1.0000
  O   O8        1.0  0.19481  0.40429  0.32268  1.0000
  O   O9        1.0  0.86257  0.92625  0.64798  1.0000
  O   O10       1.0  0.13743  0.07375  0.35202  1.0000
  O   O11       1.0  0.56115  0.89127  0.70056  1.0000
  O   O12       1.0  0.43885  0.10873  0.29944  1.0000
  O   O13       1.0  0.36510  0.17200  0.52003  1.0000
  O   O14       1.0  0.63490  0.82800  0.47997  1.0000
  H   H1        1.0  0.30860  0.13280  0.57450  1.0000
  H   H2        1.0  0.69140  0.86720  0.42550  1.0000
  H   H3        1.0  0.42490  0.24080  0.53440  1.0000
  H   H4        1.0  0.57510  0.75920  0.46560  1.0000
  C   C1        1.0  0.73570  0.22856  0.66539  1.0000
  C   C2        1.0  0.26430  0.77144  0.33461  1.0000
  C   C3        1.0  0.68350  0.10793  0.72844  1.0000
  C   C4        1.0  0.31650  0.89207  0.27156  1.0000
  C   C5        1.0  0.61380  0.11727  0.82994  1.0000
  C   C6        1.0  0.38620  0.88273  0.17006  1.0000
  H   H5        1.0  0.57440  0.03720  0.87050  1.0000
  H   H6        1.0  0.42560  0.96280  0.12950  1.0000
  C   C7        1.0  0.60310  0.24504  0.87058  1.0000
  C   C8        1.0  0.39690  0.75496  0.12942  1.0000
  H   H7        1.0  0.56220  0.25030  0.93890  1.0000
  H   H8        1.0  0.43780  0.74970  0.06110  1.0000
  C   C9        1.0  0.65410  0.36543  0.80826  1.0000
  C   C10       1.0  0.34590  0.63457  0.19174  1.0000
  H   H9        1.0  0.64730  0.45130  0.83540  1.0000
  H   H10       1.0  0.35270  0.54870  0.16460  1.0000
  C   C11       1.0  0.71530  0.35902  0.70592  1.0000
  C   C12       1.0  0.28470  0.64098  0.29408  1.0000
  C   C13       1.0  0.82120  0.21844  0.55679  1.0000
  C   C14       1.0  0.17880  0.78156  0.44321  1.0000
  C   C15       1.0  0.74470  0.49317  0.63770  1.0000
  C   C16       1.0  0.25530  0.50683  0.36230  1.0000
  C   C17       1.0  0.70080  0.96539  0.68976  1.0000
  C   C18       1.0  0.29920  0.03461  0.31024  1.0000
