data_image0
_chemical_formula_structural       Fe4Cl8O16C8
_chemical_formula_sum              "Fe4 Cl8 O16 C8"
_cell_length_a       8.6991
_cell_length_b       11.6213
_cell_length_c       20.9805
_cell_angle_alpha    80.327
_cell_angle_beta     85.431
_cell_angle_gamma    77.539

_space_group_name_H-M_alt    "P 1"
_space_group_IT_number       1

loop_
  _space_group_symop_operation_xyz
  'x, y, z'

loop_
  _atom_site_type_symbol
  _atom_site_label
  _atom_site_symmetry_multiplicity
  _atom_site_fract_x
  _atom_site_fract_y
  _atom_site_fract_z
  _atom_site_occupancy
  Fe  Fe1       1.0  0.96461  0.14047  0.18171  1.0000
  Fe  Fe2       1.0  0.03539  0.85953  0.81829  1.0000
  Fe  Fe3       1.0  0.39877  0.28799  0.30495  1.0000
  Fe  Fe4       1.0  0.60123  0.71201  0.69505  1.0000
  Cl  Cl1       1.0  0.11360  0.95999  0.17103  1.0000
  Cl  Cl2       1.0  0.88640  0.04001  0.82897  1.0000
  Cl  Cl3       1.0  0.87000  0.19637  0.08204  1.0000
  Cl  Cl4       1.0  0.13000  0.80363  0.91796  1.0000
  Cl  Cl5       1.0  0.25430  0.46300  0.32464  1.0000
  Cl  Cl6       1.0  0.74570  0.53700  0.67536  1.0000
  Cl  Cl7       1.0  0.51450  0.22456  0.40091  1.0000
  Cl  Cl8       1.0  0.48550  0.77544  0.59909  1.0000
  O   O1        1.0  0.77670  0.07460  0.22616  1.0000
  O   O2        1.0  0.22330  0.92540  0.77384  1.0000
  O   O3        1.0  0.81890  0.29710  0.21039  1.0000
  O   O4        1.0  0.18110  0.70290  0.78961  1.0000
  O   O5        1.0  0.58050  0.35550  0.25690  1.0000
  O   O6        1.0  0.41950  0.64450  0.74310  1.0000
  O   O7        1.0  0.53860  0.13200  0.27214  1.0000
  O   O8        1.0  0.46140  0.86800  0.72786  1.0000
  O   O9        1.0  0.04650  0.12710  0.27725  1.0000
  O   O10       1.0  0.95350  0.87290  0.72275  1.0000
  O   O11       1.0  0.13360  0.24000  0.16326  1.0000
  O   O12       1.0  0.86640  0.76000  0.83674  1.0000
  O   O13       1.0  0.22320  0.19440  0.32521  1.0000
  O   O14       1.0  0.77680  0.80560  0.67479  1.0000
  O   O15       1.0  0.30550  0.30950  0.21185  1.0000
  O   O16       1.0  0.69450  0.69050  0.78815  1.0000
  C   C1        1.0  0.66600  0.15040  0.24570  1.0000
  C   C2        1.0  0.33400  0.84960  0.75430  1.0000
  C   C3        1.0  0.69080  0.28050  0.23720  1.0000
  C   C4        1.0  0.30920  0.71950  0.76280  1.0000
  C   C5        1.0  0.15030  0.18600  0.27700  1.0000
  C   C6        1.0  0.84970  0.81400  0.72300  1.0000
  C   C7        1.0  0.20350  0.25080  0.21120  1.0000
  C   C8        1.0  0.79650  0.74920  0.78880  1.0000
