data_image0
_chemical_formula_structural       Fe2Cl4O8C4
_chemical_formula_sum              "Fe2 Cl4 O8 C4"
_cell_length_a       8.887
_cell_length_b       11.402
_cell_length_c       11.422
_cell_angle_alpha    111.97
_cell_angle_beta     103.7
_cell_angle_gamma    100.22

_space_group_name_H-M_alt    "P 1"
_space_group_IT_number       1

loop_
  _space_group_symop_operation_xyz
  'x, y, z'

loop_
  _atom_site_type_symbol
  _atom_site_label
  _atom_site_symmetry_multiplicity
  _atom_site_fract_x
  _atom_site_fract_y
  _atom_site_fract_z
  _atom_site_occupancy
  Fe  Fe1       1.0  0.67643  0.37490  0.35343  1.0000
  Fe  Fe2       1.0  0.32357  0.62510  0.64657  1.0000
  Cl  Cl1       1.0  0.70900  0.17040  0.30060  1.0000
  Cl  Cl2       1.0  0.29100  0.82960  0.69940  1.0000
  Cl  Cl3       1.0  0.52250  0.33750  0.14730  1.0000
  Cl  Cl4       1.0  0.47750  0.66250  0.85270  1.0000
  O   O1        1.0  0.64660  0.56540  0.44730  1.0000
  O   O2        1.0  0.35340  0.43460  0.55270  1.0000
  O   O3        1.0  0.84570  0.44130  0.55140  1.0000
  O   O4        1.0  0.15430  0.55870  0.44860  1.0000
  O   O5        1.0  0.11310  0.53180  0.66140  1.0000
  O   O6        1.0  0.88690  0.46820  0.33860  1.0000
  O   O7        1.0  0.50530  0.66580  0.57050  1.0000
  O   O8        1.0  0.49470  0.33420  0.42950  1.0000
  C   C1        1.0  0.54640  0.56690  0.50490  1.0000
  C   C2        1.0  0.45360  0.43310  0.49510  1.0000
  C   C3        1.0  0.98890  0.49270  0.56210  1.0000
  C   C4        1.0  0.01110  0.50730  0.43790  1.0000
