data_image0
_chemical_formula_structural       Fe2Cl4O8C4
_chemical_formula_sum              "Fe2 Cl4 O8 C4"
_cell_length_a       8.8607
_cell_length_b       11.3921
_cell_length_c       11.4383
_cell_angle_alpha    112.092
_cell_angle_beta     103.772
_cell_angle_gamma    100.077

_space_group_name_H-M_alt    "P 1"
_space_group_IT_number       1

loop_
  _space_group_symop_operation_xyz
  'x, y, z'

loop_
  _atom_site_type_symbol
  _atom_site_label
  _atom_site_symmetry_multiplicity
  _atom_site_fract_x
  _atom_site_fract_y
  _atom_site_fract_z
  _atom_site_occupancy
  Fe  Fe1       1.0  0.67689  0.37482  0.35403  1.0000
  Fe  Fe2       1.0  0.32311  0.62518  0.64597  1.0000
  Cl  Cl1       1.0  0.71032  0.17126  0.30173  1.0000
  Cl  Cl2       1.0  0.28968  0.82874  0.69827  1.0000
  Cl  Cl3       1.0  0.52285  0.33727  0.14826  1.0000
  Cl  Cl4       1.0  0.47715  0.66273  0.85174  1.0000
  O   O1        1.0  0.64810  0.56600  0.44700  1.0000
  O   O2        1.0  0.35190  0.43400  0.55300  1.0000
  O   O3        1.0  0.84660  0.43960  0.55100  1.0000
  O   O4        1.0  0.15340  0.56040  0.44900  1.0000
  O   O5        1.0  0.11390  0.53220  0.66130  1.0000
  O   O6        1.0  0.88610  0.46780  0.33870  1.0000
  O   O7        1.0  0.50510  0.66550  0.57050  1.0000
  O   O8        1.0  0.49490  0.33450  0.42950  1.0000
  C   C1        1.0  0.54530  0.56680  0.50520  1.0000
  C   C2        1.0  0.45470  0.43320  0.49480  1.0000
  C   C3        1.0  0.98780  0.49200  0.56130  1.0000
  C   C4        1.0  0.01220  0.50800  0.43870  1.0000
