data_image0
_chemical_formula_structural       Fe4Cl8O16C8
_chemical_formula_sum              "Fe4 Cl8 O16 C8"
_cell_length_a       12.182
_cell_length_b       13.352
_cell_length_c       16.978
_cell_angle_alpha    106.479
_cell_angle_beta     106.821
_cell_angle_gamma    117.151

_space_group_name_H-M_alt    "P 1"
_space_group_IT_number       1

loop_
  _space_group_symop_operation_xyz
  'x, y, z'

loop_
  _atom_site_type_symbol
  _atom_site_label
  _atom_site_symmetry_multiplicity
  _atom_site_fract_x
  _atom_site_fract_y
  _atom_site_fract_z
  _atom_site_occupancy
  Fe  Fe1       1.0  0.99270  0.86894  0.33894  1.0000
  Fe  Fe2       1.0  0.00730  0.13106  0.66106  1.0000
  Fe  Fe3       1.0  0.05641  0.17121  0.16891  1.0000
  Fe  Fe4       1.0  0.94359  0.82879  0.83109  1.0000
  Cl  Cl1       1.0  0.14353  0.83296  0.30603  1.0000
  Cl  Cl2       1.0  0.85647  0.16704  0.69397  1.0000
  Cl  Cl3       1.0  0.82909  0.66990  0.30868  1.0000
  Cl  Cl4       1.0  0.17091  0.33010  0.69132  1.0000
  Cl  Cl5       1.0  0.25397  0.35751  0.20681  1.0000
  Cl  Cl6       1.0  0.74603  0.64249  0.79319  1.0000
  Cl  Cl7       1.0  0.91977  0.23388  0.19429  1.0000
  Cl  Cl8       1.0  0.08023  0.76612  0.80571  1.0000
  O   O1        1.0  0.88870  0.85650  0.21316  1.0000
  O   O2        1.0  0.11130  0.14350  0.78684  1.0000
  O   O3        1.0  0.12610  0.06410  0.36968  1.0000
  O   O4        1.0  0.87390  0.93590  0.63032  1.0000
  O   O5        1.0  0.90270  0.97960  0.14341  1.0000
  O   O6        1.0  0.09730  0.02040  0.85659  1.0000
  O   O7        1.0  0.14760  0.18220  0.29558  1.0000
  O   O8        1.0  0.85240  0.81780  0.70442  1.0000
  O   O9        1.0  0.10090  0.94460  0.48229  1.0000
  O   O10       1.0  0.89910  0.05540  0.51771  1.0000
  O   O11       1.0  0.11800  0.06050  0.61751  1.0000
  O   O12       1.0  0.88200  0.93950  0.38249  1.0000
  O   O13       1.0  0.93690  0.09230  0.02470  1.0000
  O   O14       1.0  0.06310  0.90770  0.97530  1.0000
  O   O15       1.0  0.87070  0.93800  0.88584  1.0000
  O   O16       1.0  0.12930  0.06200  0.11416  1.0000
  C   C1        1.0  0.94570  0.96080  0.21050  1.0000
  C   C2        1.0  0.05430  0.03920  0.78950  1.0000
  C   C3        1.0  0.08570  0.07950  0.30050  1.0000
  C   C4        1.0  0.91430  0.92050  0.69950  1.0000
  C   C5        1.0  0.06370  0.00170  0.52950  1.0000
  C   C6        1.0  0.93630  0.99830  0.47050  1.0000
  C   C7        1.0  0.94460  0.00910  0.97390  1.0000
  C   C8        1.0  0.05540  0.99090  0.02610  1.0000
