data_image0
_chemical_formula_structural       Fe4Cl8O16C8
_chemical_formula_sum              "Fe4 Cl8 O16 C8"
_cell_length_a       12.168
_cell_length_b       13.286
_cell_length_c       14.822
_cell_angle_alpha    101.211
_cell_angle_beta     94.619
_cell_angle_gamma    116.681

_space_group_name_H-M_alt    "P 1"
_space_group_IT_number       1

loop_
  _space_group_symop_operation_xyz
  'x, y, z'

loop_
  _atom_site_type_symbol
  _atom_site_label
  _atom_site_symmetry_multiplicity
  _atom_site_fract_x
  _atom_site_fract_y
  _atom_site_fract_z
  _atom_site_occupancy
  Fe  Fe1       1.0  0.11288  0.00092  0.16851  1.0000
  Fe  Fe2       1.0  0.88712  0.99908  0.83149  1.0000
  Fe  Fe3       1.0  0.34934  0.46866  0.33893  1.0000
  Fe  Fe4       1.0  0.65066  0.53134  0.66107  1.0000
  Cl  Cl1       1.0  0.27278  0.96152  0.19503  1.0000
  Cl  Cl2       1.0  0.72722  0.03848  0.80497  1.0000
  Cl  Cl3       1.0  0.95486  0.85360  0.20622  1.0000
  Cl  Cl4       1.0  0.04514  0.14640  0.79378  1.0000
  Cl  Cl5       1.0  0.48115  0.63619  0.30776  1.0000
  Cl  Cl6       1.0  0.51885  0.36381  0.69224  1.0000
  Cl  Cl7       1.0  0.16765  0.47322  0.30374  1.0000
  Cl  Cl8       1.0  0.83235  0.52678  0.69626  1.0000
  O   O1        1.0  0.24090  0.16660  0.14369  1.0000
  O   O2        1.0  0.75910  0.83340  0.85631  1.0000
  O   O3        1.0  0.14610  0.11490  0.29318  1.0000
  O   O4        1.0  0.85390  0.88510  0.70682  1.0000
  O   O5        1.0  0.33160  0.35710  0.21548  1.0000
  O   O6        1.0  0.66840  0.64290  0.78452  1.0000
  O   O7        1.0  0.24570  0.30410  0.36836  1.0000
  O   O8        1.0  0.75430  0.69590  0.63164  1.0000
  O   O9        1.0  0.09090  0.93580  0.02665  1.0000
  O   O10       1.0  0.90910  0.06420  0.97335  1.0000
  O   O11       1.0  0.01390  0.94490  0.88811  1.0000
  O   O12       1.0  0.98610  0.05510  0.11189  1.0000
  O   O13       1.0  0.50290  0.44210  0.38564  1.0000
  O   O14       1.0  0.49710  0.55790  0.61436  1.0000
  O   O15       1.0  0.62050  0.46590  0.51961  1.0000
  O   O16       1.0  0.37950  0.53410  0.48039  1.0000
  C   C1        1.0  0.26730  0.25060  0.21100  1.0000
  C   C2        1.0  0.73270  0.74940  0.78900  1.0000
  C   C3        1.0  0.21550  0.22110  0.29920  1.0000
  C   C4        1.0  0.78450  0.77890  0.70080  1.0000
  C   C5        1.0  0.03000  0.96540  0.97510  1.0000
  C   C6        1.0  0.97000  0.03460  0.02490  1.0000
  C   C7        1.0  0.53580  0.47300  0.47250  1.0000
  C   C8        1.0  0.46420  0.52700  0.52750  1.0000
