data_image0
_chemical_formula_structural       Co2P4O6H2O8H2C2H6C2
_chemical_formula_sum              "Co2 P4 O14 H10 C4"
_cell_length_a       5.4635
_cell_length_b       7.7205
_cell_length_c       9.976
_cell_angle_alpha    71.198
_cell_angle_beta     82.385
_cell_angle_gamma    87.92

_space_group_name_H-M_alt    "P 1"
_space_group_IT_number       1

loop_
  _space_group_symop_operation_xyz
  'x, y, z'

loop_
  _atom_site_type_symbol
  _atom_site_label
  _atom_site_symmetry_multiplicity
  _atom_site_fract_x
  _atom_site_fract_y
  _atom_site_fract_z
  _atom_site_occupancy
  Co  Co1       1.0  0.32661  0.36145  0.63245  1.0000
  Co  Co2       1.0  0.67339  0.63855  0.36755  1.0000
  P   P1        1.0  0.78609  0.14085  0.74886  1.0000
  P   P2        1.0  0.21391  0.85915  0.25114  1.0000
  P   P3        1.0  0.78276  0.54148  0.70721  1.0000
  P   P4        1.0  0.21724  0.45852  0.29279  1.0000
  O   O1        1.0  0.60500  0.16080  0.64280  1.0000
  O   O2        1.0  0.39500  0.83920  0.35720  1.0000
  O   O3        1.0  0.05540  0.15730  0.68970  1.0000
  O   O4        1.0  0.94460  0.84270  0.31030  1.0000
  O   O5        1.0  0.73780  0.95230  0.87260  1.0000
  O   O6        1.0  0.26220  0.04770  0.12740  1.0000
  H   H1        1.0  0.72900  0.88300  0.83700  1.0000
  H   H2        1.0  0.27100  0.11700  0.16300  1.0000
  O   O7        1.0  0.62500  0.55620  0.58720  1.0000
  O   O8        1.0  0.37500  0.44380  0.41280  1.0000
  O   O9        1.0  0.05790  0.53700  0.66300  1.0000
  O   O10       1.0  0.94210  0.46300  0.33700  1.0000
  O   O11       1.0  0.71260  0.68660  0.77650  1.0000
  O   O12       1.0  0.28740  0.31340  0.22350  1.0000
  O   O13       1.0  0.42570  0.31190  0.85380  1.0000
  O   O14       1.0  0.57430  0.68810  0.14620  1.0000
  H   H3        1.0  0.37400  0.21600  0.92900  1.0000
  H   H4        1.0  0.62600  0.78400  0.07100  1.0000
  C   C1        1.0  0.79470  0.28570  0.97720  1.0000
  C   C2        1.0  0.20530  0.71430  0.02280  1.0000
  H   H5        1.0  0.74860  0.16590  0.04130  1.0000
  H   H6        1.0  0.25140  0.83410  0.95870  1.0000
  H   H7        1.0  0.72630  0.37620  0.01830  1.0000
  H   H8        1.0  0.27370  0.62380  0.98170  1.0000
  H   H9        1.0  0.97140  0.29700  0.96100  1.0000
  H   H10       1.0  0.02860  0.70300  0.03900  1.0000
  C   C3        1.0  0.69650  0.31420  0.83650  1.0000
  C   C4        1.0  0.30350  0.68580  0.16350  1.0000
