data_image0
_chemical_formula_structural       Fe2P4O6H2O8H2C2H6C2
_chemical_formula_sum              "Fe2 P4 O14 H10 C4"
_cell_length_a       5.5191
_cell_length_b       7.7183
_cell_length_c       10.051
_cell_angle_alpha    71.551
_cell_angle_beta     82.552
_cell_angle_gamma    87.627

_space_group_name_H-M_alt    "P 1"
_space_group_IT_number       1

loop_
  _space_group_symop_operation_xyz
  'x, y, z'

loop_
  _atom_site_type_symbol
  _atom_site_label
  _atom_site_symmetry_multiplicity
  _atom_site_fract_x
  _atom_site_fract_y
  _atom_site_fract_z
  _atom_site_occupancy
  Fe  Fe1       1.0  0.31835  0.35983  0.63172  1.0000
  Fe  Fe2       1.0  0.68165  0.64017  0.36828  1.0000
  P   P1        1.0  0.77931  0.13747  0.74928  1.0000
  P   P2        1.0  0.22069  0.86253  0.25072  1.0000
  P   P3        1.0  0.77526  0.53851  0.70991  1.0000
  P   P4        1.0  0.22474  0.46149  0.29009  1.0000
  O   O1        1.0  0.59660  0.15620  0.64460  1.0000
  O   O2        1.0  0.40340  0.84380  0.35540  1.0000
  O   O3        1.0  0.04490  0.15400  0.68890  1.0000
  O   O4        1.0  0.95510  0.84600  0.31110  1.0000
  O   O5        1.0  0.73500  0.94980  0.87080  1.0000
  O   O6        1.0  0.26500  0.05020  0.12920  1.0000
  H   H1        1.0  0.72800  0.85900  0.83700  1.0000
  H   H2        1.0  0.27200  0.14100  0.16300  1.0000
  O   O7        1.0  0.62110  0.55350  0.58950  1.0000
  O   O8        1.0  0.37890  0.44650  0.41050  1.0000
  O   O9        1.0  0.04760  0.53480  0.66660  1.0000
  O   O10       1.0  0.95240  0.46520  0.33340  1.0000
  O   O11       1.0  0.70220  0.68350  0.77890  1.0000
  O   O12       1.0  0.29780  0.31650  0.22110  1.0000
  O   O13       1.0  0.42590  0.30960  0.85700  1.0000
  O   O14       1.0  0.57410  0.69040  0.14300  1.0000
  H   H3        1.0  0.39400  0.23800  0.92400  1.0000
  H   H4        1.0  0.60600  0.76200  0.07600  1.0000
  C   C1        1.0  0.79590  0.28260  0.97510  1.0000
  C   C2        1.0  0.20410  0.71740  0.02490  1.0000
  H   H5        1.0  0.75040  0.16380  0.03900  1.0000
  H   H6        1.0  0.24960  0.83620  0.96100  1.0000
  H   H7        1.0  0.73230  0.37420  0.01630  1.0000
  H   H8        1.0  0.26770  0.62580  0.98370  1.0000
  H   H9        1.0  0.97080  0.29180  0.95730  1.0000
  H   H10       1.0  0.02920  0.70820  0.04270  1.0000
  C   C3        1.0  0.69210  0.31130  0.83720  1.0000
  C   C4        1.0  0.30790  0.68870  0.16280  1.0000
