data_image0
_chemical_formula_structural       Li8N64O24H16C16
_chemical_formula_sum              "Li8 N64 O24 H16 C16"
_cell_length_a       15.656
_cell_length_b       6.3323
_cell_length_c       23.814
_cell_angle_alpha    90
_cell_angle_beta     91.342
_cell_angle_gamma    90

_space_group_name_H-M_alt    "P 1"
_space_group_IT_number       1

loop_
  _space_group_symop_operation_xyz
  'x, y, z'

loop_
  _atom_site_type_symbol
  _atom_site_label
  _atom_site_symmetry_multiplicity
  _atom_site_fract_x
  _atom_site_fract_y
  _atom_site_fract_z
  _atom_site_occupancy
  Li  Li1       1.0  0.48430  0.02500  0.60920  1.0000
  Li  Li2       1.0  0.51570  0.02500  0.89080  1.0000
  Li  Li3       1.0  0.98430  0.52500  0.60920  1.0000
  Li  Li4       1.0  0.01570  0.52500  0.89080  1.0000
  Li  Li5       1.0  0.51570  0.97500  0.39080  1.0000
  Li  Li6       1.0  0.48430  0.97500  0.10920  1.0000
  Li  Li7       1.0  0.01570  0.47500  0.39080  1.0000
  Li  Li8       1.0  0.98430  0.47500  0.10920  1.0000
  N   N1        1.0  0.44225  0.41120  0.67613  1.0000
  N   N2        1.0  0.55775  0.41120  0.82387  1.0000
  N   N3        1.0  0.94225  0.91120  0.67613  1.0000
  N   N4        1.0  0.05775  0.91120  0.82387  1.0000
  N   N5        1.0  0.55775  0.58880  0.32387  1.0000
  N   N6        1.0  0.44225  0.58880  0.17613  1.0000
  N   N7        1.0  0.05775  0.08880  0.32387  1.0000
  N   N8        1.0  0.94225  0.08880  0.17613  1.0000
  N   N9        1.0  0.39838  0.51400  0.71526  1.0000
  N   N10       1.0  0.60162  0.51400  0.78474  1.0000
  N   N11       1.0  0.89838  0.01400  0.71526  1.0000
  N   N12       1.0  0.10162  0.01400  0.78474  1.0000
  N   N13       1.0  0.60162  0.48600  0.28474  1.0000
  N   N14       1.0  0.39838  0.48600  0.21526  1.0000
  N   N15       1.0  0.10162  0.98600  0.28474  1.0000
  N   N16       1.0  0.89838  0.98600  0.21526  1.0000
  N   N17       1.0  0.40679  0.71520  0.70459  1.0000
  N   N18       1.0  0.59321  0.71520  0.79541  1.0000
  N   N19       1.0  0.90679  0.21520  0.70459  1.0000
  N   N20       1.0  0.09321  0.21520  0.79541  1.0000
  N   N21       1.0  0.59321  0.28480  0.29541  1.0000
  N   N22       1.0  0.40679  0.28480  0.20459  1.0000
  N   N23       1.0  0.09321  0.78480  0.29541  1.0000
  N   N24       1.0  0.90679  0.78480  0.20459  1.0000
  N   N25       1.0  0.45506  0.74610  0.65941  1.0000
  N   N26       1.0  0.54494  0.74610  0.84059  1.0000
  N   N27       1.0  0.95506  0.24610  0.65941  1.0000
  N   N28       1.0  0.04494  0.24610  0.84059  1.0000
  N   N29       1.0  0.54494  0.25390  0.34059  1.0000
  N   N30       1.0  0.45506  0.25390  0.15941  1.0000
  N   N31       1.0  0.04494  0.75390  0.34059  1.0000
  N   N32       1.0  0.95506  0.75390  0.15941  1.0000
  N   N33       1.0  0.56882  0.64340  0.56341  1.0000
  N   N34       1.0  0.43118  0.64340  0.93659  1.0000
  N   N35       1.0  0.06882  0.14340  0.56341  1.0000
  N   N36       1.0  0.93118  0.14340  0.93659  1.0000
  N   N37       1.0  0.43118  0.35660  0.43659  1.0000
  N   N38       1.0  0.56882  0.35660  0.06341  1.0000
  N   N39       1.0  0.93118  0.85660  0.43659  1.0000
  N   N40       1.0  0.06882  0.85660  0.06341  1.0000
  N   N41       1.0  0.60695  0.53960  0.52170  1.0000
  N   N42       1.0  0.39305  0.53960  0.97830  1.0000
  N   N43       1.0  0.10695  0.03960  0.52170  1.0000
  N   N44       1.0  0.89305  0.03960  0.97830  1.0000
  N   N45       1.0  0.39305  0.46040  0.47830  1.0000
  N   N46       1.0  0.60695  0.46040  0.02170  1.0000
  N   N47       1.0  0.89305  0.96040  0.47830  1.0000
  N   N48       1.0  0.10695  0.96040  0.02170  1.0000
  N   N49       1.0  0.58925  0.33950  0.52851  1.0000
  N   N50       1.0  0.41075  0.33950  0.97149  1.0000
  N   N51       1.0  0.08925  0.83950  0.52851  1.0000
  N   N52       1.0  0.91075  0.83950  0.97149  1.0000
  N   N53       1.0  0.41075  0.66050  0.47149  1.0000
  N   N54       1.0  0.58925  0.66050  0.02851  1.0000
  N   N55       1.0  0.91075  0.16050  0.47149  1.0000
  N   N56       1.0  0.08925  0.16050  0.02851  1.0000
  N   N57       1.0  0.54054  0.31040  0.57368  1.0000
  N   N58       1.0  0.45946  0.31040  0.92632  1.0000
  N   N59       1.0  0.04054  0.81040  0.57368  1.0000
  N   N60       1.0  0.95946  0.81040  0.92632  1.0000
  N   N61       1.0  0.45946  0.68960  0.42632  1.0000
  N   N62       1.0  0.54054  0.68960  0.07368  1.0000
  N   N63       1.0  0.95946  0.18960  0.42632  1.0000
  N   N64       1.0  0.04054  0.18960  0.07368  1.0000
  O   O1        1.0  0.44582  0.20380  0.67403  1.0000
  O   O2        1.0  0.55418  0.20380  0.82597  1.0000
  O   O3        1.0  0.94582  0.70380  0.67403  1.0000
  O   O4        1.0  0.05418  0.70380  0.82597  1.0000
  O   O5        1.0  0.55418  0.79620  0.32597  1.0000
  O   O6        1.0  0.44582  0.79620  0.17403  1.0000
  O   O7        1.0  0.05418  0.29620  0.32597  1.0000
  O   O8        1.0  0.94582  0.29620  0.17403  1.0000
  O   O9        1.0  0.57410  0.84850  0.56846  1.0000
  O   O10       1.0  0.42590  0.84850  0.93154  1.0000
  O   O11       1.0  0.07410  0.34850  0.56846  1.0000
  O   O12       1.0  0.92590  0.34850  0.93154  1.0000
  O   O13       1.0  0.42590  0.15150  0.43154  1.0000
  O   O14       1.0  0.57410  0.15150  0.06846  1.0000
  O   O15       1.0  0.92590  0.65150  0.43154  1.0000
  O   O16       1.0  0.07410  0.65150  0.06846  1.0000
  O   O17       1.0  0.38663  0.01310  0.54935  1.0000
  O   O18       1.0  0.61337  0.01310  0.95065  1.0000
  O   O19       1.0  0.88663  0.51310  0.54935  1.0000
  O   O20       1.0  0.11337  0.51310  0.95065  1.0000
  O   O21       1.0  0.61337  0.98690  0.45065  1.0000
  O   O22       1.0  0.38663  0.98690  0.04935  1.0000
  O   O23       1.0  0.11337  0.48690  0.45065  1.0000
  O   O24       1.0  0.88663  0.48690  0.04935  1.0000
  H   H1        1.0  0.39000  0.88690  0.53750  1.0000
  H   H2        1.0  0.61000  0.88690  0.96250  1.0000
  H   H3        1.0  0.89000  0.38690  0.53750  1.0000
  H   H4        1.0  0.11000  0.38690  0.96250  1.0000
  H   H5        1.0  0.61000  0.11310  0.46250  1.0000
  H   H6        1.0  0.39000  0.11310  0.03750  1.0000
  H   H7        1.0  0.11000  0.61310  0.46250  1.0000
  H   H8        1.0  0.89000  0.61310  0.03750  1.0000
  H   H9        1.0  0.39600  0.09480  0.52180  1.0000
  H   H10       1.0  0.60400  0.09480  0.97820  1.0000
  H   H11       1.0  0.89600  0.59480  0.52180  1.0000
  H   H12       1.0  0.10400  0.59480  0.97820  1.0000
  H   H13       1.0  0.60400  0.90520  0.47820  1.0000
  H   H14       1.0  0.39600  0.90520  0.02180  1.0000
  H   H15       1.0  0.10400  0.40520  0.47820  1.0000
  H   H16       1.0  0.89600  0.40520  0.02180  1.0000
  C   C1        1.0  0.47725  0.55420  0.64244  1.0000
  C   C2        1.0  0.52275  0.55420  0.85756  1.0000
  C   C3        1.0  0.97725  0.05420  0.64244  1.0000
  C   C4        1.0  0.02275  0.05420  0.85756  1.0000
  C   C5        1.0  0.52275  0.44580  0.35756  1.0000
  C   C6        1.0  0.47725  0.44580  0.14244  1.0000
  C   C7        1.0  0.02275  0.94580  0.35756  1.0000
  C   C8        1.0  0.97725  0.94580  0.14244  1.0000
  C   C9        1.0  0.52799  0.50200  0.59468  1.0000
  C   C10       1.0  0.47201  0.50200  0.90532  1.0000
  C   C11       1.0  0.02799  0.00200  0.59468  1.0000
  C   C12       1.0  0.97201  0.00200  0.90532  1.0000
  C   C13       1.0  0.47201  0.49800  0.40532  1.0000
  C   C14       1.0  0.52799  0.49800  0.09468  1.0000
  C   C15       1.0  0.97201  0.99800  0.40532  1.0000
  C   C16       1.0  0.02799  0.99800  0.09468  1.0000
