data_image0
_chemical_formula_structural       Cd4S8O32C4N8C4H4C12H4C4H4C12H4C12H4C20H4C12H4C4H4C4H4C12H4C4H4C4H4C4H4C8H4
_chemical_formula_sum              "Cd4 S8 O32 C120 N8 H56"
_cell_length_a       22.3509
_cell_length_b       10.2742
_cell_length_c       20.0294
_cell_angle_alpha    90
_cell_angle_beta     107.606
_cell_angle_gamma    90

_space_group_name_H-M_alt    "P 1"
_space_group_IT_number       1

loop_
  _space_group_symop_operation_xyz
  'x, y, z'

loop_
  _atom_site_type_symbol
  _atom_site_label
  _atom_site_symmetry_multiplicity
  _atom_site_fract_x
  _atom_site_fract_y
  _atom_site_fract_z
  _atom_site_occupancy
  Cd  Cd1       1.0  0.18034  0.22735  0.29927  1.0000
  Cd  Cd2       1.0  0.81966  0.72735  0.20073  1.0000
  Cd  Cd3       1.0  0.81966  0.77265  0.70073  1.0000
  Cd  Cd4       1.0  0.18034  0.27265  0.79927  1.0000
  S   S1        1.0  0.46928  0.57698  0.40190  1.0000
  S   S2        1.0  0.53072  0.07698  0.09810  1.0000
  S   S3        1.0  0.53072  0.42302  0.59810  1.0000
  S   S4        1.0  0.46928  0.92302  0.90190  1.0000
  S   S5        1.0  0.88288  0.15870  0.88295  1.0000
  S   S6        1.0  0.11712  0.65870  0.61705  1.0000
  S   S7        1.0  0.11712  0.84130  0.11705  1.0000
  S   S8        1.0  0.88288  0.34130  0.38295  1.0000
  O   O1        1.0  0.26459  0.07930  0.32148  1.0000
  O   O2        1.0  0.73541  0.57930  0.17852  1.0000
  O   O3        1.0  0.73541  0.92070  0.67852  1.0000
  O   O4        1.0  0.26459  0.42070  0.82148  1.0000
  O   O5        1.0  0.25329  0.38566  0.31154  1.0000
  O   O6        1.0  0.74671  0.88566  0.18846  1.0000
  O   O7        1.0  0.74671  0.61434  0.68846  1.0000
  O   O8        1.0  0.25329  0.11434  0.81154  1.0000
  O   O9        1.0  0.10485  0.21570  0.19597  1.0000
  O   O10       1.0  0.89515  0.71570  0.30403  1.0000
  O   O11       1.0  0.89515  0.78430  0.80403  1.0000
  O   O12       1.0  0.10485  0.28430  0.69597  1.0000
  O   O13       1.0  0.17442  0.98480  0.31090  1.0000
  O   O14       1.0  0.82558  0.48480  0.18910  1.0000
  O   O15       1.0  0.82558  0.01520  0.68910  1.0000
  O   O16       1.0  0.17442  0.51520  0.81090  1.0000
  O   O17       1.0  0.08972  0.23230  0.83766  1.0000
  O   O18       1.0  0.91028  0.73230  0.66234  1.0000
  O   O19       1.0  0.91028  0.76770  0.16234  1.0000
  O   O20       1.0  0.08972  0.26770  0.33766  1.0000
  O   O21       1.0  0.18225  0.23610  0.91650  1.0000
  O   O22       1.0  0.81775  0.73610  0.58350  1.0000
  O   O23       1.0  0.81775  0.76390  0.08350  1.0000
  O   O24       1.0  0.18225  0.26390  0.41650  1.0000
  O   O25       1.0  0.19377  0.19450  0.17151  1.0000
  O   O26       1.0  0.80623  0.69450  0.32849  1.0000
  O   O27       1.0  0.80623  0.80550  0.82849  1.0000
  O   O28       1.0  0.19377  0.30550  0.67151  1.0000
  O   O29       1.0  0.16527  0.49610  0.28146  1.0000
  O   O30       1.0  0.83473  0.99610  0.21854  1.0000
  O   O31       1.0  0.83473  0.50390  0.71854  1.0000
  O   O32       1.0  0.16527  0.00390  0.78146  1.0000
  C   C1        1.0  0.42758  0.71750  0.40702  1.0000
  C   C2        1.0  0.57242  0.21750  0.09298  1.0000
  C   C3        1.0  0.57242  0.28250  0.59298  1.0000
  C   C4        1.0  0.42758  0.78250  0.90702  1.0000
  N   N1        1.0  0.90111  0.13760  0.01649  1.0000
  N   N2        1.0  0.09889  0.63760  0.48351  1.0000
  N   N3        1.0  0.09889  0.86240  0.98351  1.0000
  N   N4        1.0  0.90111  0.36240  0.51649  1.0000
  N   N5        1.0  0.46034  0.81290  0.44091  1.0000
  N   N6        1.0  0.53966  0.31290  0.05909  1.0000
  N   N7        1.0  0.53966  0.18710  0.55909  1.0000
  N   N8        1.0  0.46034  0.68710  0.94091  1.0000
  C   C5        1.0  0.02880  0.18430  0.93710  1.0000
  C   C6        1.0  0.97120  0.68430  0.56290  1.0000
  C   C7        1.0  0.97120  0.81570  0.06290  1.0000
  C   C8        1.0  0.02880  0.31570  0.43710  1.0000
  H   H1        1.0  0.00520  0.18450  0.89010  1.0000
  H   H2        1.0  0.99480  0.68450  0.60990  1.0000
  H   H3        1.0  0.99480  0.81550  0.10990  1.0000
  H   H4        1.0  0.00520  0.31550  0.39010  1.0000
  C   C9        1.0  0.09304  0.19910  0.95519  1.0000
  C   C10       1.0  0.90696  0.69910  0.54481  1.0000
  C   C11       1.0  0.90696  0.80090  0.04481  1.0000
  C   C12       1.0  0.09304  0.30090  0.45519  1.0000
  C   C13       1.0  0.93028  0.15350  0.97004  1.0000
  C   C14       1.0  0.06972  0.65350  0.52996  1.0000
  C   C15       1.0  0.06972  0.84650  0.02996  1.0000
  C   C16       1.0  0.93028  0.34650  0.47004  1.0000
  C   C17       1.0  0.12841  0.19950  0.02572  1.0000
  C   C18       1.0  0.87159  0.69950  0.47428  1.0000
  C   C19       1.0  0.87159  0.80050  0.97428  1.0000
  C   C20       1.0  0.12841  0.30050  0.52572  1.0000
  H   H5        1.0  0.17190  0.20660  0.03820  1.0000
  H   H6        1.0  0.82810  0.70660  0.46180  1.0000
  H   H7        1.0  0.82810  0.79340  0.96180  1.0000
  H   H8        1.0  0.17190  0.29340  0.53820  1.0000
  C   C21       1.0  0.32503  0.61010  0.35274  1.0000
  C   C22       1.0  0.67497  0.11010  0.14726  1.0000
  C   C23       1.0  0.67497  0.38990  0.64726  1.0000
  C   C24       1.0  0.32503  0.88990  0.85274  1.0000
  H   H9        1.0  0.34540  0.53000  0.36010  1.0000
  H   H10       1.0  0.65460  0.03000  0.13990  1.0000
  H   H11       1.0  0.65460  0.47000  0.63990  1.0000
  H   H12       1.0  0.34540  0.97000  0.86010  1.0000
  C   C25       1.0  0.99861  0.16900  0.98801  1.0000
  C   C26       1.0  0.00139  0.66900  0.51199  1.0000
  C   C27       1.0  0.00139  0.83100  0.01199  1.0000
  C   C28       1.0  0.99861  0.33100  0.48801  1.0000
  C   C29       1.0  0.35932  0.72310  0.37269  1.0000
  C   C30       1.0  0.64068  0.22310  0.12731  1.0000
  C   C31       1.0  0.64068  0.27690  0.62731  1.0000
  C   C32       1.0  0.35932  0.77690  0.87269  1.0000
  C   C33       1.0  0.23024  0.73420  0.31162  1.0000
  C   C34       1.0  0.76976  0.23420  0.18838  1.0000
  C   C35       1.0  0.76976  0.26580  0.68838  1.0000
  C   C36       1.0  0.23024  0.76580  0.81162  1.0000
  H   H13       1.0  0.18690  0.73800  0.29160  1.0000
  H   H14       1.0  0.81310  0.23800  0.20840  1.0000
  H   H15       1.0  0.81310  0.26200  0.70840  1.0000
  H   H16       1.0  0.18690  0.76200  0.79160  1.0000
  C   C37       1.0  0.23220  0.97960  0.32040  1.0000
  C   C38       1.0  0.76780  0.47960  0.17960  1.0000
  C   C39       1.0  0.76780  0.02040  0.67960  1.0000
  C   C40       1.0  0.23220  0.52040  0.82040  1.0000
  C   C41       1.0  0.25981  0.61490  0.32158  1.0000
  C   C42       1.0  0.74019  0.11490  0.17842  1.0000
  C   C43       1.0  0.74019  0.38510  0.67842  1.0000
  C   C44       1.0  0.25981  0.88510  0.82158  1.0000
  C   C45       1.0  0.32902  0.84270  0.36143  1.0000
  C   C46       1.0  0.67098  0.34270  0.13857  1.0000
  C   C47       1.0  0.67098  0.15730  0.63857  1.0000
  C   C48       1.0  0.32902  0.65730  0.86143  1.0000
  H   H17       1.0  0.35210  0.91880  0.37420  1.0000
  H   H18       1.0  0.64790  0.41880  0.12580  1.0000
  H   H19       1.0  0.64790  0.08120  0.62580  1.0000
  H   H20       1.0  0.35210  0.58120  0.87420  1.0000
  C   C49       1.0  0.26397  0.84920  0.33096  1.0000
  C   C50       1.0  0.73603  0.34920  0.16904  1.0000
  C   C51       1.0  0.73603  0.15080  0.66904  1.0000
  C   C52       1.0  0.26397  0.65080  0.83096  1.0000
  C   C53       1.0  0.83683  0.13020  0.98392  1.0000
  C   C54       1.0  0.16317  0.63020  0.51608  1.0000
  C   C55       1.0  0.16317  0.86980  0.01608  1.0000
  C   C56       1.0  0.83683  0.36980  0.48392  1.0000
  C   C57       1.0  0.81792  0.14130  0.91185  1.0000
  C   C58       1.0  0.18208  0.64130  0.58815  1.0000
  C   C59       1.0  0.18208  0.85870  0.08815  1.0000
  C   C60       1.0  0.81792  0.35870  0.41185  1.0000
  C   C61       1.0  0.12440  0.22280  0.89958  1.0000
  C   C62       1.0  0.87560  0.72280  0.60042  1.0000
  C   C63       1.0  0.87560  0.77720  0.10042  1.0000
  C   C64       1.0  0.12440  0.27720  0.39958  1.0000
  C   C65       1.0  0.03430  0.17450  0.05833  1.0000
  C   C66       1.0  0.96570  0.67450  0.44167  1.0000
  C   C67       1.0  0.96570  0.82550  0.94167  1.0000
  C   C68       1.0  0.03430  0.32550  0.55833  1.0000
  H   H21       1.0  0.01450  0.16830  0.09290  1.0000
  H   H22       1.0  0.98550  0.66830  0.40710  1.0000
  H   H23       1.0  0.98550  0.83170  0.90710  1.0000
  H   H24       1.0  0.01450  0.33170  0.59290  1.0000
  C   C69       1.0  0.09901  0.18930  0.07729  1.0000
  C   C70       1.0  0.90099  0.68930  0.42271  1.0000
  C   C71       1.0  0.90099  0.81070  0.92271  1.0000
  C   C72       1.0  0.09901  0.31070  0.57729  1.0000
  C   C73       1.0  0.22311  0.49010  0.30264  1.0000
  C   C74       1.0  0.77689  0.99010  0.19736  1.0000
  C   C75       1.0  0.77689  0.50990  0.69736  1.0000
  C   C76       1.0  0.22311  0.00990  0.80264  1.0000
  C   C77       1.0  0.63149  0.80720  0.53070  1.0000
  C   C78       1.0  0.36851  0.30720  0.96930  1.0000
  C   C79       1.0  0.36851  0.19280  0.46930  1.0000
  C   C80       1.0  0.63149  0.69280  0.03070  1.0000
  H   H25       1.0  0.66360  0.85890  0.55850  1.0000
  H   H26       1.0  0.33640  0.35890  0.94150  1.0000
  H   H27       1.0  0.33640  0.14110  0.44150  1.0000
  H   H28       1.0  0.66360  0.64110  0.05850  1.0000
  C   C81       1.0  0.57116  0.85550  0.50820  1.0000
  C   C82       1.0  0.42884  0.35550  0.99180  1.0000
  C   C83       1.0  0.42884  0.14450  0.49180  1.0000
  C   C84       1.0  0.57116  0.64450  0.00820  1.0000
  H   H29       1.0  0.56250  0.93920  0.52040  1.0000
  H   H30       1.0  0.43750  0.43920  0.97960  1.0000
  H   H31       1.0  0.43750  0.06080  0.47960  1.0000
  H   H32       1.0  0.56250  0.56080  0.02040  1.0000
  C   C85       1.0  0.73030  0.11810  0.98140  1.0000
  C   C86       1.0  0.26970  0.61810  0.51860  1.0000
  C   C87       1.0  0.26970  0.88190  0.01860  1.0000
  C   C88       1.0  0.73030  0.38190  0.48140  1.0000
  H   H33       1.0  0.70000  0.11080  0.00440  1.0000
  H   H34       1.0  0.30000  0.61080  0.49560  1.0000
  H   H35       1.0  0.30000  0.88920  0.99560  1.0000
  H   H36       1.0  0.70000  0.38920  0.50440  1.0000
  C   C89       1.0  0.13600  0.19930  0.15384  1.0000
  C   C90       1.0  0.86400  0.69930  0.34616  1.0000
  C   C91       1.0  0.86400  0.80070  0.84616  1.0000
  C   C92       1.0  0.13600  0.30070  0.65384  1.0000
  C   C93       1.0  0.53747  0.65370  0.45016  1.0000
  C   C94       1.0  0.46253  0.15370  0.04984  1.0000
  C   C95       1.0  0.46253  0.34630  0.54984  1.0000
  C   C96       1.0  0.53747  0.84630  0.95016  1.0000
  C   C97       1.0  0.75443  0.14170  0.87330  1.0000
  C   C98       1.0  0.24557  0.64170  0.62670  1.0000
  C   C99       1.0  0.24557  0.85830  0.12670  1.0000
  C   C100      1.0  0.75443  0.35830  0.37330  1.0000
  H   H37       1.0  0.74160  0.14920  0.82470  1.0000
  H   H38       1.0  0.25840  0.64920  0.67530  1.0000
  H   H39       1.0  0.25840  0.85080  0.17530  1.0000
  H   H40       1.0  0.74160  0.35080  0.32470  1.0000
  C   C101      1.0  0.71159  0.13060  0.91010  1.0000
  C   C102      1.0  0.28841  0.63060  0.58990  1.0000
  C   C103      1.0  0.28841  0.86940  0.08990  1.0000
  C   C104      1.0  0.71159  0.36940  0.41010  1.0000
  H   H41       1.0  0.66890  0.13160  0.88590  1.0000
  H   H42       1.0  0.33110  0.63160  0.61410  1.0000
  H   H43       1.0  0.33110  0.86840  0.11410  1.0000
  H   H44       1.0  0.66890  0.36840  0.38590  1.0000
  C   C105      1.0  0.59859  0.60560  0.47270  1.0000
  C   C106      1.0  0.40141  0.10560  0.02730  1.0000
  C   C107      1.0  0.40141  0.39440  0.52730  1.0000
  C   C108      1.0  0.59859  0.89440  0.97270  1.0000
  H   H45       1.0  0.60780  0.52210  0.46090  1.0000
  H   H46       1.0  0.39220  0.02210  0.03910  1.0000
  H   H47       1.0  0.39220  0.47790  0.53910  1.0000
  H   H48       1.0  0.60780  0.97790  0.96090  1.0000
  C   C109      1.0  0.79247  0.11610  0.02010  1.0000
  C   C110      1.0  0.20753  0.61610  0.47990  1.0000
  C   C111      1.0  0.20753  0.88390  0.97990  1.0000
  C   C112      1.0  0.79247  0.38390  0.52010  1.0000
  H   H49       1.0  0.80470  0.10580  0.06840  1.0000
  H   H50       1.0  0.19530  0.60580  0.43160  1.0000
  H   H51       1.0  0.19530  0.89420  0.93160  1.0000
  H   H52       1.0  0.80470  0.39420  0.56840  1.0000
  C   C113      1.0  0.52346  0.77750  0.46710  1.0000
  C   C114      1.0  0.47654  0.27750  0.03290  1.0000
  C   C115      1.0  0.47654  0.22250  0.53290  1.0000
  C   C116      1.0  0.52346  0.72250  0.96710  1.0000
  C   C117      1.0  0.64488  0.68540  0.51310  1.0000
  C   C118      1.0  0.35512  0.18540  0.98690  1.0000
  C   C119      1.0  0.35512  0.31460  0.48690  1.0000
  C   C120      1.0  0.64488  0.81460  0.01310  1.0000
  H   H53       1.0  0.68610  0.65550  0.52860  1.0000
  H   H54       1.0  0.31390  0.15550  0.97140  1.0000
  H   H55       1.0  0.31390  0.34450  0.47140  1.0000
  H   H56       1.0  0.68610  0.84450  0.02860  1.0000
