data_image0
_chemical_formula_structural       Zn8P8O16H4O16H4O16C12H4C4H4C8H4C4H4C4
_chemical_formula_sum              "Zn8 P8 O48 H24 C32"
_cell_length_a       9.974
_cell_length_b       9.1804
_cell_length_c       27.5385
_cell_angle_alpha    90
_cell_angle_beta     90
_cell_angle_gamma    90

_space_group_name_H-M_alt    "P 1"
_space_group_IT_number       1

loop_
  _space_group_symop_operation_xyz
  'x, y, z'

loop_
  _atom_site_type_symbol
  _atom_site_label
  _atom_site_symmetry_multiplicity
  _atom_site_fract_x
  _atom_site_fract_y
  _atom_site_fract_z
  _atom_site_occupancy
  Zn  Zn1       1.0  0.62128  0.32750  0.05796  1.0000
  Zn  Zn2       1.0  0.37872  0.67250  0.55796  1.0000
  Zn  Zn3       1.0  0.12128  0.17250  0.05796  1.0000
  Zn  Zn4       1.0  0.87872  0.82750  0.55796  1.0000
  Zn  Zn5       1.0  0.43416  0.67979  0.96054  1.0000
  Zn  Zn6       1.0  0.56584  0.32021  0.46054  1.0000
  Zn  Zn7       1.0  0.93416  0.82021  0.96054  1.0000
  Zn  Zn8       1.0  0.06584  0.17979  0.46054  1.0000
  P   P1        1.0  0.72228  0.57882  0.98473  1.0000
  P   P2        1.0  0.27772  0.42118  0.48473  1.0000
  P   P3        1.0  0.22228  0.92118  0.98473  1.0000
  P   P4        1.0  0.77772  0.07882  0.48473  1.0000
  P   P5        1.0  0.32699  0.41845  0.03494  1.0000
  P   P6        1.0  0.67301  0.58155  0.53494  1.0000
  P   P7        1.0  0.82699  0.08155  0.03494  1.0000
  P   P8        1.0  0.17301  0.91845  0.53494  1.0000
  O   O1        1.0  0.62160  0.69980  0.97481  1.0000
  O   O2        1.0  0.37840  0.30020  0.47481  1.0000
  O   O3        1.0  0.12160  0.80020  0.97481  1.0000
  O   O4        1.0  0.87840  0.19980  0.47481  1.0000
  O   O5        1.0  0.69920  0.50250  0.03279  1.0000
  O   O6        1.0  0.30080  0.49750  0.53279  1.0000
  O   O7        1.0  0.19920  0.99750  0.03279  1.0000
  O   O8        1.0  0.80080  0.00250  0.53279  1.0000
  O   O9        1.0  0.86480  0.63380  0.98406  1.0000
  O   O10       1.0  0.13520  0.36620  0.48406  1.0000
  O   O11       1.0  0.36480  0.86620  0.98406  1.0000
  O   O12       1.0  0.63520  0.13380  0.48406  1.0000
  O   O13       1.0  0.70690  0.45940  0.94419  1.0000
  O   O14       1.0  0.29310  0.54060  0.44419  1.0000
  O   O15       1.0  0.20690  0.04060  0.94419  1.0000
  O   O16       1.0  0.79310  0.95940  0.44419  1.0000
  H   H1        1.0  0.66470  0.49330  0.92120  1.0000
  H   H2        1.0  0.33530  0.50670  0.42120  1.0000
  H   H3        1.0  0.16470  0.00670  0.92120  1.0000
  H   H4        1.0  0.83530  0.99330  0.42120  1.0000
  O   O17       1.0  0.43830  0.30560  0.04014  1.0000
  O   O18       1.0  0.56170  0.69440  0.54014  1.0000
  O   O19       1.0  0.93830  0.19440  0.04014  1.0000
  O   O20       1.0  0.06170  0.80560  0.54014  1.0000
  O   O21       1.0  0.19140  0.35130  0.02861  1.0000
  O   O22       1.0  0.80860  0.64870  0.52861  1.0000
  O   O23       1.0  0.69140  0.14870  0.02861  1.0000
  O   O24       1.0  0.30860  0.85130  0.52861  1.0000
  O   O25       1.0  0.34960  0.52130  0.99314  1.0000
  O   O26       1.0  0.65040  0.47870  0.49314  1.0000
  O   O27       1.0  0.84960  0.97870  0.99314  1.0000
  O   O28       1.0  0.15040  0.02130  0.49314  1.0000
  O   O29       1.0  0.32470  0.51300  0.08314  1.0000
  O   O30       1.0  0.67530  0.48700  0.58314  1.0000
  O   O31       1.0  0.82470  0.98700  0.08314  1.0000
  O   O32       1.0  0.17530  0.01300  0.58314  1.0000
  H   H5        1.0  0.31260  0.45950  0.10660  1.0000
  H   H6        1.0  0.68740  0.54050  0.60660  1.0000
  H   H7        1.0  0.81260  0.04050  0.10660  1.0000
  H   H8        1.0  0.18740  0.95950  0.60660  1.0000
  O   O33       1.0  0.63230  0.36050  0.12794  1.0000
  O   O34       1.0  0.36770  0.63950  0.62794  1.0000
  O   O35       1.0  0.13230  0.13950  0.12794  1.0000
  O   O36       1.0  0.86770  0.86050  0.62794  1.0000
  O   O37       1.0  0.60590  0.34500  0.39213  1.0000
  O   O38       1.0  0.39410  0.65500  0.89213  1.0000
  O   O39       1.0  0.10590  0.15500  0.39213  1.0000
  O   O40       1.0  0.89410  0.84500  0.89213  1.0000
  O   O41       1.0  0.77980  0.19660  0.15260  1.0000
  O   O42       1.0  0.22020  0.80340  0.65260  1.0000
  O   O43       1.0  0.27980  0.30340  0.15260  1.0000
  O   O44       1.0  0.72020  0.69660  0.65260  1.0000
  O   O45       1.0  0.42380  0.45850  0.36508  1.0000
  O   O46       1.0  0.57620  0.54150  0.86508  1.0000
  O   O47       1.0  0.92380  0.04150  0.36508  1.0000
  O   O48       1.0  0.07620  0.95850  0.86508  1.0000
  C   C1        1.0  0.69550  0.29530  0.16010  1.0000
  C   C2        1.0  0.30450  0.70470  0.66010  1.0000
  C   C3        1.0  0.19550  0.20470  0.16010  1.0000
  C   C4        1.0  0.80450  0.79530  0.66010  1.0000
  C   C5        1.0  0.66320  0.33490  0.21210  1.0000
  C   C6        1.0  0.33680  0.66510  0.71210  1.0000
  C   C7        1.0  0.16320  0.16510  0.21210  1.0000
  C   C8        1.0  0.83680  0.83490  0.71210  1.0000
  C   C9        1.0  0.72970  0.27060  0.25010  1.0000
  C   C10       1.0  0.27030  0.72940  0.75010  1.0000
  C   C11       1.0  0.22970  0.22940  0.25010  1.0000
  C   C12       1.0  0.77030  0.77060  0.75010  1.0000
  H   H9        1.0  0.80040  0.20760  0.24350  1.0000
  H   H10       1.0  0.19960  0.79240  0.74350  1.0000
  H   H11       1.0  0.30040  0.29240  0.24350  1.0000
  H   H12       1.0  0.69960  0.70760  0.74350  1.0000
  C   C13       1.0  0.69470  0.29660  0.29740  1.0000
  C   C14       1.0  0.30530  0.70340  0.79740  1.0000
  C   C15       1.0  0.19470  0.20340  0.29740  1.0000
  C   C16       1.0  0.80530  0.79660  0.79740  1.0000
  H   H13       1.0  0.74450  0.25580  0.32260  1.0000
  H   H14       1.0  0.25550  0.74420  0.82260  1.0000
  H   H15       1.0  0.24450  0.24420  0.32260  1.0000
  H   H16       1.0  0.75550  0.75580  0.82260  1.0000
  C   C17       1.0  0.58590  0.38340  0.30770  1.0000
  C   C18       1.0  0.41410  0.61660  0.80770  1.0000
  C   C19       1.0  0.08590  0.11660  0.30770  1.0000
  C   C20       1.0  0.91410  0.88340  0.80770  1.0000
  C   C21       1.0  0.51840  0.45190  0.26980  1.0000
  C   C22       1.0  0.48160  0.54810  0.76980  1.0000
  C   C23       1.0  0.01840  0.04810  0.26980  1.0000
  C   C24       1.0  0.98160  0.95190  0.76980  1.0000
  H   H17       1.0  0.44700  0.51390  0.27650  1.0000
  H   H18       1.0  0.55300  0.48610  0.77650  1.0000
  H   H19       1.0  0.94700  0.98610  0.27650  1.0000
  H   H20       1.0  0.05300  0.01390  0.77650  1.0000
  C   C25       1.0  0.55760  0.42790  0.22270  1.0000
  C   C26       1.0  0.44240  0.57210  0.72270  1.0000
  C   C27       1.0  0.05760  0.07210  0.22270  1.0000
  C   C28       1.0  0.94240  0.92790  0.72270  1.0000
  H   H21       1.0  0.51260  0.47460  0.19750  1.0000
  H   H22       1.0  0.48740  0.52540  0.69750  1.0000
  H   H23       1.0  0.01260  0.02540  0.19750  1.0000
  H   H24       1.0  0.98740  0.97460  0.69750  1.0000
  C   C29       1.0  0.53390  0.39890  0.35890  1.0000
  C   C30       1.0  0.46610  0.60110  0.85890  1.0000
  C   C31       1.0  0.03390  0.10110  0.35890  1.0000
  C   C32       1.0  0.96610  0.89890  0.85890  1.0000
