data_image0
_chemical_formula_structural       Ba4Ti8O24H4O48C12H8C8H8C16H8C8H8C4O16H32
_chemical_formula_sum              "Ba4 Ti8 O88 H68 C48"
_cell_length_a       10.2507
_cell_length_b       27.026
_cell_length_c       9.4169
_cell_angle_alpha    90
_cell_angle_beta     107.001
_cell_angle_gamma    90

_space_group_name_H-M_alt    "P 1"
_space_group_IT_number       1

loop_
  _space_group_symop_operation_xyz
  'x, y, z'

loop_
  _atom_site_type_symbol
  _atom_site_label
  _atom_site_symmetry_multiplicity
  _atom_site_fract_x
  _atom_site_fract_y
  _atom_site_fract_z
  _atom_site_occupancy
  Ba  Ba1       1.0  0.00428  0.44303  0.19986  1.0000
  Ba  Ba2       1.0  0.00428  0.05697  0.69986  1.0000
  Ba  Ba3       1.0  0.99572  0.55697  0.80014  1.0000
  Ba  Ba4       1.0  0.99572  0.94303  0.30014  1.0000
  Ti  Ti1       1.0  0.27817  0.43203  0.99148  1.0000
  Ti  Ti2       1.0  0.27817  0.06797  0.49148  1.0000
  Ti  Ti3       1.0  0.72183  0.56797  0.00852  1.0000
  Ti  Ti4       1.0  0.72183  0.93203  0.50852  1.0000
  Ti  Ti5       1.0  0.56639  0.37890  0.02729  1.0000
  Ti  Ti6       1.0  0.56639  0.12110  0.52729  1.0000
  Ti  Ti7       1.0  0.43361  0.62110  0.97271  1.0000
  Ti  Ti8       1.0  0.43361  0.87890  0.47271  1.0000
  O   O1        1.0  0.36540  0.36872  0.94140  1.0000
  O   O2        1.0  0.36540  0.13128  0.44140  1.0000
  O   O3        1.0  0.63460  0.63128  0.05860  1.0000
  O   O4        1.0  0.63460  0.86872  0.55860  1.0000
  O   O5        1.0  0.14140  0.40590  0.80040  1.0000
  O   O6        1.0  0.14140  0.09410  0.30040  1.0000
  O   O7        1.0  0.85860  0.59410  0.19960  1.0000
  O   O8        1.0  0.85860  0.90590  0.69960  1.0000
  O   O9        1.0  0.05930  0.33862  0.67160  1.0000
  O   O10       1.0  0.05930  0.16138  0.17160  1.0000
  O   O11       1.0  0.94070  0.66138  0.32840  1.0000
  O   O12       1.0  0.94070  0.83862  0.82840  1.0000
  O   O13       1.0  0.20110  0.38396  0.11050  1.0000
  O   O14       1.0  0.20110  0.11604  0.61050  1.0000
  O   O15       1.0  0.79890  0.61604  0.88950  1.0000
  O   O16       1.0  0.79890  0.88396  0.38950  1.0000
  O   O17       1.0  0.11030  0.31710  0.17460  1.0000
  O   O18       1.0  0.11030  0.18290  0.67460  1.0000
  O   O19       1.0  0.88970  0.68290  0.82540  1.0000
  O   O20       1.0  0.88970  0.81710  0.32540  1.0000
  O   O21       1.0  0.45160  0.28868  0.61700  1.0000
  O   O22       1.0  0.45160  0.21132  0.11700  1.0000
  O   O23       1.0  0.54840  0.71132  0.38300  1.0000
  O   O24       1.0  0.54840  0.78868  0.88300  1.0000
  H   H1        1.0  0.47300  0.30400  0.57100  1.0000
  H   H2        1.0  0.47300  0.19600  0.07100  1.0000
  H   H3        1.0  0.52700  0.69600  0.42900  1.0000
  H   H4        1.0  0.52700  0.80400  0.92900  1.0000
  O   O25       1.0  0.33860  0.35881  0.61340  1.0000
  O   O26       1.0  0.33860  0.14119  0.11340  1.0000
  O   O27       1.0  0.66140  0.64119  0.38660  1.0000
  O   O28       1.0  0.66140  0.85881  0.88660  1.0000
  O   O29       1.0  0.24350  0.48346  0.10890  1.0000
  O   O30       1.0  0.24350  0.01654  0.60890  1.0000
  O   O31       1.0  0.75650  0.51654  0.89110  1.0000
  O   O32       1.0  0.75650  0.98346  0.39110  1.0000
  O   O33       1.0  0.12960  0.47485  0.97570  1.0000
  O   O34       1.0  0.12960  0.02515  0.47570  1.0000
  O   O35       1.0  0.87040  0.52515  0.02430  1.0000
  O   O36       1.0  0.87040  0.97485  0.52430  1.0000
  O   O37       1.0  0.47130  0.43188  0.12240  1.0000
  O   O38       1.0  0.47130  0.06812  0.62240  1.0000
  O   O39       1.0  0.52870  0.56812  0.87760  1.0000
  O   O40       1.0  0.52870  0.93188  0.37760  1.0000
  O   O41       1.0  0.72340  0.42197  0.15240  1.0000
  O   O42       1.0  0.72340  0.07803  0.65240  1.0000
  O   O43       1.0  0.27660  0.57803  0.84760  1.0000
  O   O44       1.0  0.27660  0.92197  0.34760  1.0000
  O   O45       1.0  0.79590  0.46144  0.36610  1.0000
  O   O46       1.0  0.79590  0.03856  0.86610  1.0000
  O   O47       1.0  0.20410  0.53856  0.63390  1.0000
  O   O48       1.0  0.20410  0.96144  0.13390  1.0000
  O   O49       1.0  0.57230  0.34398  0.21810  1.0000
  O   O50       1.0  0.57230  0.15602  0.71810  1.0000
  O   O51       1.0  0.42770  0.65602  0.78190  1.0000
  O   O52       1.0  0.42770  0.84398  0.28190  1.0000
  O   O53       1.0  0.57000  0.32459  0.43920  1.0000
  O   O54       1.0  0.57000  0.17541  0.93920  1.0000
  O   O55       1.0  0.43000  0.67541  0.56080  1.0000
  O   O56       1.0  0.43000  0.82459  0.06080  1.0000
  O   O57       1.0  0.64210  0.53100  0.14760  1.0000
  O   O58       1.0  0.64210  0.96900  0.64760  1.0000
  O   O59       1.0  0.35790  0.46900  0.85240  1.0000
  O   O60       1.0  0.35790  0.03100  0.35240  1.0000
  O   O61       1.0  0.44770  0.56962  0.13920  1.0000
  O   O62       1.0  0.44770  0.93038  0.63920  1.0000
  O   O63       1.0  0.55230  0.43038  0.86080  1.0000
  O   O64       1.0  0.55230  0.06962  0.36080  1.0000
  O   O65       1.0  0.59160  0.32192  0.93130  1.0000
  O   O66       1.0  0.59160  0.17808  0.43130  1.0000
  O   O67       1.0  0.40840  0.67808  0.06870  1.0000
  O   O68       1.0  0.40840  0.82192  0.56870  1.0000
  O   O69       1.0  0.71500  0.34348  0.00700  1.0000
  O   O70       1.0  0.71500  0.15652  0.50700  1.0000
  O   O71       1.0  0.28500  0.65652  0.99300  1.0000
  O   O72       1.0  0.28500  0.84348  0.49300  1.0000
  C   C1        1.0  0.26900  0.33250  0.87240  1.0000
  C   C2        1.0  0.26900  0.16750  0.37240  1.0000
  C   C3        1.0  0.73100  0.66750  0.12760  1.0000
  C   C4        1.0  0.73100  0.83250  0.62760  1.0000
  C   C5        1.0  0.14640  0.35991  0.77110  1.0000
  C   C6        1.0  0.14640  0.14009  0.27110  1.0000
  C   C7        1.0  0.85360  0.64009  0.22890  1.0000
  C   C8        1.0  0.85360  0.85991  0.72890  1.0000
  C   C9        1.0  0.22420  0.30567  0.99440  1.0000
  C   C10       1.0  0.22420  0.19433  0.49440  1.0000
  C   C11       1.0  0.77580  0.69433  0.00560  1.0000
  C   C12       1.0  0.77580  0.80567  0.50560  1.0000
  H   H5        1.0  0.15250  0.28250  0.94680  1.0000
  H   H6        1.0  0.15250  0.21750  0.44680  1.0000
  H   H7        1.0  0.84750  0.71750  0.05320  1.0000
  H   H8        1.0  0.84750  0.78250  0.55320  1.0000
  H   H9        1.0  0.30100  0.28640  0.05320  1.0000
  H   H10       1.0  0.30100  0.21360  0.55320  1.0000
  H   H11       1.0  0.69900  0.71360  0.94680  1.0000
  H   H12       1.0  0.69900  0.78640  0.44680  1.0000
  C   C13       1.0  0.17370  0.33734  0.09850  1.0000
  C   C14       1.0  0.17370  0.16266  0.59850  1.0000
  C   C15       1.0  0.82630  0.66266  0.90150  1.0000
  C   C16       1.0  0.82630  0.83734  0.40150  1.0000
  C   C17       1.0  0.32370  0.29498  0.78460  1.0000
  C   C18       1.0  0.32370  0.20502  0.28460  1.0000
  C   C19       1.0  0.67630  0.70502  0.21540  1.0000
  C   C20       1.0  0.67630  0.79498  0.71540  1.0000
  H   H13       1.0  0.39980  0.27750  0.85160  1.0000
  H   H14       1.0  0.39980  0.22250  0.35160  1.0000
  H   H15       1.0  0.60020  0.72250  0.14840  1.0000
  H   H16       1.0  0.60020  0.77750  0.64840  1.0000
  H   H17       1.0  0.25300  0.27090  0.74140  1.0000
  H   H18       1.0  0.25300  0.22910  0.24140  1.0000
  H   H19       1.0  0.74700  0.72910  0.25860  1.0000
  H   H20       1.0  0.74700  0.77090  0.75860  1.0000
  C   C21       1.0  0.37030  0.31842  0.66310  1.0000
  C   C22       1.0  0.37030  0.18158  0.16310  1.0000
  C   C23       1.0  0.62970  0.68158  0.33690  1.0000
  C   C24       1.0  0.62970  0.81842  0.83690  1.0000
  C   C25       1.0  0.55200  0.44706  0.26440  1.0000
  C   C26       1.0  0.55200  0.05294  0.76440  1.0000
  C   C27       1.0  0.44800  0.55294  0.73560  1.0000
  C   C28       1.0  0.44800  0.94706  0.23560  1.0000
  C   C29       1.0  0.70150  0.44450  0.26250  1.0000
  C   C30       1.0  0.70150  0.05550  0.76250  1.0000
  C   C31       1.0  0.29850  0.55550  0.73750  1.0000
  C   C32       1.0  0.29850  0.94450  0.23750  1.0000
  C   C33       1.0  0.53110  0.40946  0.37780  1.0000
  C   C34       1.0  0.53110  0.09054  0.87780  1.0000
  C   C35       1.0  0.46890  0.59054  0.62220  1.0000
  C   C36       1.0  0.46890  0.90946  0.12220  1.0000
  H   H21       1.0  0.59130  0.41790  0.47500  1.0000
  H   H22       1.0  0.59130  0.08210  0.97500  1.0000
  H   H23       1.0  0.40870  0.58210  0.52500  1.0000
  H   H24       1.0  0.40870  0.91790  0.02500  1.0000
  H   H25       1.0  0.43800  0.41210  0.38240  1.0000
  H   H26       1.0  0.43800  0.08790  0.88240  1.0000
  H   H27       1.0  0.56200  0.58790  0.61760  1.0000
  H   H28       1.0  0.56200  0.91210  0.11760  1.0000
  C   C37       1.0  0.55790  0.35580  0.34330  1.0000
  C   C38       1.0  0.55790  0.14420  0.84330  1.0000
  C   C39       1.0  0.44210  0.64420  0.65670  1.0000
  C   C40       1.0  0.44210  0.85580  0.15670  1.0000
  C   C41       1.0  0.51540  0.49957  0.29930  1.0000
  C   C42       1.0  0.51540  0.00043  0.79930  1.0000
  C   C43       1.0  0.48460  0.50043  0.70070  1.0000
  C   C44       1.0  0.48460  0.99957  0.20070  1.0000
  H   H29       1.0  0.42120  0.50030  0.30070  1.0000
  H   H30       1.0  0.42120  0.99970  0.80070  1.0000
  H   H31       1.0  0.57880  0.49970  0.69930  1.0000
  H   H32       1.0  0.57880  0.00030  0.19930  1.0000
  H   H33       1.0  0.57250  0.50900  0.39700  1.0000
  H   H34       1.0  0.57250  0.99100  0.89700  1.0000
  H   H35       1.0  0.42750  0.49100  0.60300  1.0000
  H   H36       1.0  0.42750  0.00900  0.10300  1.0000
  C   C45       1.0  0.53450  0.53639  0.18520  1.0000
  C   C46       1.0  0.53450  0.96361  0.68520  1.0000
  C   C47       1.0  0.46550  0.46361  0.81480  1.0000
  C   C48       1.0  0.46550  0.03639  0.31480  1.0000
  O   O73       1.0  0.07140  0.53497  0.32710  1.0000
  O   O74       1.0  0.07140  0.96503  0.82710  1.0000
  O   O75       1.0  0.92860  0.46503  0.67290  1.0000
  O   O76       1.0  0.92860  0.03497  0.17290  1.0000
  O   O77       1.0  0.19400  0.44240  0.47830  1.0000
  O   O78       1.0  0.19400  0.05760  0.97830  1.0000
  O   O79       1.0  0.80600  0.55760  0.52170  1.0000
  O   O80       1.0  0.80600  0.94240  0.02170  1.0000
  O   O81       1.0  0.97190  0.35710  0.35830  1.0000
  O   O82       1.0  0.97190  0.14290  0.85830  1.0000
  O   O83       1.0  0.02810  0.64290  0.64170  1.0000
  O   O84       1.0  0.02810  0.85710  0.14170  1.0000
  O   O85       1.0  0.88840  0.40390  0.92180  1.0000
  O   O86       1.0  0.88840  0.09610  0.42180  1.0000
  O   O87       1.0  0.11160  0.59610  0.07820  1.0000
  O   O88       1.0  0.11160  0.90390  0.57820  1.0000
  H   H37       1.0  0.00400  0.55490  0.29800  1.0000
  H   H38       1.0  0.00400  0.94510  0.79800  1.0000
  H   H39       1.0  0.99600  0.44510  0.70200  1.0000
  H   H40       1.0  0.99600  0.05490  0.20200  1.0000
  H   H41       1.0  0.11500  0.54200  0.41600  1.0000
  H   H42       1.0  0.11500  0.95800  0.91600  1.0000
  H   H43       1.0  0.88500  0.45800  0.58400  1.0000
  H   H44       1.0  0.88500  0.04200  0.08400  1.0000
  H   H45       1.0  0.18800  0.46370  0.54200  1.0000
  H   H46       1.0  0.18800  0.03630  0.04200  1.0000
  H   H47       1.0  0.81200  0.53630  0.45800  1.0000
  H   H48       1.0  0.81200  0.96370  0.95800  1.0000
  H   H49       1.0  0.21700  0.41460  0.52000  1.0000
  H   H50       1.0  0.21700  0.08540  0.02000  1.0000
  H   H51       1.0  0.78300  0.58540  0.48000  1.0000
  H   H52       1.0  0.78300  0.91460  0.98000  1.0000
  H   H53       1.0  0.03500  0.34200  0.33600  1.0000
  H   H54       1.0  0.03500  0.15800  0.83600  1.0000
  H   H55       1.0  0.96500  0.65800  0.66400  1.0000
  H   H56       1.0  0.96500  0.84200  0.16400  1.0000
  H   H57       1.0  0.98900  0.35800  0.45220  1.0000
  H   H58       1.0  0.98900  0.14200  0.95220  1.0000
  H   H59       1.0  0.01100  0.64200  0.54780  1.0000
  H   H60       1.0  0.01100  0.85800  0.04780  1.0000
  H   H61       1.0  0.81700  0.38700  0.89800  1.0000
  H   H62       1.0  0.81700  0.11300  0.39800  1.0000
  H   H63       1.0  0.18300  0.61300  0.10200  1.0000
  H   H64       1.0  0.18300  0.88700  0.60200  1.0000
  H   H65       1.0  0.89600  0.42000  0.84700  1.0000
  H   H66       1.0  0.89600  0.08000  0.34700  1.0000
  H   H67       1.0  0.10400  0.58000  0.15300  1.0000
  H   H68       1.0  0.10400  0.92000  0.65300  1.0000
