data_image0
_chemical_formula_structural       Cu8Cl32O32C64N24C16
_chemical_formula_sum              "Cu8 Cl32 O32 C80 N24"
_cell_length_a       20.93
_cell_length_b       12.246
_cell_length_c       14.933
_cell_angle_alpha    90
_cell_angle_beta     90
_cell_angle_gamma    90

_space_group_name_H-M_alt    "P 1"
_space_group_IT_number       1

loop_
  _space_group_symop_operation_xyz
  'x, y, z'

loop_
  _atom_site_type_symbol
  _atom_site_label
  _atom_site_symmetry_multiplicity
  _atom_site_fract_x
  _atom_site_fract_y
  _atom_site_fract_z
  _atom_site_occupancy
  Cu  Cu1       1.0  0.37420  0.61900  0.03934  1.0000
  Cu  Cu2       1.0  0.87420  0.11900  0.46066  1.0000
  Cu  Cu3       1.0  0.37420  0.38100  0.53934  1.0000
  Cu  Cu4       1.0  0.12580  0.11900  0.03934  1.0000
  Cu  Cu5       1.0  0.62580  0.38100  0.96066  1.0000
  Cu  Cu6       1.0  0.12580  0.88100  0.53934  1.0000
  Cu  Cu7       1.0  0.62580  0.61900  0.46066  1.0000
  Cu  Cu8       1.0  0.87420  0.88100  0.96066  1.0000
  Cl  Cl1       1.0  0.30832  0.33614  0.21397  1.0000
  Cl  Cl2       1.0  0.80832  0.83614  0.28603  1.0000
  Cl  Cl3       1.0  0.30832  0.66386  0.71397  1.0000
  Cl  Cl4       1.0  0.19168  0.83614  0.21397  1.0000
  Cl  Cl5       1.0  0.69168  0.66386  0.78603  1.0000
  Cl  Cl6       1.0  0.19168  0.16386  0.71397  1.0000
  Cl  Cl7       1.0  0.69168  0.33614  0.28603  1.0000
  Cl  Cl8       1.0  0.80832  0.16386  0.78603  1.0000
  Cl  Cl9       1.0  0.31780  0.08381  0.24278  1.0000
  Cl  Cl10      1.0  0.81780  0.58381  0.25722  1.0000
  Cl  Cl11      1.0  0.31780  0.91619  0.74278  1.0000
  Cl  Cl12      1.0  0.18220  0.58381  0.24278  1.0000
  Cl  Cl13      1.0  0.68220  0.91619  0.75722  1.0000
  Cl  Cl14      1.0  0.18220  0.41619  0.74278  1.0000
  Cl  Cl15      1.0  0.68220  0.08381  0.25722  1.0000
  Cl  Cl16      1.0  0.81780  0.41619  0.75722  1.0000
  Cl  Cl17      1.0  0.43658  0.95700  0.17179  1.0000
  Cl  Cl18      1.0  0.93658  0.45700  0.32821  1.0000
  Cl  Cl19      1.0  0.43658  0.04300  0.67179  1.0000
  Cl  Cl20      1.0  0.06342  0.45700  0.17179  1.0000
  Cl  Cl21      1.0  0.56342  0.04300  0.82821  1.0000
  Cl  Cl22      1.0  0.06342  0.54300  0.67179  1.0000
  Cl  Cl23      1.0  0.56342  0.95700  0.32821  1.0000
  Cl  Cl24      1.0  0.93658  0.54300  0.82821  1.0000
  Cl  Cl25      1.0  0.55087  0.08565  0.08832  1.0000
  Cl  Cl26      1.0  0.05087  0.58565  0.41168  1.0000
  Cl  Cl27      1.0  0.55087  0.91435  0.58832  1.0000
  Cl  Cl28      1.0  0.94913  0.58565  0.08832  1.0000
  Cl  Cl29      1.0  0.44913  0.91435  0.91168  1.0000
  Cl  Cl30      1.0  0.94913  0.41435  0.58832  1.0000
  Cl  Cl31      1.0  0.44913  0.08565  0.41168  1.0000
  Cl  Cl32      1.0  0.05087  0.41435  0.91168  1.0000
  O   O1        1.0  0.40836  0.46830  0.04304  1.0000
  O   O2        1.0  0.90836  0.96830  0.45696  1.0000
  O   O3        1.0  0.40836  0.53170  0.54304  1.0000
  O   O4        1.0  0.09164  0.96830  0.04304  1.0000
  O   O5        1.0  0.59164  0.53170  0.95696  1.0000
  O   O6        1.0  0.09164  0.03170  0.54304  1.0000
  O   O7        1.0  0.59164  0.46830  0.45696  1.0000
  O   O8        1.0  0.90836  0.03170  0.95696  1.0000
  O   O9        1.0  0.42266  0.51390  0.18430  1.0000
  O   O10       1.0  0.92266  0.01390  0.31570  1.0000
  O   O11       1.0  0.42266  0.48610  0.68430  1.0000
  O   O12       1.0  0.07734  0.01390  0.18430  1.0000
  O   O13       1.0  0.57734  0.48610  0.81570  1.0000
  O   O14       1.0  0.07734  0.98610  0.68430  1.0000
  O   O15       1.0  0.57734  0.51390  0.31570  1.0000
  O   O16       1.0  0.92266  0.98610  0.81570  1.0000
  O   O17       1.0  0.54118  0.32040  0.98663  1.0000
  O   O18       1.0  0.04118  0.82040  0.51337  1.0000
  O   O19       1.0  0.54118  0.67960  0.48663  1.0000
  O   O20       1.0  0.95882  0.82040  0.98663  1.0000
  O   O21       1.0  0.45882  0.67960  0.01337  1.0000
  O   O22       1.0  0.95882  0.17960  0.48663  1.0000
  O   O23       1.0  0.45882  0.32040  0.51337  1.0000
  O   O24       1.0  0.04118  0.17960  0.01337  1.0000
  O   O25       1.0  0.57598  0.37250  0.12010  1.0000
  O   O26       1.0  0.07598  0.87250  0.37990  1.0000
  O   O27       1.0  0.57598  0.62750  0.62010  1.0000
  O   O28       1.0  0.92402  0.87250  0.12010  1.0000
  O   O29       1.0  0.42402  0.62750  0.87990  1.0000
  O   O30       1.0  0.92402  0.12750  0.62010  1.0000
  O   O31       1.0  0.42402  0.37250  0.37990  1.0000
  O   O32       1.0  0.07598  0.12750  0.87990  1.0000
  C   C1        1.0  0.41960  0.44540  0.12430  1.0000
  C   C2        1.0  0.91960  0.94540  0.37570  1.0000
  C   C3        1.0  0.41960  0.55460  0.62430  1.0000
  C   C4        1.0  0.08040  0.94540  0.12430  1.0000
  C   C5        1.0  0.58040  0.55460  0.87570  1.0000
  C   C6        1.0  0.08040  0.05460  0.62430  1.0000
  C   C7        1.0  0.58040  0.44540  0.37570  1.0000
  C   C8        1.0  0.91960  0.05460  0.87570  1.0000
  C   C9        1.0  0.42693  0.32430  0.14240  1.0000
  C   C10       1.0  0.92693  0.82430  0.35760  1.0000
  C   C11       1.0  0.42693  0.67570  0.64240  1.0000
  C   C12       1.0  0.07307  0.82430  0.14240  1.0000
  C   C13       1.0  0.57307  0.67570  0.85760  1.0000
  C   C14       1.0  0.07307  0.17570  0.64240  1.0000
  C   C15       1.0  0.57307  0.32430  0.35760  1.0000
  C   C16       1.0  0.92693  0.17570  0.85760  1.0000
  C   C17       1.0  0.37660  0.26660  0.18190  1.0000
  C   C18       1.0  0.87660  0.76660  0.31810  1.0000
  C   C19       1.0  0.37660  0.73340  0.68190  1.0000
  C   C20       1.0  0.12340  0.76660  0.18190  1.0000
  C   C21       1.0  0.62340  0.73340  0.81810  1.0000
  C   C22       1.0  0.12340  0.23340  0.68190  1.0000
  C   C23       1.0  0.62340  0.26660  0.31810  1.0000
  C   C24       1.0  0.87660  0.23340  0.81810  1.0000
  C   C25       1.0  0.37961  0.15410  0.19280  1.0000
  C   C26       1.0  0.87961  0.65410  0.30720  1.0000
  C   C27       1.0  0.37961  0.84590  0.69280  1.0000
  C   C28       1.0  0.12039  0.65410  0.19280  1.0000
  C   C29       1.0  0.62039  0.84590  0.80720  1.0000
  C   C30       1.0  0.12039  0.34590  0.69280  1.0000
  C   C31       1.0  0.62039  0.15410  0.30720  1.0000
  C   C32       1.0  0.87961  0.34590  0.80720  1.0000
  C   C33       1.0  0.43330  0.09690  0.16290  1.0000
  C   C34       1.0  0.93330  0.59690  0.33710  1.0000
  C   C35       1.0  0.43330  0.90310  0.66290  1.0000
  C   C36       1.0  0.06670  0.59690  0.16290  1.0000
  C   C37       1.0  0.56670  0.90310  0.83710  1.0000
  C   C38       1.0  0.06670  0.40310  0.66290  1.0000
  C   C39       1.0  0.56670  0.09690  0.33710  1.0000
  C   C40       1.0  0.93330  0.40310  0.83710  1.0000
  C   C41       1.0  0.48386  0.15440  0.12480  1.0000
  C   C42       1.0  0.98386  0.65440  0.37520  1.0000
  C   C43       1.0  0.48386  0.84560  0.62480  1.0000
  C   C44       1.0  0.01614  0.65440  0.12480  1.0000
  C   C45       1.0  0.51614  0.84560  0.87520  1.0000
  C   C46       1.0  0.01614  0.34560  0.62480  1.0000
  C   C47       1.0  0.51614  0.15440  0.37520  1.0000
  C   C48       1.0  0.98386  0.34560  0.87520  1.0000
  C   C49       1.0  0.48079  0.26760  0.11420  1.0000
  C   C50       1.0  0.98079  0.76760  0.38580  1.0000
  C   C51       1.0  0.48079  0.73240  0.61420  1.0000
  C   C52       1.0  0.01921  0.76760  0.11420  1.0000
  C   C53       1.0  0.51921  0.73240  0.88580  1.0000
  C   C54       1.0  0.01921  0.23240  0.61420  1.0000
  C   C55       1.0  0.51921  0.26760  0.38580  1.0000
  C   C56       1.0  0.98079  0.23240  0.88580  1.0000
  C   C57       1.0  0.53693  0.32590  0.07090  1.0000
  C   C58       1.0  0.03693  0.82590  0.42910  1.0000
  C   C59       1.0  0.53693  0.67410  0.57090  1.0000
  C   C60       1.0  0.96307  0.82590  0.07090  1.0000
  C   C61       1.0  0.46307  0.67410  0.92910  1.0000
  C   C62       1.0  0.96307  0.17410  0.57090  1.0000
  C   C63       1.0  0.46307  0.32590  0.42910  1.0000
  C   C64       1.0  0.03693  0.17410  0.92910  1.0000
  N   N1        1.0  0.34057  0.76670  0.05570  1.0000
  N   N2        1.0  0.84057  0.26670  0.44430  1.0000
  N   N3        1.0  0.34057  0.23330  0.55570  1.0000
  N   N4        1.0  0.15943  0.26670  0.05570  1.0000
  N   N5        1.0  0.65943  0.23330  0.94430  1.0000
  N   N6        1.0  0.15943  0.73330  0.55570  1.0000
  N   N7        1.0  0.65943  0.76670  0.44430  1.0000
  N   N8        1.0  0.84057  0.73330  0.94430  1.0000
  N   N9        1.0  0.31264  0.95700  0.02900  1.0000
  N   N10       1.0  0.81264  0.45700  0.47100  1.0000
  N   N11       1.0  0.31264  0.04300  0.52900  1.0000
  N   N12       1.0  0.18736  0.45700  0.02900  1.0000
  N   N13       1.0  0.68736  0.04300  0.97100  1.0000
  N   N14       1.0  0.18736  0.54300  0.52900  1.0000
  N   N15       1.0  0.68736  0.95700  0.47100  1.0000
  N   N16       1.0  0.81264  0.54300  0.97100  1.0000
  N   N17       1.0  0.21155  0.05470  0.04020  1.0000
  N   N18       1.0  0.71155  0.55470  0.45980  1.0000
  N   N19       1.0  0.21155  0.94530  0.54020  1.0000
  N   N20       1.0  0.28845  0.55470  0.04020  1.0000
  N   N21       1.0  0.78845  0.94530  0.95980  1.0000
  N   N22       1.0  0.28845  0.44530  0.54020  1.0000
  N   N23       1.0  0.78845  0.05470  0.45980  1.0000
  N   N24       1.0  0.71155  0.44530  0.95980  1.0000
  C   C65       1.0  0.32360  0.85400  0.04440  1.0000
  C   C66       1.0  0.82360  0.35400  0.45560  1.0000
  C   C67       1.0  0.32360  0.14600  0.54440  1.0000
  C   C68       1.0  0.17640  0.35400  0.04440  1.0000
  C   C69       1.0  0.67640  0.14600  0.95560  1.0000
  C   C70       1.0  0.17640  0.64600  0.54440  1.0000
  C   C71       1.0  0.67640  0.85400  0.45560  1.0000
  C   C72       1.0  0.82360  0.64600  0.95560  1.0000
  C   C73       1.0  0.25700  0.00350  0.03750  1.0000
  C   C74       1.0  0.75700  0.50350  0.46250  1.0000
  C   C75       1.0  0.25700  0.99650  0.53750  1.0000
  C   C76       1.0  0.24300  0.50350  0.03750  1.0000
  C   C77       1.0  0.74300  0.99650  0.96250  1.0000
  C   C78       1.0  0.24300  0.49650  0.53750  1.0000
  C   C79       1.0  0.74300  0.00350  0.46250  1.0000
  C   C80       1.0  0.75700  0.49650  0.96250  1.0000
