data_image0
_chemical_formula_structural       Mn8O48C24
_chemical_formula_sum              "Mn8 O48 C24"
_cell_length_a       9.963
_cell_length_b       16.679
_cell_length_c       15.14
_cell_angle_alpha    90
_cell_angle_beta     94.161
_cell_angle_gamma    90

_space_group_name_H-M_alt    "P 1"
_space_group_IT_number       1

loop_
  _space_group_symop_operation_xyz
  'x, y, z'

loop_
  _atom_site_type_symbol
  _atom_site_label
  _atom_site_symmetry_multiplicity
  _atom_site_fract_x
  _atom_site_fract_y
  _atom_site_fract_z
  _atom_site_occupancy
  Mn  Mn1       1.0  0.98934  0.04472  0.77045  1.0000
  Mn  Mn2       1.0  0.51066  0.54472  0.72955  1.0000
  Mn  Mn3       1.0  0.01066  0.95528  0.22955  1.0000
  Mn  Mn4       1.0  0.48934  0.45528  0.27045  1.0000
  Mn  Mn5       1.0  0.01439  0.70558  0.75054  1.0000
  Mn  Mn6       1.0  0.48561  0.20558  0.74946  1.0000
  Mn  Mn7       1.0  0.98561  0.29442  0.24946  1.0000
  Mn  Mn8       1.0  0.51439  0.79442  0.25054  1.0000
  O   O1        1.0  0.20350  0.68220  0.82570  1.0000
  O   O2        1.0  0.29650  0.18220  0.67430  1.0000
  O   O3        1.0  0.79650  0.31780  0.17430  1.0000
  O   O4        1.0  0.70350  0.81780  0.32570  1.0000
  O   O5        1.0  0.93870  0.93730  0.84330  1.0000
  O   O6        1.0  0.56130  0.43730  0.65670  1.0000
  O   O7        1.0  0.06130  0.06270  0.15670  1.0000
  O   O8        1.0  0.43870  0.56270  0.34330  1.0000
  O   O9        1.0  0.67420  0.19520  0.83040  1.0000
  O   O10       1.0  0.82580  0.69520  0.66960  1.0000
  O   O11       1.0  0.32580  0.80480  0.16960  1.0000
  O   O12       1.0  0.17420  0.30480  0.33040  1.0000
  O   O13       1.0  0.40540  0.62650  0.81250  1.0000
  O   O14       1.0  0.09460  0.12650  0.68750  1.0000
  O   O15       1.0  0.59460  0.37350  0.18750  1.0000
  O   O16       1.0  0.90540  0.87350  0.31250  1.0000
  O   O17       1.0  0.95050  0.80180  0.83750  1.0000
  O   O18       1.0  0.54950  0.30180  0.66250  1.0000
  O   O19       1.0  0.04950  0.19820  0.16250  1.0000
  O   O20       1.0  0.45050  0.69820  0.33750  1.0000
  O   O21       1.0  0.07230  0.81390  0.68510  1.0000
  O   O22       1.0  0.42770  0.31390  0.81490  1.0000
  O   O23       1.0  0.92770  0.18610  0.31490  1.0000
  O   O24       1.0  0.57230  0.68610  0.18510  1.0000
  O   O25       1.0  0.79480  0.04950  0.69070  1.0000
  O   O26       1.0  0.70520  0.54950  0.80930  1.0000
  O   O27       1.0  0.20520  0.95050  0.30930  1.0000
  O   O28       1.0  0.29480  0.45050  0.19070  1.0000
  O   O29       1.0  0.59710  0.11290  0.68260  1.0000
  O   O30       1.0  0.90290  0.61290  0.81740  1.0000
  O   O31       1.0  0.40290  0.88710  0.31740  1.0000
  O   O32       1.0  0.09710  0.38710  0.18260  1.0000
  O   O33       1.0  0.32440  0.57020  0.65150  1.0000
  O   O34       1.0  0.17560  0.07020  0.84850  1.0000
  O   O35       1.0  0.67560  0.42980  0.34850  1.0000
  O   O36       1.0  0.82440  0.92980  0.15150  1.0000
  O   O37       1.0  0.87040  0.12970  0.84080  1.0000
  O   O38       1.0  0.62960  0.62970  0.65920  1.0000
  O   O39       1.0  0.12960  0.87030  0.15920  1.0000
  O   O40       1.0  0.37040  0.37030  0.34080  1.0000
  O   O41       1.0  0.12600  0.63220  0.66040  1.0000
  O   O42       1.0  0.37400  0.13220  0.83960  1.0000
  O   O43       1.0  0.87400  0.36780  0.33960  1.0000
  O   O44       1.0  0.62600  0.86780  0.16040  1.0000
  O   O45       1.0  0.06120  0.94750  0.69230  1.0000
  O   O46       1.0  0.43880  0.44750  0.80770  1.0000
  O   O47       1.0  0.93880  0.05250  0.30770  1.0000
  O   O48       1.0  0.56120  0.55250  0.19230  1.0000
  C   C1        1.0  0.24110  0.61330  0.69060  1.0000
  C   C2        1.0  0.25890  0.11330  0.80940  1.0000
  C   C3        1.0  0.75890  0.38670  0.30940  1.0000
  C   C4        1.0  0.74110  0.88670  0.19060  1.0000
  C   C5        1.0  0.97270  0.87160  0.80860  1.0000
  C   C6        1.0  0.52730  0.37160  0.69140  1.0000
  C   C7        1.0  0.02730  0.12840  0.19140  1.0000
  C   C8        1.0  0.47270  0.62840  0.30860  1.0000
  C   C9        1.0  0.28760  0.64330  0.78290  1.0000
  C   C10       1.0  0.21240  0.14330  0.71710  1.0000
  C   C11       1.0  0.71240  0.35670  0.21710  1.0000
  C   C12       1.0  0.78760  0.85670  0.28290  1.0000
  C   C13       1.0  0.71150  0.09790  0.71830  1.0000
  C   C14       1.0  0.78850  0.59790  0.78170  1.0000
  C   C15       1.0  0.28850  0.90210  0.28170  1.0000
  C   C16       1.0  0.21150  0.40210  0.21830  1.0000
  C   C17       1.0  0.04300  0.87810  0.72070  1.0000
  C   C18       1.0  0.45700  0.37810  0.77930  1.0000
  C   C19       1.0  0.95700  0.12190  0.27930  1.0000
  C   C20       1.0  0.54300  0.62190  0.22070  1.0000
  C   C21       1.0  0.75510  0.14610  0.80400  1.0000
  C   C22       1.0  0.74490  0.64610  0.69600  1.0000
  C   C23       1.0  0.24490  0.85390  0.19600  1.0000
  C   C24       1.0  0.25510  0.35390  0.30400  1.0000
