data_image0
_chemical_formula_structural       Mn4O24C12
_chemical_formula_sum              "Mn4 O24 C12"
_cell_length_a       13.3554
_cell_length_b       15.6931
_cell_length_c       10.4539
_cell_angle_alpha    90
_cell_angle_beta     102.455
_cell_angle_gamma    90

_space_group_name_H-M_alt    "P 1"
_space_group_IT_number       1

loop_
  _space_group_symop_operation_xyz
  'x, y, z'

loop_
  _atom_site_type_symbol
  _atom_site_label
  _atom_site_symmetry_multiplicity
  _atom_site_fract_x
  _atom_site_fract_y
  _atom_site_fract_z
  _atom_site_occupancy
  Mn  Mn1       1.0  0.03447  0.68022  0.00098  1.0000
  Mn  Mn2       1.0  0.96553  0.18022  0.49902  1.0000
  Mn  Mn3       1.0  0.96553  0.31978  0.99902  1.0000
  Mn  Mn4       1.0  0.03447  0.81978  0.50098  1.0000
  O   O1        1.0  0.95948  0.77239  0.10032  1.0000
  O   O2        1.0  0.04052  0.27239  0.39968  1.0000
  O   O3        1.0  0.04052  0.22761  0.89968  1.0000
  O   O4        1.0  0.95948  0.72761  0.60032  1.0000
  O   O5        1.0  0.94829  0.81273  0.30110  1.0000
  O   O6        1.0  0.05171  0.31273  0.19890  1.0000
  O   O7        1.0  0.05171  0.18727  0.69890  1.0000
  O   O8        1.0  0.94829  0.68727  0.80110  1.0000
  O   O9        1.0  0.13113  0.68534  0.20219  1.0000
  O   O10       1.0  0.86887  0.18534  0.29781  1.0000
  O   O11       1.0  0.86887  0.31466  0.79781  1.0000
  O   O12       1.0  0.13113  0.81466  0.70219  1.0000
  O   O13       1.0  0.12616  0.73566  0.40092  1.0000
  O   O14       1.0  0.87384  0.23566  0.09908  1.0000
  O   O15       1.0  0.87384  0.26434  0.59908  1.0000
  O   O16       1.0  0.12616  0.76434  0.90092  1.0000
  O   O17       1.0  0.92692  0.58199  0.04410  1.0000
  O   O18       1.0  0.07308  0.08199  0.45590  1.0000
  O   O19       1.0  0.07308  0.41801  0.95590  1.0000
  O   O20       1.0  0.92692  0.91801  0.54410  1.0000
  O   O21       1.0  0.89428  0.44325  0.02858  1.0000
  O   O22       1.0  0.10572  0.94325  0.47142  1.0000
  O   O23       1.0  0.10572  0.55675  0.97142  1.0000
  O   O24       1.0  0.89428  0.05675  0.52858  1.0000
  C   C1        1.0  0.99020  0.77573  0.22120  1.0000
  C   C2        1.0  0.00980  0.27573  0.27880  1.0000
  C   C3        1.0  0.00980  0.22427  0.77880  1.0000
  C   C4        1.0  0.99020  0.72427  0.72120  1.0000
  C   C5        1.0  0.09212  0.72775  0.28120  1.0000
  C   C6        1.0  0.90788  0.22775  0.21880  1.0000
  C   C7        1.0  0.90788  0.27225  0.71880  1.0000
  C   C8        1.0  0.09212  0.77225  0.78120  1.0000
  C   C9        1.0  0.94852  0.50729  0.02100  1.0000
  C   C10       1.0  0.05148  0.00729  0.47900  1.0000
  C   C11       1.0  0.05148  0.49271  0.97900  1.0000
  C   C12       1.0  0.94852  0.99271  0.52100  1.0000
