data_image0
_chemical_formula_structural       Sm4O36H8C16
_chemical_formula_sum              "Sm4 O36 H8 C16"
_cell_length_a       9.6711
_cell_length_b       11.7849
_cell_length_c       14.3863
_cell_angle_alpha    90
_cell_angle_beta     122.276
_cell_angle_gamma    90

_space_group_name_H-M_alt    "P 1"
_space_group_IT_number       1

loop_
  _space_group_symop_operation_xyz
  'x, y, z'

loop_
  _atom_site_type_symbol
  _atom_site_label
  _atom_site_symmetry_multiplicity
  _atom_site_fract_x
  _atom_site_fract_y
  _atom_site_fract_z
  _atom_site_occupancy
  Sm  Sm1       1.0  0.61680  0.98358  0.33036  1.0000
  Sm  Sm2       1.0  0.38320  0.48358  0.16964  1.0000
  Sm  Sm3       1.0  0.38320  0.01642  0.66964  1.0000
  Sm  Sm4       1.0  0.61680  0.51642  0.83036  1.0000
  O   O1        1.0  0.70360  0.78320  0.34350  1.0000
  O   O2        1.0  0.29640  0.28320  0.15650  1.0000
  O   O3        1.0  0.29640  0.21680  0.65650  1.0000
  O   O4        1.0  0.70360  0.71680  0.84350  1.0000
  O   O5        1.0  0.61560  0.60450  0.30140  1.0000
  O   O6        1.0  0.38440  0.10450  0.19860  1.0000
  O   O7        1.0  0.38440  0.39550  0.69860  1.0000
  O   O8        1.0  0.61560  0.89550  0.80140  1.0000
  O   O9        1.0  0.30630  0.67990  0.17320  1.0000
  O   O10       1.0  0.69370  0.17990  0.32680  1.0000
  O   O11       1.0  0.69370  0.32010  0.82680  1.0000
  O   O12       1.0  0.30630  0.82010  0.67320  1.0000
  O   O13       1.0  0.39780  0.85760  0.20470  1.0000
  O   O14       1.0  0.60220  0.35760  0.29530  1.0000
  O   O15       1.0  0.60220  0.14240  0.79530  1.0000
  O   O16       1.0  0.39780  0.64240  0.70470  1.0000
  O   O17       1.0  0.51720  0.88170  0.43430  1.0000
  O   O18       1.0  0.48280  0.38170  0.06570  1.0000
  O   O19       1.0  0.48280  0.11830  0.56570  1.0000
  O   O20       1.0  0.51720  0.61830  0.93430  1.0000
  O   O21       1.0  0.46700  0.89190  0.56760  1.0000
  O   O22       1.0  0.53300  0.39190  0.93240  1.0000
  O   O23       1.0  0.53300  0.10810  0.43240  1.0000
  O   O24       1.0  0.46700  0.60810  0.06760  1.0000
  O   O25       1.0  0.89120  0.98470  0.35720  1.0000
  O   O26       1.0  0.10880  0.48470  0.14280  1.0000
  O   O27       1.0  0.10880  0.01530  0.64280  1.0000
  O   O28       1.0  0.89120  0.51530  0.85720  1.0000
  O   O29       1.0  0.15850  0.01240  0.47720  1.0000
  O   O30       1.0  0.84150  0.51240  0.02280  1.0000
  O   O31       1.0  0.84150  0.98760  0.52280  1.0000
  O   O32       1.0  0.15850  0.48760  0.97720  1.0000
  O   O33       1.0  0.60840  0.97550  0.15300  1.0000
  O   O34       1.0  0.39160  0.47550  0.34700  1.0000
  O   O35       1.0  0.39160  0.02450  0.84700  1.0000
  O   O36       1.0  0.60840  0.52450  0.65300  1.0000
  H   H1        1.0  0.60800  0.03300  0.12100  1.0000
  H   H2        1.0  0.39200  0.53300  0.37900  1.0000
  H   H3        1.0  0.39200  0.96700  0.87900  1.0000
  H   H4        1.0  0.60800  0.46700  0.62100  1.0000
  H   H5        1.0  0.54400  0.93200  0.10300  1.0000
  H   H6        1.0  0.45600  0.43200  0.39700  1.0000
  H   H7        1.0  0.45600  0.06800  0.89700  1.0000
  H   H8        1.0  0.54400  0.56800  0.60300  1.0000
  C   C1        1.0  0.59580  0.70950  0.29490  1.0000
  C   C2        1.0  0.40420  0.20950  0.20510  1.0000
  C   C3        1.0  0.40420  0.29050  0.70510  1.0000
  C   C4        1.0  0.59580  0.79050  0.79490  1.0000
  C   C5        1.0  0.41720  0.75360  0.21730  1.0000
  C   C6        1.0  0.58280  0.25360  0.28270  1.0000
  C   C7        1.0  0.58280  0.24640  0.78270  1.0000
  C   C8        1.0  0.41720  0.74640  0.71730  1.0000
  C   C9        1.0  0.49500  0.93480  0.50040  1.0000
  C   C10       1.0  0.50500  0.43480  0.99960  1.0000
  C   C11       1.0  0.50500  0.06520  0.49960  1.0000
  C   C12       1.0  0.49500  0.56520  0.00040  1.0000
  C   C13       1.0  0.01680  0.99990  0.45410  1.0000
  C   C14       1.0  0.98320  0.49990  0.04590  1.0000
  C   C15       1.0  0.98320  0.00010  0.54590  1.0000
  C   C16       1.0  0.01680  0.50010  0.95410  1.0000
