data_image0
_chemical_formula_structural       Y4O36H8C16
_chemical_formula_sum              "Y4 O36 H8 C16"
_cell_length_a       9.6008
_cell_length_b       11.5422
_cell_length_c       14.2886
_cell_angle_alpha    90
_cell_angle_beta     122.46
_cell_angle_gamma    90

_space_group_name_H-M_alt    "P 1"
_space_group_IT_number       1

loop_
  _space_group_symop_operation_xyz
  'x, y, z'

loop_
  _atom_site_type_symbol
  _atom_site_label
  _atom_site_symmetry_multiplicity
  _atom_site_fract_x
  _atom_site_fract_y
  _atom_site_fract_z
  _atom_site_occupancy
  Y   Y1        1.0  0.61770  0.98846  0.33257  1.0000
  Y   Y2        1.0  0.38230  0.48846  0.16743  1.0000
  Y   Y3        1.0  0.38230  0.01154  0.66743  1.0000
  Y   Y4        1.0  0.61770  0.51154  0.83257  1.0000
  O   O1        1.0  0.70490  0.78990  0.34286  1.0000
  O   O2        1.0  0.29510  0.28990  0.15714  1.0000
  O   O3        1.0  0.29510  0.21010  0.65714  1.0000
  O   O4        1.0  0.70490  0.71010  0.84286  1.0000
  O   O5        1.0  0.61670  0.60733  0.29500  1.0000
  O   O6        1.0  0.38330  0.10733  0.20500  1.0000
  O   O7        1.0  0.38330  0.39267  0.70500  1.0000
  O   O8        1.0  0.61670  0.89267  0.79500  1.0000
  O   O9        1.0  0.30540  0.68334  0.17013  1.0000
  O   O10       1.0  0.69460  0.18334  0.32987  1.0000
  O   O11       1.0  0.69460  0.31666  0.82987  1.0000
  O   O12       1.0  0.30540  0.81666  0.67013  1.0000
  O   O13       1.0  0.39590  0.86535  0.20743  1.0000
  O   O14       1.0  0.60410  0.36535  0.29257  1.0000
  O   O15       1.0  0.60410  0.13465  0.79257  1.0000
  O   O16       1.0  0.39590  0.63465  0.70743  1.0000
  O   O17       1.0  0.51980  0.88268  0.43190  1.0000
  O   O18       1.0  0.48020  0.38268  0.06810  1.0000
  O   O19       1.0  0.48020  0.11732  0.56810  1.0000
  O   O20       1.0  0.51980  0.61732  0.93190  1.0000
  O   O21       1.0  0.46130  0.88762  0.56330  1.0000
  O   O22       1.0  0.53870  0.38762  0.93670  1.0000
  O   O23       1.0  0.53870  0.11238  0.43670  1.0000
  O   O24       1.0  0.46130  0.61238  0.06330  1.0000
  O   O25       1.0  0.88920  0.99123  0.35640  1.0000
  O   O26       1.0  0.11080  0.49123  0.14360  1.0000
  O   O27       1.0  0.11080  0.00877  0.64360  1.0000
  O   O28       1.0  0.88920  0.50877  0.85640  1.0000
  O   O29       1.0  0.16110  0.01036  0.47848  1.0000
  O   O30       1.0  0.83890  0.51036  0.02152  1.0000
  O   O31       1.0  0.83890  0.98964  0.52152  1.0000
  O   O32       1.0  0.16110  0.48964  0.97848  1.0000
  O   O33       1.0  0.60440  0.98080  0.15780  1.0000
  O   O34       1.0  0.39560  0.48080  0.34220  1.0000
  O   O35       1.0  0.39560  0.01920  0.84220  1.0000
  O   O36       1.0  0.60440  0.51920  0.65780  1.0000
  H   H1        1.0  0.61700  0.03900  0.12900  1.0000
  H   H2        1.0  0.38300  0.53900  0.37100  1.0000
  H   H3        1.0  0.38300  0.96100  0.87100  1.0000
  H   H4        1.0  0.61700  0.46100  0.62900  1.0000
  H   H5        1.0  0.56800  0.93100  0.12200  1.0000
  H   H6        1.0  0.43200  0.43100  0.37800  1.0000
  H   H7        1.0  0.43200  0.06900  0.87800  1.0000
  H   H8        1.0  0.56800  0.56900  0.62200  1.0000
  C   C1        1.0  0.59600  0.71480  0.29190  1.0000
  C   C2        1.0  0.40400  0.21480  0.20810  1.0000
  C   C3        1.0  0.40400  0.28520  0.70810  1.0000
  C   C4        1.0  0.59600  0.78520  0.79190  1.0000
  C   C5        1.0  0.41630  0.75870  0.21660  1.0000
  C   C6        1.0  0.58370  0.25870  0.28340  1.0000
  C   C7        1.0  0.58370  0.24130  0.78340  1.0000
  C   C8        1.0  0.41630  0.74130  0.71660  1.0000
  C   C9        1.0  0.49470  0.93350  0.49840  1.0000
  C   C10       1.0  0.50530  0.43350  0.00160  1.0000
  C   C11       1.0  0.50530  0.06650  0.50160  1.0000
  C   C12       1.0  0.49470  0.56650  0.99840  1.0000
  C   C13       1.0  0.01510  0.00050  0.45240  1.0000
  C   C14       1.0  0.98490  0.50050  0.04760  1.0000
  C   C15       1.0  0.98490  0.99950  0.54760  1.0000
  C   C16       1.0  0.01510  0.49950  0.95240  1.0000
