data_image0
_chemical_formula_structural       Zn4O16C12O8
_chemical_formula_sum              "Zn4 O24 C12"
_cell_length_a       9.4238
_cell_length_b       16.1699
_cell_length_c       7.5876
_cell_angle_alpha    90
_cell_angle_beta     107.413
_cell_angle_gamma    90

_space_group_name_H-M_alt    "P 1"
_space_group_IT_number       1

loop_
  _space_group_symop_operation_xyz
  'x, y, z'

loop_
  _atom_site_type_symbol
  _atom_site_label
  _atom_site_symmetry_multiplicity
  _atom_site_fract_x
  _atom_site_fract_y
  _atom_site_fract_z
  _atom_site_occupancy
  Zn  Zn1       1.0  0.00000  0.33387  0.00000  1.0000
  Zn  Zn2       1.0  0.50000  0.83387  0.00000  1.0000
  Zn  Zn3       1.0  0.00000  0.66613  0.00000  1.0000
  Zn  Zn4       1.0  0.50000  0.16613  0.00000  1.0000
  O   O1        1.0  0.07164  0.24682  0.84101  1.0000
  O   O2        1.0  0.92836  0.24682  0.15899  1.0000
  O   O3        1.0  0.57164  0.74682  0.84101  1.0000
  O   O4        1.0  0.42836  0.74682  0.15899  1.0000
  O   O5        1.0  0.92836  0.75318  0.15899  1.0000
  O   O6        1.0  0.07164  0.75318  0.84101  1.0000
  O   O7        1.0  0.42836  0.25318  0.15899  1.0000
  O   O8        1.0  0.57164  0.25318  0.84101  1.0000
  O   O9        1.0  0.96348  0.43117  0.15919  1.0000
  O   O10       1.0  0.03652  0.43117  0.84081  1.0000
  O   O11       1.0  0.46348  0.93117  0.15919  1.0000
  O   O12       1.0  0.53652  0.93117  0.84081  1.0000
  O   O13       1.0  0.03652  0.56883  0.84081  1.0000
  O   O14       1.0  0.96348  0.56883  0.15919  1.0000
  O   O15       1.0  0.53652  0.06883  0.84081  1.0000
  O   O16       1.0  0.46348  0.06883  0.15919  1.0000
  C   C1        1.0  0.20710  0.22885  0.90650  1.0000
  C   C2        1.0  0.79290  0.22885  0.09350  1.0000
  C   C3        1.0  0.70710  0.72885  0.90650  1.0000
  C   C4        1.0  0.29290  0.72885  0.09350  1.0000
  C   C5        1.0  0.79290  0.77115  0.09350  1.0000
  C   C6        1.0  0.20710  0.77115  0.90650  1.0000
  C   C7        1.0  0.29290  0.27115  0.09350  1.0000
  C   C8        1.0  0.70710  0.27115  0.90650  1.0000
  C   C9        1.0  0.97840  0.50000  0.09190  1.0000
  C   C10       1.0  0.02160  0.50000  0.90810  1.0000
  C   C11       1.0  0.47840  0.00000  0.09190  1.0000
  C   C12       1.0  0.52160  0.00000  0.90810  1.0000
  O   O17       1.0  0.27784  0.18053  0.83700  1.0000
  O   O18       1.0  0.72216  0.18053  0.16300  1.0000
  O   O19       1.0  0.77784  0.68053  0.83700  1.0000
  O   O20       1.0  0.22216  0.68053  0.16300  1.0000
  O   O21       1.0  0.72216  0.81947  0.16300  1.0000
  O   O22       1.0  0.27784  0.81947  0.83700  1.0000
  O   O23       1.0  0.22216  0.31947  0.16300  1.0000
  O   O24       1.0  0.77784  0.31947  0.83700  1.0000
