data_image0
_chemical_formula_structural       ZnS2O9H2OH2N2CHCHC2HCHCHCHC2HCH
_chemical_formula_sum              "Zn1 S2 O10 H12 N2 C10"
_cell_length_a       7.3071
_cell_length_b       11.1867
_cell_length_c       11.4495
_cell_angle_alpha    72.436
_cell_angle_beta     73.911
_cell_angle_gamma    83.398

_space_group_name_H-M_alt    "P 1"
_space_group_IT_number       1

loop_
  _space_group_symop_operation_xyz
  'x, y, z'

loop_
  _atom_site_type_symbol
  _atom_site_label
  _atom_site_symmetry_multiplicity
  _atom_site_fract_x
  _atom_site_fract_y
  _atom_site_fract_z
  _atom_site_occupancy
  Zn  Zn1       1.0  0.33479  0.32342  0.84937  1.0000
  S   S1        1.0  0.74475  0.32833  0.61192  1.0000
  S   S2        1.0  0.92386  0.33861  0.07345  1.0000
  O   O1        1.0  0.77090  0.24660  0.52880  1.0000
  O   O2        1.0  0.84540  0.44530  0.54040  1.0000
  O   O3        1.0  0.82330  0.26400  0.72060  1.0000
  O   O4        1.0  0.53810  0.35840  0.65640  1.0000
  O   O5        1.0  0.13070  0.30310  0.03390  1.0000
  O   O6        1.0  0.85860  0.41400  0.96260  1.0000
  O   O7        1.0  0.81580  0.22410  0.13580  1.0000
  O   O8        1.0  0.89730  0.41310  0.16280  1.0000
  O   O9        1.0  0.10620  0.38480  0.75480  1.0000
  H   H1        1.0  0.01330  0.41500  0.80200  1.0000
  H   H2        1.0  0.03220  0.34100  0.73990  1.0000
  O   O10       1.0  0.55840  0.25620  0.93960  1.0000
  H   H3        1.0  0.66420  0.26180  0.88380  1.0000
  H   H4        1.0  0.61580  0.28230  0.98190  1.0000
  N   N1        1.0  0.31160  0.14040  0.85070  1.0000
  N   N2        1.0  0.36290  0.50900  0.84010  1.0000
  C   C1        1.0  0.31640  0.11050  0.74600  1.0000
  H   H5        1.0  0.31320  0.17530  0.67300  1.0000
  C   C2        1.0  0.32600  0.98910  0.73950  1.0000
  H   H6        1.0  0.33150  0.97280  0.66360  1.0000
  C   C3        1.0  0.32710  0.89090  0.84850  1.0000
  C   C4        1.0  0.31390  0.92260  0.95830  1.0000
  H   H7        1.0  0.30860  0.86000  0.03400  1.0000
  C   C5        1.0  0.30870  0.04660  0.95560  1.0000
  H   H8        1.0  0.30290  0.06580  0.03010  1.0000
  C   C6        1.0  0.33980  0.60370  0.74010  1.0000
  H   H9        1.0  0.32980  0.58500  0.66830  1.0000
  C   C7        1.0  0.33020  0.72760  0.73930  1.0000
  H   H10       1.0  0.31420  0.79060  0.66790  1.0000
  C   C8        1.0  0.34440  0.75860  0.84430  1.0000
  C   C9        1.0  0.37770  0.66030  0.94590  1.0000
  H   H11       1.0  0.39490  0.67650  0.01710  1.0000
  C   C10       1.0  0.38480  0.53880  0.93920  1.0000
  H   H12       1.0  0.40620  0.47400  0.00780  1.0000
