data_image0
_chemical_formula_structural       ZnS2O5H2OH2O4N2CHCHC2HCHCHCHC2HCH
_chemical_formula_sum              "Zn1 S2 O10 H12 N2 C10"
_cell_length_a       7.3145
_cell_length_b       11.194
_cell_length_c       11.442
_cell_angle_alpha    72.48
_cell_angle_beta     73.78
_cell_angle_gamma    83.39

_space_group_name_H-M_alt    "P 1"
_space_group_IT_number       1

loop_
  _space_group_symop_operation_xyz
  'x, y, z'

loop_
  _atom_site_type_symbol
  _atom_site_label
  _atom_site_symmetry_multiplicity
  _atom_site_fract_x
  _atom_site_fract_y
  _atom_site_fract_z
  _atom_site_occupancy
  Zn  Zn1       1.0  0.27207  0.48132  0.60603  1.0000
  S   S1        1.0  0.86101  0.49665  0.83008  1.0000
  S   S2        1.0  0.68192  0.48626  0.36867  1.0000
  O   O1        1.0  0.47500  0.51650  0.41300  1.0000
  O   O2        1.0  0.76070  0.42130  0.47740  1.0000
  O   O3        1.0  0.78200  0.60340  0.29660  1.0000
  O   O4        1.0  0.70830  0.40440  0.28540  1.0000
  O   O5        1.0  0.04250  0.54320  0.51160  1.0000
  H   H1        1.0  0.97150  0.57980  0.56000  1.0000
  H   H2        1.0  0.01380  0.48540  0.49080  1.0000
  O   O6        1.0  0.49720  0.41380  0.69590  1.0000
  H   H3        1.0  0.48570  0.43120  0.76240  1.0000
  H   H4        1.0  0.58080  0.40490  0.63400  1.0000
  O   O7        1.0  0.06770  0.46120  0.79060  1.0000
  O   O8        1.0  0.79600  0.57140  0.71920  1.0000
  O   O9        1.0  0.83490  0.57120  0.91970  1.0000
  O   O10       1.0  0.75190  0.38250  0.89280  1.0000
  N   N1        1.0  0.24810  0.29850  0.60770  1.0000
  N   N2        1.0  0.30070  0.66720  0.59660  1.0000
  C   C1        1.0  0.27850  0.76160  0.49670  1.0000
  H   H5        1.0  0.27040  0.74270  0.42450  1.0000
  C   C2        1.0  0.26710  0.88640  0.49580  1.0000
  H   H6        1.0  0.24910  0.94920  0.42490  1.0000
  C   C3        1.0  0.28270  0.91670  0.60070  1.0000
  C   C4        1.0  0.31500  0.81830  0.70280  1.0000
  H   H7        1.0  0.33120  0.83440  0.77430  1.0000
  C   C5        1.0  0.32260  0.69650  0.69570  1.0000
  H   H8        1.0  0.34420  0.63170  0.76420  1.0000
  C   C6        1.0  0.25250  0.26890  0.50250  1.0000
  H   H9        1.0  0.24850  0.33330  0.42950  1.0000
  C   C7        1.0  0.26280  0.14680  0.49730  1.0000
  H   H10       1.0  0.26950  0.13000  0.42140  1.0000
  C   C8        1.0  0.26300  0.04950  0.60550  1.0000
  C   C9        1.0  0.25170  0.08010  0.71580  1.0000
  H   H11       1.0  0.24880  0.01750  0.79120  1.0000
  C   C10       1.0  0.24470  0.20480  0.71260  1.0000
  H   H12       1.0  0.23720  0.22430  0.78730  1.0000
