data_image0
_chemical_formula_structural       In3C12O12C6H6C12O12
_chemical_formula_sum              "In3 C30 O24 H6"
_cell_length_a       9.038
_cell_length_b       9.038
_cell_length_c       18.975
_cell_angle_alpha    90
_cell_angle_beta     90
_cell_angle_gamma    120

_space_group_name_H-M_alt    "P 1"
_space_group_IT_number       1

loop_
  _space_group_symop_operation_xyz
  'x, y, z'

loop_
  _atom_site_type_symbol
  _atom_site_label
  _atom_site_symmetry_multiplicity
  _atom_site_fract_x
  _atom_site_fract_y
  _atom_site_fract_z
  _atom_site_occupancy
  In  In1       1.0  0.00000  0.00000  0.16670  1.0000
  In  In2       1.0  0.00000  0.00000  0.83337  1.0000
  In  In3       1.0  0.00000  0.00000  0.50003  1.0000
  C   C1        1.0  0.76920  0.99840  0.07780  1.0000
  C   C2        1.0  0.00160  0.77080  0.74447  1.0000
  C   C3        1.0  0.22920  0.23080  0.41113  1.0000
  C   C4        1.0  0.23080  0.00160  0.07780  1.0000
  C   C5        1.0  0.99840  0.22920  0.74447  1.0000
  C   C6        1.0  0.77080  0.76920  0.41113  1.0000
  C   C7        1.0  0.99840  0.76920  0.58887  1.0000
  C   C8        1.0  0.77080  0.00160  0.92220  1.0000
  C   C9        1.0  0.23080  0.22920  0.25553  1.0000
  C   C10       1.0  0.00160  0.23080  0.58887  1.0000
  C   C11       1.0  0.22920  0.99840  0.92220  1.0000
  C   C12       1.0  0.76920  0.77080  0.25553  1.0000
  O   O1        1.0  0.85350  0.11200  0.12520  1.0000
  O   O2        1.0  0.88800  0.74150  0.79187  1.0000
  O   O3        1.0  0.25850  0.14650  0.45853  1.0000
  O   O4        1.0  0.14650  0.88800  0.12520  1.0000
  O   O5        1.0  0.11200  0.25850  0.79187  1.0000
  O   O6        1.0  0.74150  0.85350  0.45853  1.0000
  O   O7        1.0  0.11200  0.85350  0.54147  1.0000
  O   O8        1.0  0.74150  0.88800  0.87480  1.0000
  O   O9        1.0  0.14650  0.25850  0.20813  1.0000
  O   O10       1.0  0.88800  0.14650  0.54147  1.0000
  O   O11       1.0  0.25850  0.11200  0.87480  1.0000
  O   O12       1.0  0.85350  0.74150  0.20813  1.0000
  C   C13       1.0  0.50000  0.00000  0.07150  1.0000
  C   C14       1.0  0.00000  0.50000  0.73817  1.0000
  C   C15       1.0  0.50000  0.50000  0.40483  1.0000
  C   C16       1.0  0.00000  0.50000  0.59517  1.0000
  C   C17       1.0  0.50000  0.00000  0.92850  1.0000
  C   C18       1.0  0.50000  0.50000  0.26183  1.0000
  H   H1        1.0  0.50000  0.00000  0.12150  1.0000
  H   H2        1.0  0.00000  0.50000  0.78817  1.0000
  H   H3        1.0  0.50000  0.50000  0.45483  1.0000
  H   H4        1.0  0.00000  0.50000  0.54517  1.0000
  H   H5        1.0  0.50000  0.00000  0.87850  1.0000
  H   H6        1.0  0.50000  0.50000  0.21183  1.0000
  C   C19       1.0  0.63110  0.99690  0.03810  1.0000
  C   C20       1.0  0.00310  0.63420  0.70477  1.0000
  C   C21       1.0  0.36580  0.36890  0.37143  1.0000
  C   C22       1.0  0.36890  0.00310  0.03810  1.0000
  C   C23       1.0  0.99690  0.36580  0.70477  1.0000
  C   C24       1.0  0.63420  0.63110  0.37143  1.0000
  C   C25       1.0  0.99690  0.63110  0.62857  1.0000
  C   C26       1.0  0.63420  0.00310  0.96190  1.0000
  C   C27       1.0  0.36890  0.36580  0.29523  1.0000
  C   C28       1.0  0.00310  0.36890  0.62857  1.0000
  C   C29       1.0  0.36580  0.99690  0.96190  1.0000
  C   C30       1.0  0.63110  0.63420  0.29523  1.0000
  O   O13       1.0  0.81370  0.88770  0.06950  1.0000
  O   O14       1.0  0.11230  0.92600  0.73617  1.0000
  O   O15       1.0  0.07400  0.18630  0.40283  1.0000
  O   O16       1.0  0.18630  0.11230  0.06950  1.0000
  O   O17       1.0  0.88770  0.07400  0.73617  1.0000
  O   O18       1.0  0.92600  0.81370  0.40283  1.0000
  O   O19       1.0  0.88770  0.81370  0.59717  1.0000
  O   O20       1.0  0.92600  0.11230  0.93050  1.0000
  O   O21       1.0  0.18630  0.07400  0.26383  1.0000
  O   O22       1.0  0.11230  0.18630  0.59717  1.0000
  O   O23       1.0  0.07400  0.88770  0.93050  1.0000
  O   O24       1.0  0.81370  0.92600  0.26383  1.0000
