data_image0
_chemical_formula_structural       U4O8N4O16C4O4C4O8
_chemical_formula_sum              "U4 O36 N4 C8"
_cell_length_a       11.3688
_cell_length_b       11.0238
_cell_length_c       13.4478
_cell_angle_alpha    90
_cell_angle_beta     112.465
_cell_angle_gamma    90

_space_group_name_H-M_alt    "P 1"
_space_group_IT_number       1

loop_
  _space_group_symop_operation_xyz
  'x, y, z'

loop_
  _atom_site_type_symbol
  _atom_site_label
  _atom_site_symmetry_multiplicity
  _atom_site_fract_x
  _atom_site_fract_y
  _atom_site_fract_z
  _atom_site_occupancy
  U   U1        1.0  0.21829  0.61032  0.42968  1.0000
  U   U2        1.0  0.78171  0.11032  0.07032  1.0000
  U   U3        1.0  0.78171  0.38968  0.57032  1.0000
  U   U4        1.0  0.21829  0.88968  0.92968  1.0000
  O   O1        1.0  0.44250  0.64380  0.45310  1.0000
  O   O2        1.0  0.55750  0.14380  0.04690  1.0000
  O   O3        1.0  0.55750  0.35620  0.54690  1.0000
  O   O4        1.0  0.44250  0.85620  0.95310  1.0000
  O   O5        1.0  0.00230  0.63270  0.43230  1.0000
  O   O6        1.0  0.99770  0.13270  0.06770  1.0000
  O   O7        1.0  0.99770  0.36730  0.56770  1.0000
  O   O8        1.0  0.00230  0.86730  0.93230  1.0000
  N   N1        1.0  0.16240  0.83370  0.29610  1.0000
  N   N2        1.0  0.83760  0.33370  0.20390  1.0000
  N   N3        1.0  0.83760  0.16630  0.70390  1.0000
  N   N4        1.0  0.16240  0.66630  0.79610  1.0000
  O   O9        1.0  0.86000  0.56370  0.49650  1.0000
  O   O10       1.0  0.14000  0.06370  0.00350  1.0000
  O   O11       1.0  0.14000  0.43630  0.50350  1.0000
  O   O12       1.0  0.86000  0.93630  0.99650  1.0000
  O   O13       1.0  0.63900  0.56680  0.50430  1.0000
  O   O14       1.0  0.36100  0.06680  0.99570  1.0000
  O   O15       1.0  0.36100  0.43320  0.49570  1.0000
  O   O16       1.0  0.63900  0.93320  0.00430  1.0000
  O   O17       1.0  0.13660  0.91960  0.23540  1.0000
  O   O18       1.0  0.86340  0.41960  0.26460  1.0000
  O   O19       1.0  0.86340  0.08040  0.76460  1.0000
  O   O20       1.0  0.13660  0.58040  0.73540  1.0000
  O   O21       1.0  0.27060  0.78490  0.33210  1.0000
  O   O22       1.0  0.72940  0.28490  0.16790  1.0000
  O   O23       1.0  0.72940  0.21510  0.66790  1.0000
  O   O24       1.0  0.27060  0.71510  0.83210  1.0000
  C   C1        1.0  0.52360  0.55990  0.48700  1.0000
  C   C2        1.0  0.47640  0.05990  0.01300  1.0000
  C   C3        1.0  0.47640  0.44010  0.51300  1.0000
  C   C4        1.0  0.52360  0.94010  0.98700  1.0000
  O   O25       1.0  0.08410  0.78890  0.33260  1.0000
  O   O26       1.0  0.91590  0.28890  0.16740  1.0000
  O   O27       1.0  0.91590  0.21110  0.66740  1.0000
  O   O28       1.0  0.08410  0.71110  0.83260  1.0000
  C   C5        1.0  0.96030  0.55610  0.47990  1.0000
  C   C6        1.0  0.03970  0.05610  0.02010  1.0000
  C   C7        1.0  0.03970  0.44390  0.52010  1.0000
  C   C8        1.0  0.96030  0.94390  0.97990  1.0000
  O   O29       1.0  0.26630  0.68550  0.55390  1.0000
  O   O30       1.0  0.73370  0.18550  0.94610  1.0000
  O   O31       1.0  0.73370  0.31450  0.44610  1.0000
  O   O32       1.0  0.26630  0.81450  0.05390  1.0000
  O   O33       1.0  0.16760  0.53680  0.30520  1.0000
  O   O34       1.0  0.83240  0.03680  0.19480  1.0000
  O   O35       1.0  0.83240  0.46320  0.69480  1.0000
  O   O36       1.0  0.16760  0.96320  0.80520  1.0000
