data_image0
_chemical_formula_structural       Mg6O36H8N8C12H4C4H4C12H4C4H4C4H4C4H4C20H4C4H4C12H4C4H4C4H4C4H4C12H4C4H4C4H4C4H12
_chemical_formula_sum              "Mg6 O36 H80 N8 C112"
_cell_length_a       15.5337
_cell_length_b       13.9515
_cell_length_c       17.4752
_cell_angle_alpha    90
_cell_angle_beta     115.275
_cell_angle_gamma    90

_space_group_name_H-M_alt    "P 1"
_space_group_IT_number       1

loop_
  _space_group_symop_operation_xyz
  'x, y, z'

loop_
  _atom_site_type_symbol
  _atom_site_label
  _atom_site_symmetry_multiplicity
  _atom_site_fract_x
  _atom_site_fract_y
  _atom_site_fract_z
  _atom_site_occupancy
  Mg  Mg1       1.0  0.76774  0.48722  0.50434  1.0000
  Mg  Mg2       1.0  0.73226  0.98722  0.99566  1.0000
  Mg  Mg3       1.0  0.23226  0.51278  0.49566  1.0000
  Mg  Mg4       1.0  0.26774  0.01278  0.00434  1.0000
  Mg  Mg5       1.0  1.00000  0.50000  0.50000  1.0000
  Mg  Mg6       1.0  0.50000  0.00000  0.00000  1.0000
  O   O1        1.0  0.78756  0.38102  0.43265  1.0000
  O   O2        1.0  0.71244  0.88102  0.06735  1.0000
  O   O3        1.0  0.21244  0.61898  0.56735  1.0000
  O   O4        1.0  0.28756  0.11898  0.93265  1.0000
  O   O5        1.0  0.93603  0.37318  0.44535  1.0000
  O   O6        1.0  0.56397  0.87318  0.05465  1.0000
  O   O7        1.0  0.06397  0.62682  0.55465  1.0000
  O   O8        1.0  0.43603  0.12682  0.94535  1.0000
  O   O9        1.0  0.60358  0.07897  0.09521  1.0000
  O   O10       1.0  0.89642  0.57897  0.40479  1.0000
  O   O11       1.0  0.39642  0.92103  0.90479  1.0000
  O   O12       1.0  0.10358  0.42103  0.59521  1.0000
  O   O13       1.0  0.74100  0.08352  0.08454  1.0000
  O   O14       1.0  0.75900  0.58352  0.41546  1.0000
  O   O15       1.0  0.25900  0.91648  0.91546  1.0000
  O   O16       1.0  0.24100  0.41648  0.58454  1.0000
  O   O17       1.0  0.76806  0.38695  0.58889  1.0000
  O   O18       1.0  0.73194  0.88695  0.91111  1.0000
  O   O19       1.0  0.23194  0.61305  0.41111  1.0000
  O   O20       1.0  0.26806  0.11305  0.08889  1.0000
  O   O21       1.0  0.91645  0.33819  0.65622  1.0000
  O   O22       1.0  0.58355  0.83819  0.84378  1.0000
  O   O23       1.0  0.08355  0.66181  0.34378  1.0000
  O   O24       1.0  0.41645  0.16181  0.15622  1.0000
  O   O25       1.0  0.59528  0.11795  0.81771  1.0000
  O   O26       1.0  0.90472  0.61795  0.68229  1.0000
  O   O27       1.0  0.40472  0.88205  0.18229  1.0000
  O   O28       1.0  0.09528  0.38205  0.31771  1.0000
  O   O29       1.0  0.74055  0.09379  0.91839  1.0000
  O   O30       1.0  0.75945  0.59379  0.58161  1.0000
  O   O31       1.0  0.25945  0.90621  0.08161  1.0000
  O   O32       1.0  0.24055  0.40621  0.41839  1.0000
  O   O33       1.0  0.92385  0.49704  0.57481  1.0000
  O   O34       1.0  0.57615  0.99704  0.92519  1.0000
  O   O35       1.0  0.07615  0.50296  0.42519  1.0000
  O   O36       1.0  0.42385  0.00296  0.07481  1.0000
  H   H1        1.0  0.93030  0.54090  0.60960  1.0000
  H   H2        1.0  0.56970  0.04090  0.89040  1.0000
  H   H3        1.0  0.06970  0.45910  0.39040  1.0000
  H   H4        1.0  0.43030  0.95910  0.10960  1.0000
  H   H5        1.0  0.93280  0.44580  0.60030  1.0000
  H   H6        1.0  0.56720  0.94580  0.89970  1.0000
  H   H7        1.0  0.06720  0.55420  0.39970  1.0000
  H   H8        1.0  0.43280  0.05420  0.10030  1.0000
  N   N1        1.0  0.61483  0.47344  0.44353  1.0000
  N   N2        1.0  0.88517  0.97344  0.05647  1.0000
  N   N3        1.0  0.38517  0.52656  0.55647  1.0000
  N   N4        1.0  0.11483  0.02656  0.94353  1.0000
  N   N5        1.0  0.46346  0.50606  0.36802  1.0000
  N   N6        1.0  0.03654  0.00606  0.13198  1.0000
  N   N7        1.0  0.53654  0.49394  0.63198  1.0000
  N   N8        1.0  0.96346  0.99394  0.86802  1.0000
  C   C1        1.0  0.85107  0.34599  0.41627  1.0000
  C   C2        1.0  0.64893  0.84599  0.08373  1.0000
  C   C3        1.0  0.14893  0.65401  0.58373  1.0000
  C   C4        1.0  0.35107  0.15401  0.91627  1.0000
  C   C5        1.0  0.82058  0.26753  0.35052  1.0000
  C   C6        1.0  0.67942  0.76753  0.14948  1.0000
  C   C7        1.0  0.17942  0.73247  0.64948  1.0000
  C   C8        1.0  0.32058  0.23247  0.85052  1.0000
  C   C9        1.0  0.84721  0.27553  0.28573  1.0000
  C   C10       1.0  0.65279  0.77553  0.21427  1.0000
  C   C11       1.0  0.15279  0.72447  0.71427  1.0000
  C   C12       1.0  0.34721  0.22447  0.78573  1.0000
  H   H9        1.0  0.89320  0.32020  0.28930  1.0000
  H   H10       1.0  0.60680  0.82020  0.21070  1.0000
  H   H11       1.0  0.10680  0.67980  0.71070  1.0000
  H   H12       1.0  0.39320  0.17980  0.78930  1.0000
  C   C13       1.0  0.80576  0.21693  0.21387  1.0000
  C   C14       1.0  0.69424  0.71693  0.28613  1.0000
  C   C15       1.0  0.19424  0.78307  0.78613  1.0000
  C   C16       1.0  0.30576  0.28307  0.71387  1.0000
  H   H13       1.0  0.82490  0.22340  0.17050  1.0000
  H   H14       1.0  0.67510  0.72340  0.32950  1.0000
  H   H15       1.0  0.17510  0.77660  0.82950  1.0000
  H   H16       1.0  0.32490  0.27660  0.67050  1.0000
  C   C17       1.0  0.73773  0.15039  0.20623  1.0000
  C   C18       1.0  0.76227  0.65039  0.29377  1.0000
  C   C19       1.0  0.26227  0.84961  0.79377  1.0000
  C   C20       1.0  0.23773  0.34961  0.70623  1.0000
  C   C21       1.0  0.71379  0.13419  0.27557  1.0000
  C   C22       1.0  0.78621  0.63419  0.22443  1.0000
  C   C23       1.0  0.28621  0.86581  0.72443  1.0000
  C   C24       1.0  0.21379  0.36581  0.77557  1.0000
  C   C25       1.0  0.65146  0.05985  0.27599  1.0000
  C   C26       1.0  0.84854  0.55985  0.22401  1.0000
  C   C27       1.0  0.34854  0.94015  0.72401  1.0000
  C   C28       1.0  0.15146  0.44015  0.77599  1.0000
  H   H17       1.0  0.62200  0.02150  0.22830  1.0000
  H   H18       1.0  0.87800  0.52150  0.27170  1.0000
  H   H19       1.0  0.37800  0.97850  0.77170  1.0000
  H   H20       1.0  0.12200  0.47850  0.72830  1.0000
  C   C29       1.0  0.63426  0.04392  0.34466  1.0000
  C   C30       1.0  0.86574  0.54392  0.15534  1.0000
  C   C31       1.0  0.36574  0.95608  0.65534  1.0000
  C   C32       1.0  0.13426  0.45608  0.84466  1.0000
  H   H21       1.0  0.59330  0.99480  0.34370  1.0000
  H   H22       1.0  0.90670  0.49480  0.15630  1.0000
  H   H23       1.0  0.40670  0.00520  0.65630  1.0000
  H   H24       1.0  0.09330  0.50520  0.84370  1.0000
  C   C33       1.0  0.67785  0.10098  0.41734  1.0000
  C   C34       1.0  0.82215  0.60098  0.08266  1.0000
  C   C35       1.0  0.32215  0.89902  0.58266  1.0000
  C   C36       1.0  0.17785  0.39902  0.91734  1.0000
  H   H25       1.0  0.66630  0.08880  0.46440  1.0000
  H   H26       1.0  0.83370  0.58880  0.03560  1.0000
  H   H27       1.0  0.33370  0.91120  0.53560  1.0000
  H   H28       1.0  0.16630  0.41120  0.96440  1.0000
  C   C37       1.0  0.73655  0.17362  0.41936  1.0000
  C   C38       1.0  0.76345  0.67362  0.08064  1.0000
  C   C39       1.0  0.26345  0.82638  0.58064  1.0000
  C   C40       1.0  0.23655  0.32638  0.91936  1.0000
  H   H29       1.0  0.76410  0.21150  0.46760  1.0000
  H   H30       1.0  0.73590  0.71150  0.03240  1.0000
  H   H31       1.0  0.23590  0.78850  0.53240  1.0000
  H   H32       1.0  0.26410  0.28850  0.96760  1.0000
  C   C41       1.0  0.75661  0.19271  0.34927  1.0000
  C   C42       1.0  0.74339  0.69271  0.15073  1.0000
  C   C43       1.0  0.24339  0.80729  0.65073  1.0000
  C   C44       1.0  0.25661  0.30729  0.84927  1.0000
  C   C45       1.0  0.68988  0.09881  0.12224  1.0000
  C   C46       1.0  0.81012  0.59881  0.37776  1.0000
  C   C47       1.0  0.31012  0.90119  0.87776  1.0000
  C   C48       1.0  0.18988  0.40119  0.62224  1.0000
  C   C49       1.0  0.83195  0.33976  0.64457  1.0000
  C   C50       1.0  0.66805  0.83976  0.85543  1.0000
  C   C51       1.0  0.16805  0.66024  0.35543  1.0000
  C   C52       1.0  0.33195  0.16024  0.14457  1.0000
  C   C53       1.0  0.80045  0.28306  0.70128  1.0000
  C   C54       1.0  0.69955  0.78306  0.79872  1.0000
  C   C55       1.0  0.19955  0.71694  0.29872  1.0000
  C   C56       1.0  0.30045  0.21694  0.20128  1.0000
  C   C57       1.0  0.73698  0.20999  0.66830  1.0000
  C   C58       1.0  0.76302  0.70999  0.83170  1.0000
  C   C59       1.0  0.26302  0.79001  0.33170  1.0000
  C   C60       1.0  0.23698  0.29001  0.16830  1.0000
  H   H33       1.0  0.71830  0.19190  0.61220  1.0000
  H   H34       1.0  0.78170  0.69190  0.88780  1.0000
  H   H35       1.0  0.28170  0.80810  0.38780  1.0000
  H   H36       1.0  0.21830  0.30810  0.11220  1.0000
  C   C61       1.0  0.69956  0.16175  0.71745  1.0000
  C   C62       1.0  0.80044  0.66175  0.78255  1.0000
  C   C63       1.0  0.30044  0.83825  0.28255  1.0000
  C   C64       1.0  0.19956  0.33825  0.21745  1.0000
  H   H37       1.0  0.65600  0.11240  0.69330  1.0000
  H   H38       1.0  0.84400  0.61240  0.80670  1.0000
  H   H39       1.0  0.34400  0.88760  0.30670  1.0000
  H   H40       1.0  0.15600  0.38760  0.19330  1.0000
  C   C65       1.0  0.72547  0.18541  0.80013  1.0000
  C   C66       1.0  0.77453  0.68541  0.69987  1.0000
  C   C67       1.0  0.27453  0.81459  0.19987  1.0000
  C   C68       1.0  0.22547  0.31459  0.30013  1.0000
  C   C69       1.0  0.79216  0.26039  0.83744  1.0000
  C   C70       1.0  0.70784  0.76039  0.66256  1.0000
  C   C71       1.0  0.20784  0.73961  0.16256  1.0000
  C   C72       1.0  0.29216  0.23961  0.33744  1.0000
  C   C73       1.0  0.82163  0.28971  0.92234  1.0000
  C   C74       1.0  0.67837  0.78971  0.57766  1.0000
  C   C75       1.0  0.17837  0.71029  0.07766  1.0000
  C   C76       1.0  0.32163  0.21029  0.42234  1.0000
  H   H41       1.0  0.79840  0.25790  0.95650  1.0000
  H   H42       1.0  0.70160  0.75790  0.54350  1.0000
  H   H43       1.0  0.20160  0.74210  0.04350  1.0000
  H   H44       1.0  0.29840  0.24210  0.45650  1.0000
  C   C77       1.0  0.88380  0.36420  0.95479  1.0000
  C   C78       1.0  0.61620  0.86420  0.54521  1.0000
  C   C79       1.0  0.11620  0.63580  0.04521  1.0000
  C   C80       1.0  0.38380  0.13580  0.45479  1.0000
  H   H45       1.0  0.90290  0.38240  0.01090  1.0000
  H   H46       1.0  0.59710  0.88240  0.48910  1.0000
  H   H47       1.0  0.09710  0.61760  0.98910  1.0000
  H   H48       1.0  0.40290  0.11760  0.51090  1.0000
  C   C81       1.0  0.91900  0.41331  0.90421  1.0000
  C   C82       1.0  0.58100  0.91331  0.59579  1.0000
  C   C83       1.0  0.08100  0.58669  0.09579  1.0000
  C   C84       1.0  0.41900  0.08669  0.40421  1.0000
  H   H49       1.0  0.96030  0.46470  0.92670  1.0000
  H   H50       1.0  0.53970  0.96470  0.57330  1.0000
  H   H51       1.0  0.03970  0.53530  0.07330  1.0000
  H   H52       1.0  0.46030  0.03530  0.42670  1.0000
  C   C85       1.0  0.89341  0.38686  0.82350  1.0000
  C   C86       1.0  0.60659  0.88686  0.67650  1.0000
  C   C87       1.0  0.10659  0.61314  0.17650  1.0000
  C   C88       1.0  0.39341  0.11314  0.32350  1.0000
  H   H53       1.0  0.91800  0.41970  0.79100  1.0000
  H   H54       1.0  0.58200  0.91970  0.70900  1.0000
  H   H55       1.0  0.08200  0.58030  0.20900  1.0000
  H   H56       1.0  0.41800  0.08030  0.29100  1.0000
  C   C89       1.0  0.82972  0.30990  0.78713  1.0000
  C   C90       1.0  0.67028  0.80990  0.71287  1.0000
  C   C91       1.0  0.17028  0.69010  0.21287  1.0000
  C   C92       1.0  0.32972  0.19010  0.28713  1.0000
  C   C93       1.0  0.68361  0.12838  0.84952  1.0000
  C   C94       1.0  0.81639  0.62838  0.65048  1.0000
  C   C95       1.0  0.31639  0.87162  0.15048  1.0000
  C   C96       1.0  0.18361  0.37162  0.34952  1.0000
  C   C97       1.0  0.55987  0.40562  0.45833  1.0000
  C   C98       1.0  0.94013  0.90562  0.04167  1.0000
  C   C99       1.0  0.44013  0.59438  0.54167  1.0000
  C   C100      1.0  0.05987  0.09438  0.95833  1.0000
  H   H57       1.0  0.58340  0.35370  0.49480  1.0000
  H   H58       1.0  0.91660  0.85370  0.00520  1.0000
  H   H59       1.0  0.41660  0.64630  0.50520  1.0000
  H   H60       1.0  0.08340  0.14630  0.99480  1.0000
  C   C101      1.0  0.46684  0.42503  0.41236  1.0000
  C   C102      1.0  0.03316  0.92503  0.08764  1.0000
  C   C103      1.0  0.53316  0.57497  0.58764  1.0000
  C   C104      1.0  0.96684  0.07497  0.91236  1.0000
  H   H61       1.0  0.41530  0.39000  0.41120  1.0000
  H   H62       1.0  0.08470  0.89000  0.08880  1.0000
  H   H63       1.0  0.58470  0.61000  0.58880  1.0000
  H   H64       1.0  0.91530  0.11000  0.91120  1.0000
  C   C105      1.0  0.55384  0.53271  0.38907  1.0000
  C   C106      1.0  0.94616  0.03271  0.11093  1.0000
  C   C107      1.0  0.44616  0.46729  0.61093  1.0000
  C   C108      1.0  0.05384  0.96729  0.88907  1.0000
  H   H65       1.0  0.57110  0.58670  0.36760  1.0000
  H   H66       1.0  0.92890  0.08670  0.13240  1.0000
  H   H67       1.0  0.42890  0.41330  0.63240  1.0000
  H   H68       1.0  0.07110  0.91330  0.86760  1.0000
  C   C109      1.0  0.37749  0.55570  0.31043  1.0000
  C   C110      1.0  0.12251  0.05570  0.18957  1.0000
  C   C111      1.0  0.62251  0.44430  0.68957  1.0000
  C   C112      1.0  0.87749  0.94430  0.81043  1.0000
  H   H69       1.0  0.39470  0.61360  0.29070  1.0000
  H   H70       1.0  0.10530  0.11360  0.20930  1.0000
  H   H71       1.0  0.60530  0.38640  0.70930  1.0000
  H   H72       1.0  0.89470  0.88640  0.79070  1.0000
  H   H73       1.0  0.33910  0.57120  0.33960  1.0000
  H   H74       1.0  0.16090  0.07120  0.16040  1.0000
  H   H75       1.0  0.66090  0.42880  0.66040  1.0000
  H   H76       1.0  0.83910  0.92880  0.83960  1.0000
  H   H77       1.0  0.34200  0.51500  0.26310  1.0000
  H   H78       1.0  0.15800  0.01500  0.23690  1.0000
  H   H79       1.0  0.65800  0.48500  0.73690  1.0000
  H   H80       1.0  0.84200  0.98500  0.76310  1.0000
