data_image0
_chemical_formula_structural       Cu4O28C14
_chemical_formula_sum              "Cu4 O28 C14"
_cell_length_a       9.156
_cell_length_b       13.418
_cell_length_c       14.231
_cell_angle_alpha    113.905
_cell_angle_beta     92.825
_cell_angle_gamma    102.589

_space_group_name_H-M_alt    "P 1"
_space_group_IT_number       1

loop_
  _space_group_symop_operation_xyz
  'x, y, z'

loop_
  _atom_site_type_symbol
  _atom_site_label
  _atom_site_symmetry_multiplicity
  _atom_site_fract_x
  _atom_site_fract_y
  _atom_site_fract_z
  _atom_site_occupancy
  Cu  Cu1       1.0  0.32958  0.29693  0.99358  1.0000
  Cu  Cu2       1.0  0.67042  0.70307  0.00642  1.0000
  Cu  Cu3       1.0  0.21751  0.42978  0.37721  1.0000
  Cu  Cu4       1.0  0.78249  0.57022  0.62279  1.0000
  O   O1        1.0  0.19160  0.37537  0.08347  1.0000
  O   O2        1.0  0.80840  0.62463  0.91653  1.0000
  O   O3        1.0  0.32660  0.22803  0.11921  1.0000
  O   O4        1.0  0.67340  0.77197  0.88079  1.0000
  O   O5        1.0  0.15030  0.44061  0.24803  1.0000
  O   O6        1.0  0.84970  0.55939  0.75197  1.0000
  O   O7        1.0  0.27030  0.29368  0.28155  1.0000
  O   O8        1.0  0.72970  0.70632  0.71845  1.0000
  O   O9        1.0  0.15784  0.17401  0.89900  1.0000
  O   O10       1.0  0.84216  0.82599  0.10100  1.0000
  O   O11       1.0  0.11770  0.00371  0.76558  1.0000
  O   O12       1.0  0.88230  0.99629  0.23442  1.0000
  O   O13       1.0  0.45389  0.20569  0.90555  1.0000
  O   O14       1.0  0.54611  0.79431  0.09445  1.0000
  O   O15       1.0  0.42110  0.04370  0.76489  1.0000
  O   O16       1.0  0.57890  0.95630  0.23511  1.0000
  O   O17       1.0  0.16120  0.56850  0.46621  1.0000
  O   O18       1.0  0.83880  0.43150  0.53379  1.0000
  O   O19       1.0  0.01025  0.64145  0.57856  1.0000
  O   O20       1.0  0.98975  0.35855  0.42144  1.0000
  O   O21       1.0  0.31852  0.42083  0.49864  1.0000
  O   O22       1.0  0.68148  0.57917  0.50136  1.0000
  O   O23       1.0  0.53226  0.46697  0.60470  1.0000
  O   O24       1.0  0.46774  0.53303  0.39530  1.0000
  O   O25       1.0  0.50551  0.42543  0.07710  1.0000
  O   O26       1.0  0.49449  0.57457  0.92290  1.0000
  O   O27       1.0  0.65005  0.59215  0.09855  1.0000
  O   O28       1.0  0.34995  0.40785  0.90145  1.0000
  C   C1        1.0  0.20030  0.37658  0.17207  1.0000
  C   C2        1.0  0.79970  0.62342  0.82793  1.0000
  C   C3        1.0  0.27420  0.29081  0.19079  1.0000
  C   C4        1.0  0.72580  0.70919  0.80921  1.0000
  C   C5        1.0  0.19980  0.09340  0.83112  1.0000
  C   C6        1.0  0.80020  0.90660  0.16888  1.0000
  C   C7        1.0  0.37380  0.11460  0.83370  1.0000
  C   C8        1.0  0.62620  0.88540  0.16630  1.0000
  C   C9        1.0  0.04900  0.56042  0.51306  1.0000
  C   C10       1.0  0.95100  0.43958  0.48694  1.0000
  C   C11       1.0  0.45760  0.46800  0.52996  1.0000
  C   C12       1.0  0.54240  0.53200  0.47004  1.0000
  C   C13       1.0  0.54470  0.50480  0.05013  1.0000
  C   C14       1.0  0.45530  0.49520  0.94987  1.0000
