data_image0
_chemical_formula_structural       Cu4O28C14
_chemical_formula_sum              "Cu4 O28 C14"
_cell_length_a       9.1705
_cell_length_b       13.4229
_cell_length_c       14.2702
_cell_angle_alpha    113.96
_cell_angle_beta     92.38
_cell_angle_gamma    102.744

_space_group_name_H-M_alt    "P 1"
_space_group_IT_number       1

loop_
  _space_group_symop_operation_xyz
  'x, y, z'

loop_
  _atom_site_type_symbol
  _atom_site_label
  _atom_site_symmetry_multiplicity
  _atom_site_fract_x
  _atom_site_fract_y
  _atom_site_fract_z
  _atom_site_occupancy
  Cu  Cu1       1.0  0.32932  0.29715  0.99400  1.0000
  Cu  Cu2       1.0  0.67068  0.70285  0.00600  1.0000
  Cu  Cu3       1.0  0.21833  0.42991  0.37749  1.0000
  Cu  Cu4       1.0  0.78167  0.57009  0.62251  1.0000
  O   O1        1.0  0.19241  0.37595  0.08501  1.0000
  O   O2        1.0  0.80759  0.62405  0.91499  1.0000
  O   O3        1.0  0.32570  0.22806  0.11931  1.0000
  O   O4        1.0  0.67430  0.77194  0.88069  1.0000
  O   O5        1.0  0.15232  0.44149  0.24929  1.0000
  O   O6        1.0  0.84768  0.55851  0.75071  1.0000
  O   O7        1.0  0.26980  0.29370  0.28144  1.0000
  O   O8        1.0  0.73020  0.70630  0.71856  1.0000
  O   O9        1.0  0.15809  0.17455  0.89989  1.0000
  O   O10       1.0  0.84191  0.82545  0.10011  1.0000
  O   O11       1.0  0.11780  0.00504  0.76639  1.0000
  O   O12       1.0  0.88220  0.99496  0.23361  1.0000
  O   O13       1.0  0.45271  0.20556  0.90590  1.0000
  O   O14       1.0  0.54729  0.79444  0.09410  1.0000
  O   O15       1.0  0.42030  0.04388  0.76546  1.0000
  O   O16       1.0  0.57970  0.95612  0.23454  1.0000
  O   O17       1.0  0.16207  0.56835  0.46676  1.0000
  O   O18       1.0  0.83793  0.43165  0.53324  1.0000
  O   O19       1.0  0.01066  0.64138  0.57853  1.0000
  O   O20       1.0  0.98934  0.35862  0.42147  1.0000
  O   O21       1.0  0.31874  0.42104  0.49841  1.0000
  O   O22       1.0  0.68126  0.57896  0.50159  1.0000
  O   O23       1.0  0.53046  0.46711  0.60428  1.0000
  O   O24       1.0  0.46954  0.53289  0.39572  1.0000
  O   O25       1.0  0.50549  0.42546  0.07626  1.0000
  O   O26       1.0  0.49451  0.57454  0.92374  1.0000
  O   O27       1.0  0.65018  0.59132  0.09746  1.0000
  O   O28       1.0  0.34982  0.40868  0.90254  1.0000
  C   C1        1.0  0.20120  0.37720  0.17348  1.0000
  C   C2        1.0  0.79880  0.62280  0.82652  1.0000
  C   C3        1.0  0.27390  0.29120  0.19128  1.0000
  C   C4        1.0  0.72610  0.70880  0.80872  1.0000
  C   C5        1.0  0.19990  0.09440  0.83203  1.0000
  C   C6        1.0  0.80010  0.90560  0.16797  1.0000
  C   C7        1.0  0.37290  0.11470  0.83390  1.0000
  C   C8        1.0  0.62710  0.88530  0.16610  1.0000
  C   C9        1.0  0.04890  0.55980  0.51316  1.0000
  C   C10       1.0  0.95110  0.44020  0.48684  1.0000
  C   C11       1.0  0.45680  0.46800  0.52949  1.0000
  C   C12       1.0  0.54320  0.53200  0.47051  1.0000
  C   C13       1.0  0.54540  0.50470  0.04987  1.0000
  C   C14       1.0  0.45460  0.49530  0.95013  1.0000
