data_image0
_chemical_formula_structural       Cu4O24C12
_chemical_formula_sum              "Cu4 O24 C12"
_cell_length_a       8.978
_cell_length_b       9.375
_cell_length_c       14.573
_cell_angle_alpha    85.705
_cell_angle_beta     88.493
_cell_angle_gamma    84.761

_space_group_name_H-M_alt    "P 1"
_space_group_IT_number       1

loop_
  _space_group_symop_operation_xyz
  'x, y, z'

loop_
  _atom_site_type_symbol
  _atom_site_label
  _atom_site_symmetry_multiplicity
  _atom_site_fract_x
  _atom_site_fract_y
  _atom_site_fract_z
  _atom_site_occupancy
  Cu  Cu1       1.0  0.32352  0.09670  0.05068  1.0000
  Cu  Cu2       1.0  0.32712  0.39242  0.72243  1.0000
  Cu  Cu3       1.0  0.81521  0.60220  0.53607  1.0000
  Cu  Cu4       1.0  0.81892  0.89843  0.20643  1.0000
  O   O1        1.0  0.42750  0.90720  0.08980  1.0000
  O   O2        1.0  0.19650  0.07660  0.18770  1.0000
  O   O3        1.0  0.49740  0.17230  0.10100  1.0000
  O   O4        1.0  0.14550  0.01340  0.01420  1.0000
  O   O5        1.0  0.45820  0.08690  0.91040  1.0000
  O   O6        1.0  0.25590  0.28410  0.98590  1.0000
  O   O7        1.0  0.43290  0.21450  0.77490  1.0000
  O   O8        1.0  0.23850  0.39900  0.84750  1.0000
  O   O9        1.0  0.12750  0.31320  0.65390  1.0000
  O   O10       1.0  0.21610  0.57750  0.68130  1.0000
  O   O11       1.0  0.52590  0.52460  0.74210  1.0000
  O   O12       1.0  0.43490  0.38710  0.60120  1.0000
  O   O13       1.0  0.70720  0.61620  0.65430  1.0000
  O   O14       1.0  0.61560  0.47330  0.51160  1.0000
  O   O15       1.0  0.93250  0.41740  0.57490  1.0000
  O   O16       1.0  0.01840  0.67930  0.60370  1.0000
  O   O17       1.0  0.70360  0.78310  0.48360  1.0000
  O   O18       1.0  0.90600  0.59340  0.41150  1.0000
  O   O19       1.0  0.68460  0.91280  0.34790  1.0000
  O   O20       1.0  0.89230  0.71380  0.27340  1.0000
  O   O21       1.0  0.64420  0.81950  0.15750  1.0000
  O   O22       1.0  0.99970  0.97780  0.24010  1.0000
  O   O23       1.0  0.71160  0.09590  0.16680  1.0000
  O   O24       1.0  0.93310  0.91270  0.06790  1.0000
  C   C1        1.0  0.55310  0.91360  0.12710  1.0000
  C   C2        1.0  0.08850  0.01870  0.17950  1.0000
  C   C3        1.0  0.29300  0.29570  0.90310  1.0000
  C   C4        1.0  0.40080  0.18670  0.86080  1.0000
  C   C5        1.0  0.09430  0.57120  0.63880  1.0000
  C   C6        1.0  0.60330  0.53840  0.66870  1.0000
  C   C7        1.0  0.55110  0.45770  0.58610  1.0000
  C   C8        1.0  0.04900  0.41540  0.62440  1.0000
  C   C9        1.0  0.73410  0.80630  0.40020  1.0000
  C   C10       1.0  0.85840  0.69250  0.35880  1.0000
  C   C11       1.0  0.59220  0.07030  0.13340  1.0000
  C   C12       1.0  0.05370  0.98320  0.08040  1.0000
