data_image0
_chemical_formula_structural       Cu2O12C12O12Cu4O12C4O4Cu2O8C8Cu8O8C4O8C4O8C4O8C4O8C4O8C4
_chemical_formula_sum              "Cu16 O96 C48"
_cell_length_a       17.6957
_cell_length_b       16.7387
_cell_length_c       17.8857
_cell_angle_alpha    90
_cell_angle_beta     107.504
_cell_angle_gamma    90

_space_group_name_H-M_alt    "P 1"
_space_group_IT_number       1

loop_
  _space_group_symop_operation_xyz
  'x, y, z'

loop_
  _atom_site_type_symbol
  _atom_site_label
  _atom_site_symmetry_multiplicity
  _atom_site_fract_x
  _atom_site_fract_y
  _atom_site_fract_z
  _atom_site_occupancy
  Cu  Cu1       1.0  0.47396  0.38990  0.84003  1.0000
  Cu  Cu2       1.0  0.52604  0.88990  0.15997  1.0000
  O   O1        1.0  0.41928  0.41809  0.91843  1.0000
  O   O2        1.0  0.58072  0.91809  0.08157  1.0000
  O   O3        1.0  0.55150  0.49873  0.90967  1.0000
  O   O4        1.0  0.44850  0.99873  0.09033  1.0000
  O   O5        1.0  0.40993  0.46943  0.76391  1.0000
  O   O6        1.0  0.59007  0.96943  0.23609  1.0000
  O   O7        1.0  0.54007  0.38957  0.76840  1.0000
  O   O8        1.0  0.45993  0.88957  0.23160  1.0000
  O   O9        1.0  0.54614  0.31348  0.91019  1.0000
  O   O10       1.0  0.45386  0.81348  0.08981  1.0000
  O   O11       1.0  0.41178  0.27158  0.79930  1.0000
  O   O12       1.0  0.58822  0.77158  0.20070  1.0000
  C   C1        1.0  0.44940  0.47070  0.96730  1.0000
  C   C2        1.0  0.55060  0.97070  0.03270  1.0000
  C   C3        1.0  0.52410  0.51440  0.96500  1.0000
  C   C4        1.0  0.47590  0.01440  0.03500  1.0000
  C   C5        1.0  0.44700  0.49230  0.71740  1.0000
  C   C6        1.0  0.55300  0.99230  0.28260  1.0000
  C   C7        1.0  0.52390  0.44560  0.72070  1.0000
  C   C8        1.0  0.47610  0.94560  0.27930  1.0000
  C   C9        1.0  0.52840  0.23900  0.90360  1.0000
  C   C10       1.0  0.47160  0.73900  0.09640  1.0000
  C   C11       1.0  0.45050  0.21720  0.83950  1.0000
  C   C12       1.0  0.54950  0.71720  0.16050  1.0000
  O   O13       1.0  0.42134  0.49193  0.02133  1.0000
  O   O14       1.0  0.57866  0.99193  0.97867  1.0000
  O   O15       1.0  0.55169  0.56553  0.01609  1.0000
  O   O16       1.0  0.44831  0.06553  0.98391  1.0000
  O   O17       1.0  0.42419  0.54895  0.67034  1.0000
  O   O18       1.0  0.57581  0.04895  0.32966  1.0000
  O   O19       1.0  0.55929  0.46745  0.67410  1.0000
  O   O20       1.0  0.44071  0.96745  0.32590  1.0000
  O   O21       1.0  0.56928  0.18514  0.94261  1.0000
  O   O22       1.0  0.43072  0.68514  0.05739  1.0000
  O   O23       1.0  0.43275  0.14434  0.83107  1.0000
  O   O24       1.0  0.56725  0.64434  0.16893  1.0000
  Cu  Cu3       1.0  0.49453  0.56612  0.09690  1.0000
  Cu  Cu4       1.0  0.50547  0.06612  0.90310  1.0000
  Cu  Cu5       1.0  0.49277  0.56911  0.59543  1.0000
  Cu  Cu6       1.0  0.50723  0.06911  0.40457  1.0000
  O   O25       1.0  0.44005  0.14650  0.33140  1.0000
  O   O26       1.0  0.55995  0.64650  0.66860  1.0000
  O   O27       1.0  0.57560  0.18084  0.44604  1.0000
  O   O28       1.0  0.42440  0.68084  0.55396  1.0000
  O   O29       1.0  0.42974  0.48896  0.52223  1.0000
  O   O30       1.0  0.57026  0.98896  0.47777  1.0000
  O   O31       1.0  0.55750  0.57001  0.51970  1.0000
  O   O32       1.0  0.44250  0.07001  0.48030  1.0000
  O   O33       1.0  0.56730  0.45943  0.16680  1.0000
  O   O34       1.0  0.43270  0.95943  0.83320  1.0000
  O   O35       1.0  0.43640  0.54525  0.17456  1.0000
  O   O36       1.0  0.56360  0.04525  0.82544  1.0000
  C   C13       1.0  0.53700  0.44220  0.21880  1.0000
  C   C14       1.0  0.46300  0.94220  0.78120  1.0000
  C   C15       1.0  0.46120  0.48830  0.22130  1.0000
  C   C16       1.0  0.53880  0.98830  0.77870  1.0000
  O   O37       1.0  0.55919  0.38848  0.27054  1.0000
  O   O38       1.0  0.44081  0.88848  0.72946  1.0000
  O   O39       1.0  0.42900  0.46506  0.27037  1.0000
  O   O40       1.0  0.57100  0.96506  0.72963  1.0000
  Cu  Cu7       1.0  0.49593  0.38891  0.34486  1.0000
  Cu  Cu8       1.0  0.50407  0.88891  0.65514  1.0000
  O   O41       1.0  0.43850  0.41261  0.42437  1.0000
  O   O42       1.0  0.56150  0.91261  0.57563  1.0000
  O   O43       1.0  0.56227  0.30958  0.41388  1.0000
  O   O44       1.0  0.43773  0.80958  0.58612  1.0000
  O   O45       1.0  0.42505  0.27488  0.30040  1.0000
  O   O46       1.0  0.57495  0.77488  0.69960  1.0000
  O   O47       1.0  0.56235  0.50498  0.41322  1.0000
  O   O48       1.0  0.43765  0.00498  0.58678  1.0000
  C   C17       1.0  0.46140  0.46830  0.46980  1.0000
  C   C18       1.0  0.53860  0.96830  0.53020  1.0000
  C   C19       1.0  0.53960  0.23820  0.40590  1.0000
  C   C20       1.0  0.46040  0.73820  0.59410  1.0000
  C   C21       1.0  0.46070  0.21940  0.34050  1.0000
  C   C22       1.0  0.53930  0.71940  0.65950  1.0000
  C   C23       1.0  0.53380  0.51830  0.46720  1.0000
  C   C24       1.0  0.46620  0.01830  0.53280  1.0000
  Cu  Cu9       1.0  0.99854  0.40810  0.65000  1.0000
  Cu  Cu10      1.0  0.00146  0.90810  0.35000  1.0000
  Cu  Cu11      1.0  0.01413  0.23234  0.40544  1.0000
  Cu  Cu12      1.0  0.98587  0.73234  0.59456  1.0000
  Cu  Cu13      1.0  0.00079  0.41204  0.15421  1.0000
  Cu  Cu14      1.0  0.99921  0.91204  0.84579  1.0000
  Cu  Cu15      1.0  0.00871  0.73522  0.09932  1.0000
  Cu  Cu16      1.0  0.99129  0.23522  0.90068  1.0000
  O   O49       1.0  0.06978  0.98969  0.41813  1.0000
  O   O50       1.0  0.93022  0.48969  0.58187  1.0000
  O   O51       1.0  0.08500  0.11916  0.44686  1.0000
  O   O52       1.0  0.91500  0.61916  0.55314  1.0000
  O   O53       1.0  0.94862  0.15234  0.33225  1.0000
  O   O54       1.0  0.05138  0.65234  0.66775  1.0000
  O   O55       1.0  0.93714  0.02330  0.30041  1.0000
  O   O56       1.0  0.06286  0.52330  0.69959  1.0000
  C   C25       1.0  0.04890  0.06180  0.40860  1.0000
  C   C26       1.0  0.95110  0.56180  0.59140  1.0000
  C   C27       1.0  0.97120  0.07950  0.34110  1.0000
  C   C28       1.0  0.02880  0.57950  0.65890  1.0000
  O   O57       1.0  0.07179  0.90507  0.28119  1.0000
  O   O58       1.0  0.92821  0.40507  0.71881  1.0000
  O   O59       1.0  0.93918  0.83007  0.27358  1.0000
  O   O60       1.0  0.06082  0.33007  0.72642  1.0000
  O   O61       1.0  0.95139  0.75254  0.17746  1.0000
  O   O62       1.0  0.04861  0.25254  0.82254  1.0000
  O   O63       1.0  0.08911  0.83108  0.18440  1.0000
  O   O64       1.0  0.91089  0.33108  0.81560  1.0000
  C   C29       1.0  0.97450  0.80730  0.22690  1.0000
  C   C30       1.0  0.02550  0.30730  0.77310  1.0000
  C   C31       1.0  0.05300  0.85060  0.22910  1.0000
  C   C32       1.0  0.94700  0.35060  0.77090  1.0000
  O   O65       1.0  0.06224  0.38913  0.57671  1.0000
  O   O66       1.0  0.93776  0.88913  0.42329  1.0000
  O   O67       1.0  0.92830  0.30467  0.57250  1.0000
  O   O68       1.0  0.07170  0.80467  0.42750  1.0000
  O   O69       1.0  0.07543  0.31397  0.47902  1.0000
  O   O70       1.0  0.92457  0.81397  0.52098  1.0000
  O   O71       1.0  0.94998  0.22685  0.47886  1.0000
  O   O72       1.0  0.05002  0.72685  0.52114  1.0000
  C   C33       1.0  0.04110  0.33330  0.52710  1.0000
  C   C34       1.0  0.95890  0.83330  0.47290  1.0000
  C   C35       1.0  0.96560  0.28430  0.52760  1.0000
  C   C36       1.0  0.03440  0.78430  0.47240  1.0000
  O   O73       1.0  0.93576  0.33468  0.33198  1.0000
  O   O74       1.0  0.06424  0.83468  0.66802  1.0000
  O   O75       1.0  0.07049  0.25768  0.32606  1.0000
  O   O76       1.0  0.92951  0.75768  0.67394  1.0000
  O   O77       1.0  0.94489  0.41230  0.23450  1.0000
  O   O78       1.0  0.05511  0.91230  0.76550  1.0000
  O   O79       1.0  0.06874  0.33212  0.22318  1.0000
  O   O80       1.0  0.93126  0.83212  0.77682  1.0000
  C   C37       1.0  0.96730  0.35490  0.28360  1.0000
  C   C38       1.0  0.03270  0.85490  0.71640  1.0000
  C   C39       1.0  0.04210  0.31030  0.27750  1.0000
  C   C40       1.0  0.95790  0.81030  0.72250  1.0000
  O   O81       1.0  0.07160  0.80308  0.91551  1.0000
  O   O82       1.0  0.92840  0.30308  0.08449  1.0000
  O   O83       1.0  0.94669  0.89367  0.92855  1.0000
  O   O84       1.0  0.05331  0.39367  0.07145  1.0000
  O   O85       1.0  0.06629  0.73280  0.02043  1.0000
  O   O86       1.0  0.93371  0.23280  0.97957  1.0000
  O   O87       1.0  0.94609  0.82056  0.03159  1.0000
  O   O88       1.0  0.05391  0.32056  0.96841  1.0000
  C   C41       1.0  0.04370  0.78660  0.96920  1.0000
  C   C42       1.0  0.95630  0.28660  0.03080  1.0000
  C   C43       1.0  0.97320  0.83860  0.97790  1.0000
  C   C44       1.0  0.02680  0.33860  0.02210  1.0000
  O   O89       1.0  0.07524  0.52179  0.19837  1.0000
  O   O90       1.0  0.92476  0.02179  0.80163  1.0000
  O   O91       1.0  0.93250  0.49707  0.09264  1.0000
  O   O92       1.0  0.06750  0.99707  0.90736  1.0000
  O   O93       1.0  0.07421  0.64888  0.16103  1.0000
  O   O94       1.0  0.92579  0.14888  0.83897  1.0000
  O   O95       1.0  0.92951  0.62388  0.05550  1.0000
  O   O96       1.0  0.07049  0.12388  0.94450  1.0000
  C   C45       1.0  0.04350  0.57960  0.15690  1.0000
  C   C46       1.0  0.95650  0.07960  0.84310  1.0000
  C   C47       1.0  0.96090  0.56610  0.09580  1.0000
  C   C48       1.0  0.03910  0.06610  0.90420  1.0000
