data_image0
_chemical_formula_structural       Cu4O32C16
_chemical_formula_sum              "Cu4 O32 C16"
_cell_length_a       11.8317
_cell_length_b       9.6534
_cell_length_c       17.3496
_cell_angle_alpha    90
_cell_angle_beta     108.042
_cell_angle_gamma    90

_space_group_name_H-M_alt    "P 1"
_space_group_IT_number       1

loop_
  _space_group_symop_operation_xyz
  'x, y, z'

loop_
  _atom_site_type_symbol
  _atom_site_label
  _atom_site_symmetry_multiplicity
  _atom_site_fract_x
  _atom_site_fract_y
  _atom_site_fract_z
  _atom_site_occupancy
  Cu  Cu1       1.0  0.61415  0.24969  0.99927  1.0000
  Cu  Cu2       1.0  0.38585  0.74969  0.50073  1.0000
  Cu  Cu3       1.0  0.38585  0.75031  0.00073  1.0000
  Cu  Cu4       1.0  0.61415  0.25031  0.49927  1.0000
  O   O1        1.0  0.72504  0.17781  0.94552  1.0000
  O   O2        1.0  0.27496  0.67781  0.55448  1.0000
  O   O3        1.0  0.27496  0.82219  0.05448  1.0000
  O   O4        1.0  0.72504  0.32219  0.44552  1.0000
  O   O5        1.0  0.75935  0.32874  0.07711  1.0000
  O   O6        1.0  0.24065  0.82874  0.42289  1.0000
  O   O7        1.0  0.24065  0.67126  0.92289  1.0000
  O   O8        1.0  0.75935  0.17126  0.57711  1.0000
  O   O9        1.0  0.91730  0.18350  0.95877  1.0000
  O   O10       1.0  0.08270  0.68350  0.54123  1.0000
  O   O11       1.0  0.08270  0.81650  0.04123  1.0000
  O   O12       1.0  0.91730  0.31650  0.45877  1.0000
  O   O13       1.0  0.95433  0.32580  0.09983  1.0000
  O   O14       1.0  0.04567  0.82580  0.40017  1.0000
  O   O15       1.0  0.04567  0.67420  0.90017  1.0000
  O   O16       1.0  0.95433  0.17420  0.59983  1.0000
  O   O17       1.0  0.51462  0.34633  0.05660  1.0000
  O   O18       1.0  0.48538  0.84633  0.44340  1.0000
  O   O19       1.0  0.48538  0.65367  0.94340  1.0000
  O   O20       1.0  0.51462  0.15367  0.55660  1.0000
  O   O21       1.0  0.43837  0.54917  0.07458  1.0000
  O   O22       1.0  0.56163  0.04917  0.42542  1.0000
  O   O23       1.0  0.56163  0.45083  0.92542  1.0000
  O   O24       1.0  0.43837  0.95083  0.57458  1.0000
  O   O25       1.0  0.38276  0.93929  0.91864  1.0000
  O   O26       1.0  0.61724  0.43929  0.58136  1.0000
  O   O27       1.0  0.61724  0.06071  0.08136  1.0000
  O   O28       1.0  0.38276  0.56071  0.41864  1.0000
  O   O29       1.0  0.48074  0.13777  0.93065  1.0000
  O   O30       1.0  0.51926  0.63777  0.56935  1.0000
  O   O31       1.0  0.51926  0.86223  0.06935  1.0000
  O   O32       1.0  0.48074  0.36223  0.43065  1.0000
  C   C1        1.0  0.83220  0.21190  0.98206  1.0000
  C   C2        1.0  0.16780  0.71190  0.51794  1.0000
  C   C3        1.0  0.16780  0.78810  0.01794  1.0000
  C   C4        1.0  0.83220  0.28810  0.48206  1.0000
  C   C5        1.0  0.85240  0.29590  0.06017  1.0000
  C   C6        1.0  0.14760  0.79590  0.43983  1.0000
  C   C7        1.0  0.14760  0.70410  0.93983  1.0000
  C   C8        1.0  0.85240  0.20410  0.56017  1.0000
  C   C9        1.0  0.48640  0.47170  0.03798  1.0000
  C   C10       1.0  0.51360  0.97170  0.46202  1.0000
  C   C11       1.0  0.51360  0.52830  0.96202  1.0000
  C   C12       1.0  0.48640  0.02830  0.53798  1.0000
  C   C13       1.0  0.46030  0.02060  0.95656  1.0000
  C   C14       1.0  0.53970  0.52060  0.54344  1.0000
  C   C15       1.0  0.53970  0.97940  0.04344  1.0000
  C   C16       1.0  0.46030  0.47940  0.45656  1.0000
