data_image0
_chemical_formula_structural       C8O16Cu2C8O16Cu2
_chemical_formula_sum              "C16 O32 Cu4"
_cell_length_a       9.314
_cell_length_b       11.722
_cell_length_c       17.142
_cell_angle_alpha    74.883
_cell_angle_beta     89.834
_cell_angle_gamma    80.986

_space_group_name_H-M_alt    "P 1"
_space_group_IT_number       1

loop_
  _space_group_symop_operation_xyz
  'x, y, z'

loop_
  _atom_site_type_symbol
  _atom_site_label
  _atom_site_symmetry_multiplicity
  _atom_site_fract_x
  _atom_site_fract_y
  _atom_site_fract_z
  _atom_site_occupancy
  C   C1        1.0  0.28910  0.42300  0.44910  1.0000
  C   C2        1.0  0.33870  0.52210  0.38780  1.0000
  C   C3        1.0  0.58230  0.31430  0.20920  1.0000
  C   C4        1.0  0.16120  0.20840  0.26740  1.0000
  C   C5        1.0  0.07590  0.33830  0.22540  1.0000
  C   C6        1.0  0.90980  0.11430  0.05310  1.0000
  C   C7        1.0  0.85430  0.01590  0.12690  1.0000
  C   C8        1.0  0.65360  0.24700  0.29150  1.0000
  O   O1        1.0  0.28320  0.32680  0.42410  1.0000
  O   O2        1.0  0.37890  0.50330  0.31880  1.0000
  O   O3        1.0  0.26340  0.43130  0.51560  1.0000
  O   O4        1.0  0.34590  0.62020  0.40390  1.0000
  O   O5        1.0  0.44680  0.36140  0.20850  1.0000
  O   O6        1.0  0.58260  0.24450  0.35040  1.0000
  O   O7        1.0  0.27620  0.19660  0.30580  1.0000
  O   O8        1.0  0.13570  0.42240  0.23620  1.0000
  O   O9        1.0  0.09280  0.12160  0.25870  1.0000
  O   O10       1.0  0.96740  0.35240  0.18140  1.0000
  O   O11       1.0  0.93900  0.20470  0.07190  1.0000
  O   O12       1.0  0.83240  0.05190  0.18810  1.0000
  O   O13       1.0  0.84270  0.92070  0.11290  1.0000
  O   O14       1.0  0.91770  0.09510  0.98680  1.0000
  O   O15       1.0  0.65310  0.32520  0.14430  1.0000
  O   O16       1.0  0.78690  0.20350  0.29080  1.0000
  Cu  Cu1       1.0  0.35031  0.34062  0.31430  1.0000
  Cu  Cu2       1.0  0.87659  0.20862  0.18307  1.0000
  C   C9        1.0  0.53300  0.79920  0.72090  1.0000
  C   C10       1.0  0.33190  0.03060  0.88810  1.0000
  C   C11       1.0  0.28380  0.93900  0.95360  1.0000
  C   C12       1.0  0.10630  0.70940  0.78480  1.0000
  C   C13       1.0  0.04150  0.84110  0.74230  1.0000
  C   C14       1.0  0.61710  0.72800  0.80360  1.0000
  C   C15       1.0  0.84700  0.52420  0.62630  1.0000
  C   C16       1.0  0.90000  0.63400  0.56220  1.0000
  O   O17       1.0  0.39940  0.84710  0.72140  1.0000
  O   O18       1.0  0.54130  0.72580  0.86210  1.0000
  O   O19       1.0  0.36540  0.00320  0.81940  1.0000
  O   O20       1.0  0.25740  0.84340  0.93360  1.0000
  O   O21       1.0  0.27850  0.95460  0.02230  1.0000
  O   O22       1.0  0.34960  0.13040  0.89570  1.0000
  O   O23       1.0  0.22870  0.69890  0.82700  1.0000
  O   O24       1.0  0.09710  0.92040  0.75100  1.0000
  O   O25       1.0  0.05070  0.62830  0.77330  1.0000
  O   O26       1.0  0.91970  0.85370  0.70250  1.0000
  O   O27       1.0  0.74890  0.68700  0.80190  1.0000
  O   O28       1.0  0.60630  0.80460  0.65690  1.0000
  O   O29       1.0  0.81350  0.54650  0.69200  1.0000
  O   O30       1.0  0.91700  0.71970  0.58750  1.0000
  O   O31       1.0  0.84870  0.43260  0.60550  1.0000
  O   O32       1.0  0.93000  0.62080  0.49220  1.0000
  Cu  Cu3       1.0  0.31375  0.84080  0.82658  1.0000
  Cu  Cu4       1.0  0.83935  0.70926  0.69471  1.0000
