data_image0
_chemical_formula_structural       Cu16O128C64
_chemical_formula_sum              "Cu16 O128 C64"
_cell_length_a       19.709
_cell_length_b       17.2032
_cell_length_c       23.3568
_cell_angle_alpha    90
_cell_angle_beta     90.187
_cell_angle_gamma    90

_space_group_name_H-M_alt    "P 1"
_space_group_IT_number       1

loop_
  _space_group_symop_operation_xyz
  'x, y, z'

loop_
  _atom_site_type_symbol
  _atom_site_label
  _atom_site_symmetry_multiplicity
  _atom_site_fract_x
  _atom_site_fract_y
  _atom_site_fract_z
  _atom_site_occupancy
  Cu  Cu1       1.0  0.12594  0.75437  0.44483  1.0000
  Cu  Cu2       1.0  0.87406  0.75437  0.05517  1.0000
  Cu  Cu3       1.0  0.62594  0.25438  0.44483  1.0000
  Cu  Cu4       1.0  0.37406  0.25438  0.05517  1.0000
  Cu  Cu5       1.0  0.87406  0.24563  0.55516  1.0000
  Cu  Cu6       1.0  0.12594  0.24563  0.94483  1.0000
  Cu  Cu7       1.0  0.37406  0.74563  0.55516  1.0000
  Cu  Cu8       1.0  0.62594  0.74563  0.94483  1.0000
  Cu  Cu9       1.0  0.87954  0.75116  0.54607  1.0000
  Cu  Cu10      1.0  0.12046  0.75116  0.95393  1.0000
  Cu  Cu11      1.0  0.37954  0.25116  0.54607  1.0000
  Cu  Cu12      1.0  0.62046  0.25116  0.95393  1.0000
  Cu  Cu13      1.0  0.12046  0.24884  0.45393  1.0000
  Cu  Cu14      1.0  0.87954  0.24884  0.04607  1.0000
  Cu  Cu15      1.0  0.62046  0.74884  0.45393  1.0000
  Cu  Cu16      1.0  0.37954  0.74884  0.04607  1.0000
  O   O1        1.0  0.02729  0.83419  0.44998  1.0000
  O   O2        1.0  0.97271  0.83419  0.05002  1.0000
  O   O3        1.0  0.52729  0.33419  0.44998  1.0000
  O   O4        1.0  0.47271  0.33419  0.05002  1.0000
  O   O5        1.0  0.97271  0.16581  0.55002  1.0000
  O   O6        1.0  0.02729  0.16581  0.94998  1.0000
  O   O7        1.0  0.47271  0.66581  0.55002  1.0000
  O   O8        1.0  0.52729  0.66581  0.94998  1.0000
  O   O9        1.0  0.06918  0.70209  0.50515  1.0000
  O   O10       1.0  0.93082  0.70209  0.99485  1.0000
  O   O11       1.0  0.56918  0.20209  0.50515  1.0000
  O   O12       1.0  0.43082  0.20209  0.99485  1.0000
  O   O13       1.0  0.93082  0.29791  0.49485  1.0000
  O   O14       1.0  0.06918  0.29791  0.00515  1.0000
  O   O15       1.0  0.43082  0.79791  0.49485  1.0000
  O   O16       1.0  0.56918  0.79791  0.00515  1.0000
  O   O17       1.0  0.92574  0.81996  0.49031  1.0000
  O   O18       1.0  0.07426  0.81996  0.00969  1.0000
  O   O19       1.0  0.42574  0.31996  0.49031  1.0000
  O   O20       1.0  0.57426  0.31996  0.00969  1.0000
  O   O21       1.0  0.07426  0.18004  0.50969  1.0000
  O   O22       1.0  0.92574  0.18004  0.99031  1.0000
  O   O23       1.0  0.57426  0.68004  0.50969  1.0000
  O   O24       1.0  0.42574  0.68004  0.99031  1.0000
  O   O25       1.0  0.96631  0.69239  0.54261  1.0000
  O   O26       1.0  0.03369  0.69239  0.95739  1.0000
  O   O27       1.0  0.46631  0.19239  0.54261  1.0000
  O   O28       1.0  0.53369  0.19239  0.95739  1.0000
  O   O29       1.0  0.03369  0.30761  0.45739  1.0000
  O   O30       1.0  0.96631  0.30761  0.04261  1.0000
  O   O31       1.0  0.53369  0.80761  0.45739  1.0000
  O   O32       1.0  0.46631  0.80761  0.04261  1.0000
  O   O33       1.0  0.08257  0.69016  0.38545  1.0000
  O   O34       1.0  0.91743  0.69016  0.11455  1.0000
  O   O35       1.0  0.58257  0.19016  0.38545  1.0000
  O   O36       1.0  0.41743  0.19016  0.11455  1.0000
  O   O37       1.0  0.91743  0.30984  0.61455  1.0000
  O   O38       1.0  0.08257  0.30984  0.88545  1.0000
  O   O39       1.0  0.41743  0.80984  0.61455  1.0000
  O   O40       1.0  0.58257  0.80984  0.88545  1.0000
  O   O41       1.0  0.16655  0.80806  0.37861  1.0000
  O   O42       1.0  0.83345  0.80806  0.12139  1.0000
  O   O43       1.0  0.66655  0.30806  0.37861  1.0000
  O   O44       1.0  0.33345  0.30806  0.12139  1.0000
  O   O45       1.0  0.83345  0.19194  0.62139  1.0000
  O   O46       1.0  0.16655  0.19194  0.87861  1.0000
  O   O47       1.0  0.33345  0.69194  0.62139  1.0000
  O   O48       1.0  0.66655  0.69194  0.87861  1.0000
  O   O49       1.0  0.08645  0.67172  0.29153  1.0000
  O   O50       1.0  0.91355  0.67172  0.20847  1.0000
  O   O51       1.0  0.58645  0.17172  0.29153  1.0000
  O   O52       1.0  0.41355  0.17172  0.20847  1.0000
  O   O53       1.0  0.91355  0.32828  0.70847  1.0000
  O   O54       1.0  0.08645  0.32828  0.79153  1.0000
  O   O55       1.0  0.41355  0.82828  0.70847  1.0000
  O   O56       1.0  0.58645  0.82828  0.79153  1.0000
  O   O57       1.0  0.17210  0.79606  0.28385  1.0000
  O   O58       1.0  0.82790  0.79606  0.21615  1.0000
  O   O59       1.0  0.67210  0.29606  0.28385  1.0000
  O   O60       1.0  0.32790  0.29606  0.21615  1.0000
  O   O61       1.0  0.82790  0.20394  0.71615  1.0000
  O   O62       1.0  0.17210  0.20394  0.78385  1.0000
  O   O63       1.0  0.32790  0.70394  0.71615  1.0000
  O   O64       1.0  0.67210  0.70394  0.78385  1.0000
  O   O65       1.0  0.28138  0.82565  0.54173  1.0000
  O   O66       1.0  0.71862  0.82565  0.95827  1.0000
  O   O67       1.0  0.78138  0.32565  0.54173  1.0000
  O   O68       1.0  0.21862  0.32565  0.95827  1.0000
  O   O69       1.0  0.71862  0.17435  0.45827  1.0000
  O   O70       1.0  0.28138  0.17435  0.04173  1.0000
  O   O71       1.0  0.21862  0.67435  0.45827  1.0000
  O   O72       1.0  0.78138  0.67435  0.04173  1.0000
  O   O73       1.0  0.18064  0.81397  0.50010  1.0000
  O   O74       1.0  0.81936  0.81397  0.99990  1.0000
  O   O75       1.0  0.68064  0.31397  0.50010  1.0000
  O   O76       1.0  0.31936  0.31397  0.99990  1.0000
  O   O77       1.0  0.81936  0.18603  0.49990  1.0000
  O   O78       1.0  0.18064  0.18603  0.00010  1.0000
  O   O79       1.0  0.31936  0.68603  0.49990  1.0000
  O   O80       1.0  0.68064  0.68603  0.00010  1.0000
  O   O81       1.0  0.84725  0.67774  0.60695  1.0000
  O   O82       1.0  0.15275  0.67774  0.89305  1.0000
  O   O83       1.0  0.34725  0.17774  0.60695  1.0000
  O   O84       1.0  0.65275  0.17774  0.89305  1.0000
  O   O85       1.0  0.15275  0.32226  0.39305  1.0000
  O   O86       1.0  0.84725  0.32226  0.10695  1.0000
  O   O87       1.0  0.65275  0.82226  0.39305  1.0000
  O   O88       1.0  0.34725  0.82226  0.10695  1.0000
  O   O89       1.0  0.90784  0.81536  0.62919  1.0000
  O   O90       1.0  0.09216  0.81536  0.87081  1.0000
  O   O91       1.0  0.40784  0.31536  0.62919  1.0000
  O   O92       1.0  0.59216  0.31536  0.87081  1.0000
  O   O93       1.0  0.09216  0.18464  0.37081  1.0000
  O   O94       1.0  0.90784  0.18464  0.12919  1.0000
  O   O95       1.0  0.59216  0.68464  0.37081  1.0000
  O   O96       1.0  0.40784  0.68464  0.12919  1.0000
  O   O97       1.0  0.84910  0.65065  0.69945  1.0000
  O   O98       1.0  0.15090  0.65065  0.80055  1.0000
  O   O99       1.0  0.34910  0.15065  0.69945  1.0000
  O   O100      1.0  0.65090  0.15065  0.80055  1.0000
  O   O101      1.0  0.15090  0.34935  0.30055  1.0000
  O   O102      1.0  0.84910  0.34935  0.19945  1.0000
  O   O103      1.0  0.65090  0.84935  0.30055  1.0000
  O   O104      1.0  0.34910  0.84935  0.19945  1.0000
  O   O105      1.0  0.89999  0.79160  0.72191  1.0000
  O   O106      1.0  0.10001  0.79160  0.77809  1.0000
  O   O107      1.0  0.39999  0.29160  0.72191  1.0000
  O   O108      1.0  0.60001  0.29160  0.77809  1.0000
  O   O109      1.0  0.10001  0.20840  0.27809  1.0000
  O   O110      1.0  0.89999  0.20840  0.22191  1.0000
  O   O111      1.0  0.60001  0.70840  0.27809  1.0000
  O   O112      1.0  0.39999  0.70840  0.22191  1.0000
  O   O113      1.0  0.70540  0.68698  0.45439  1.0000
  O   O114      1.0  0.29460  0.68698  0.04561  1.0000
  O   O115      1.0  0.20540  0.18698  0.45439  1.0000
  O   O116      1.0  0.79460  0.18698  0.04561  1.0000
  O   O117      1.0  0.29460  0.31302  0.54561  1.0000
  O   O118      1.0  0.70540  0.31302  0.95439  1.0000
  O   O119      1.0  0.79460  0.81302  0.54561  1.0000
  O   O120      1.0  0.20540  0.81302  0.95439  1.0000
  O   O121      1.0  0.81303  0.68332  0.48211  1.0000
  O   O122      1.0  0.18697  0.68332  0.01789  1.0000
  O   O123      1.0  0.31303  0.18332  0.48211  1.0000
  O   O124      1.0  0.68697  0.18332  0.01789  1.0000
  O   O125      1.0  0.18697  0.31668  0.51789  1.0000
  O   O126      1.0  0.81303  0.31668  0.98211  1.0000
  O   O127      1.0  0.68697  0.81668  0.51789  1.0000
  O   O128      1.0  0.31303  0.81668  0.98211  1.0000
  C   C1        1.0  0.98630  0.79997  0.48059  1.0000
  C   C2        1.0  0.01370  0.79997  0.01941  1.0000
  C   C3        1.0  0.48630  0.29997  0.48059  1.0000
  C   C4        1.0  0.51370  0.29997  0.01941  1.0000
  C   C5        1.0  0.01370  0.20003  0.51941  1.0000
  C   C6        1.0  0.98630  0.20003  0.98059  1.0000
  C   C7        1.0  0.51370  0.70003  0.51941  1.0000
  C   C8        1.0  0.48630  0.70003  0.98059  1.0000
  C   C9        1.0  0.01002  0.72496  0.51160  1.0000
  C   C10       1.0  0.98998  0.72496  0.98840  1.0000
  C   C11       1.0  0.51002  0.22496  0.51160  1.0000
  C   C12       1.0  0.48998  0.22496  0.98840  1.0000
  C   C13       1.0  0.98998  0.27504  0.48840  1.0000
  C   C14       1.0  0.01002  0.27504  0.01160  1.0000
  C   C15       1.0  0.48998  0.77504  0.48840  1.0000
  C   C16       1.0  0.51002  0.77504  0.01160  1.0000
  C   C17       1.0  0.10250  0.70652  0.33548  1.0000
  C   C18       1.0  0.89750  0.70652  0.16452  1.0000
  C   C19       1.0  0.60250  0.20652  0.33548  1.0000
  C   C20       1.0  0.39750  0.20652  0.16452  1.0000
  C   C21       1.0  0.89750  0.29348  0.66452  1.0000
  C   C22       1.0  0.10250  0.29348  0.83548  1.0000
  C   C23       1.0  0.39750  0.79348  0.66452  1.0000
  C   C24       1.0  0.60250  0.79348  0.83548  1.0000
  C   C25       1.0  0.15119  0.77650  0.33109  1.0000
  C   C26       1.0  0.84881  0.77650  0.16891  1.0000
  C   C27       1.0  0.65119  0.27650  0.33109  1.0000
  C   C28       1.0  0.34881  0.27650  0.16891  1.0000
  C   C29       1.0  0.84881  0.22350  0.66891  1.0000
  C   C30       1.0  0.15119  0.22350  0.83109  1.0000
  C   C31       1.0  0.34881  0.72350  0.66891  1.0000
  C   C32       1.0  0.65119  0.72350  0.83109  1.0000
  C   C33       1.0  0.23942  0.79055  0.51200  1.0000
  C   C34       1.0  0.76058  0.79055  0.98800  1.0000
  C   C35       1.0  0.73942  0.29055  0.51200  1.0000
  C   C36       1.0  0.26058  0.29055  0.98800  1.0000
  C   C37       1.0  0.76058  0.20945  0.48800  1.0000
  C   C38       1.0  0.23942  0.20945  0.01200  1.0000
  C   C39       1.0  0.26058  0.70945  0.48800  1.0000
  C   C40       1.0  0.73942  0.70945  0.01200  1.0000
  C   C41       1.0  0.89275  0.77464  0.67144  1.0000
  C   C42       1.0  0.10725  0.77464  0.82856  1.0000
  C   C43       1.0  0.39275  0.27464  0.67144  1.0000
  C   C44       1.0  0.60725  0.27464  0.82856  1.0000
  C   C45       1.0  0.10725  0.22536  0.32856  1.0000
  C   C46       1.0  0.89275  0.22536  0.17144  1.0000
  C   C47       1.0  0.60725  0.72536  0.32856  1.0000
  C   C48       1.0  0.39275  0.72536  0.17144  1.0000
  C   C49       1.0  0.86023  0.69421  0.65918  1.0000
  C   C50       1.0  0.13977  0.69421  0.84082  1.0000
  C   C51       1.0  0.36023  0.19421  0.65918  1.0000
  C   C52       1.0  0.63977  0.19421  0.84082  1.0000
  C   C53       1.0  0.13977  0.30579  0.34082  1.0000
  C   C54       1.0  0.86023  0.30579  0.15918  1.0000
  C   C55       1.0  0.63977  0.80579  0.34082  1.0000
  C   C56       1.0  0.36023  0.80579  0.15918  1.0000
  C   C57       1.0  0.75595  0.71252  0.48201  1.0000
  C   C58       1.0  0.24405  0.71252  0.01799  1.0000
  C   C59       1.0  0.25595  0.21252  0.48201  1.0000
  C   C60       1.0  0.74405  0.21252  0.01799  1.0000
  C   C61       1.0  0.24405  0.28748  0.51799  1.0000
  C   C62       1.0  0.75595  0.28748  0.98201  1.0000
  C   C63       1.0  0.74405  0.78748  0.51799  1.0000
  C   C64       1.0  0.25595  0.78748  0.98201  1.0000
