data_image0
_chemical_formula_structural       Cu16O128C64
_chemical_formula_sum              "Cu16 O128 C64"
_cell_length_a       19.709
_cell_length_b       17.2032
_cell_length_c       23.3568
_cell_angle_alpha    90
_cell_angle_beta     90.1868
_cell_angle_gamma    90

_space_group_name_H-M_alt    "P 1"
_space_group_IT_number       1

loop_
  _space_group_symop_operation_xyz
  'x, y, z'

loop_
  _atom_site_type_symbol
  _atom_site_label
  _atom_site_symmetry_multiplicity
  _atom_site_fract_x
  _atom_site_fract_y
  _atom_site_fract_z
  _atom_site_occupancy
  Cu  Cu1       1.0  0.12595  0.75440  0.44485  1.0000
  Cu  Cu2       1.0  0.87405  0.75440  0.05515  1.0000
  Cu  Cu3       1.0  0.62595  0.25440  0.44485  1.0000
  Cu  Cu4       1.0  0.37405  0.25440  0.05515  1.0000
  Cu  Cu5       1.0  0.87405  0.24560  0.55515  1.0000
  Cu  Cu6       1.0  0.12595  0.24560  0.94485  1.0000
  Cu  Cu7       1.0  0.37405  0.74560  0.55515  1.0000
  Cu  Cu8       1.0  0.62595  0.74560  0.94485  1.0000
  Cu  Cu9       1.0  0.87955  0.75113  0.54606  1.0000
  Cu  Cu10      1.0  0.12045  0.75113  0.95394  1.0000
  Cu  Cu11      1.0  0.37955  0.25113  0.54606  1.0000
  Cu  Cu12      1.0  0.62045  0.25113  0.95394  1.0000
  Cu  Cu13      1.0  0.12045  0.24887  0.45394  1.0000
  Cu  Cu14      1.0  0.87955  0.24887  0.04606  1.0000
  Cu  Cu15      1.0  0.62045  0.74887  0.45394  1.0000
  Cu  Cu16      1.0  0.37955  0.74887  0.04606  1.0000
  O   O1        1.0  0.02718  0.83418  0.44992  1.0000
  O   O2        1.0  0.97282  0.83418  0.05008  1.0000
  O   O3        1.0  0.52718  0.33418  0.44992  1.0000
  O   O4        1.0  0.47282  0.33418  0.05008  1.0000
  O   O5        1.0  0.97282  0.16582  0.55008  1.0000
  O   O6        1.0  0.02718  0.16582  0.94992  1.0000
  O   O7        1.0  0.47282  0.66582  0.55008  1.0000
  O   O8        1.0  0.52718  0.66582  0.94992  1.0000
  O   O9        1.0  0.06920  0.70207  0.50526  1.0000
  O   O10       1.0  0.93080  0.70207  0.99474  1.0000
  O   O11       1.0  0.56920  0.20207  0.50526  1.0000
  O   O12       1.0  0.43080  0.20207  0.99474  1.0000
  O   O13       1.0  0.93080  0.29793  0.49474  1.0000
  O   O14       1.0  0.06920  0.29793  0.00526  1.0000
  O   O15       1.0  0.43080  0.79793  0.49474  1.0000
  O   O16       1.0  0.56920  0.79793  0.00526  1.0000
  O   O17       1.0  0.92573  0.81982  0.49021  1.0000
  O   O18       1.0  0.07427  0.81982  0.00979  1.0000
  O   O19       1.0  0.42573  0.31982  0.49021  1.0000
  O   O20       1.0  0.57427  0.31982  0.00979  1.0000
  O   O21       1.0  0.07427  0.18018  0.50979  1.0000
  O   O22       1.0  0.92573  0.18018  0.99021  1.0000
  O   O23       1.0  0.57427  0.68018  0.50979  1.0000
  O   O24       1.0  0.42573  0.68018  0.99021  1.0000
  O   O25       1.0  0.96641  0.69234  0.54273  1.0000
  O   O26       1.0  0.03359  0.69234  0.95727  1.0000
  O   O27       1.0  0.46641  0.19234  0.54273  1.0000
  O   O28       1.0  0.53359  0.19234  0.95727  1.0000
  O   O29       1.0  0.03359  0.30766  0.45727  1.0000
  O   O30       1.0  0.96641  0.30766  0.04273  1.0000
  O   O31       1.0  0.53359  0.80766  0.45727  1.0000
  O   O32       1.0  0.46641  0.80766  0.04273  1.0000
  O   O33       1.0  0.08264  0.69000  0.38541  1.0000
  O   O34       1.0  0.91736  0.69000  0.11459  1.0000
  O   O35       1.0  0.58264  0.19000  0.38541  1.0000
  O   O36       1.0  0.41736  0.19000  0.11459  1.0000
  O   O37       1.0  0.91736  0.31000  0.61459  1.0000
  O   O38       1.0  0.08264  0.31000  0.88541  1.0000
  O   O39       1.0  0.41736  0.81000  0.61459  1.0000
  O   O40       1.0  0.58264  0.81000  0.88541  1.0000
  O   O41       1.0  0.16647  0.80809  0.37864  1.0000
  O   O42       1.0  0.83353  0.80809  0.12136  1.0000
  O   O43       1.0  0.66647  0.30809  0.37864  1.0000
  O   O44       1.0  0.33353  0.30809  0.12136  1.0000
  O   O45       1.0  0.83353  0.19191  0.62136  1.0000
  O   O46       1.0  0.16647  0.19191  0.87864  1.0000
  O   O47       1.0  0.33353  0.69191  0.62136  1.0000
  O   O48       1.0  0.66647  0.69191  0.87864  1.0000
  O   O49       1.0  0.08635  0.67167  0.29152  1.0000
  O   O50       1.0  0.91365  0.67167  0.20848  1.0000
  O   O51       1.0  0.58635  0.17167  0.29152  1.0000
  O   O52       1.0  0.41365  0.17167  0.20848  1.0000
  O   O53       1.0  0.91365  0.32833  0.70848  1.0000
  O   O54       1.0  0.08635  0.32833  0.79152  1.0000
  O   O55       1.0  0.41365  0.82833  0.70848  1.0000
  O   O56       1.0  0.58635  0.82833  0.79152  1.0000
  O   O57       1.0  0.17201  0.79579  0.28378  1.0000
  O   O58       1.0  0.82799  0.79579  0.21622  1.0000
  O   O59       1.0  0.67201  0.29579  0.28378  1.0000
  O   O60       1.0  0.32799  0.29579  0.21622  1.0000
  O   O61       1.0  0.82799  0.20421  0.71622  1.0000
  O   O62       1.0  0.17201  0.20421  0.78378  1.0000
  O   O63       1.0  0.32799  0.70421  0.71622  1.0000
  O   O64       1.0  0.67201  0.70421  0.78378  1.0000
  O   O65       1.0  0.28138  0.82572  0.54173  1.0000
  O   O66       1.0  0.71862  0.82572  0.95827  1.0000
  O   O67       1.0  0.78138  0.32572  0.54173  1.0000
  O   O68       1.0  0.21862  0.32572  0.95827  1.0000
  O   O69       1.0  0.71862  0.17428  0.45827  1.0000
  O   O70       1.0  0.28138  0.17428  0.04173  1.0000
  O   O71       1.0  0.21862  0.67428  0.45827  1.0000
  O   O72       1.0  0.78138  0.67428  0.04173  1.0000
  O   O73       1.0  0.18067  0.81406  0.50000  1.0000
  O   O74       1.0  0.81933  0.81406  0.00000  1.0000
  O   O75       1.0  0.68067  0.31406  0.50000  1.0000
  O   O76       1.0  0.31933  0.31406  0.00000  1.0000
  O   O77       1.0  0.81933  0.18594  0.50000  1.0000
  O   O78       1.0  0.18067  0.18594  0.00000  1.0000
  O   O79       1.0  0.31933  0.68594  0.50000  1.0000
  O   O80       1.0  0.68067  0.68594  0.00000  1.0000
  O   O81       1.0  0.84725  0.67784  0.60695  1.0000
  O   O82       1.0  0.15275  0.67784  0.89305  1.0000
  O   O83       1.0  0.34725  0.17784  0.60695  1.0000
  O   O84       1.0  0.65275  0.17784  0.89305  1.0000
  O   O85       1.0  0.15275  0.32216  0.39305  1.0000
  O   O86       1.0  0.84725  0.32216  0.10695  1.0000
  O   O87       1.0  0.65275  0.82216  0.39305  1.0000
  O   O88       1.0  0.34725  0.82216  0.10695  1.0000
  O   O89       1.0  0.90779  0.81542  0.62927  1.0000
  O   O90       1.0  0.09221  0.81542  0.87073  1.0000
  O   O91       1.0  0.40779  0.31542  0.62927  1.0000
  O   O92       1.0  0.59221  0.31542  0.87073  1.0000
  O   O93       1.0  0.09221  0.18458  0.37073  1.0000
  O   O94       1.0  0.90779  0.18458  0.12927  1.0000
  O   O95       1.0  0.59221  0.68458  0.37073  1.0000
  O   O96       1.0  0.40779  0.68458  0.12927  1.0000
  O   O97       1.0  0.84919  0.65032  0.69931  1.0000
  O   O98       1.0  0.15081  0.65032  0.80069  1.0000
  O   O99       1.0  0.34919  0.15032  0.69931  1.0000
  O   O100      1.0  0.65081  0.15032  0.80069  1.0000
  O   O101      1.0  0.15081  0.34968  0.30069  1.0000
  O   O102      1.0  0.84919  0.34968  0.19931  1.0000
  O   O103      1.0  0.65081  0.84968  0.30069  1.0000
  O   O104      1.0  0.34919  0.84968  0.19931  1.0000
  O   O105      1.0  0.89994  0.79172  0.72199  1.0000
  O   O106      1.0  0.10006  0.79172  0.77801  1.0000
  O   O107      1.0  0.39994  0.29172  0.72199  1.0000
  O   O108      1.0  0.60006  0.29172  0.77801  1.0000
  O   O109      1.0  0.10006  0.20828  0.27801  1.0000
  O   O110      1.0  0.89994  0.20828  0.22199  1.0000
  O   O111      1.0  0.60006  0.70828  0.27801  1.0000
  O   O112      1.0  0.39994  0.70828  0.22199  1.0000
  O   O113      1.0  0.70536  0.68700  0.45435  1.0000
  O   O114      1.0  0.29464  0.68700  0.04565  1.0000
  O   O115      1.0  0.20536  0.18700  0.45435  1.0000
  O   O116      1.0  0.79464  0.18700  0.04565  1.0000
  O   O117      1.0  0.29464  0.31300  0.54565  1.0000
  O   O118      1.0  0.70536  0.31300  0.95435  1.0000
  O   O119      1.0  0.79464  0.81300  0.54565  1.0000
  O   O120      1.0  0.20536  0.81300  0.95435  1.0000
  O   O121      1.0  0.81303  0.68316  0.48222  1.0000
  O   O122      1.0  0.18697  0.68316  0.01778  1.0000
  O   O123      1.0  0.31303  0.18316  0.48222  1.0000
  O   O124      1.0  0.68697  0.18316  0.01778  1.0000
  O   O125      1.0  0.18697  0.31684  0.51778  1.0000
  O   O126      1.0  0.81303  0.31684  0.98222  1.0000
  O   O127      1.0  0.68697  0.81684  0.51778  1.0000
  O   O128      1.0  0.31303  0.81684  0.98222  1.0000
  C   C1        1.0  0.98625  0.80006  0.48044  1.0000
  C   C2        1.0  0.01375  0.80006  0.01956  1.0000
  C   C3        1.0  0.48625  0.30006  0.48044  1.0000
  C   C4        1.0  0.51375  0.30006  0.01956  1.0000
  C   C5        1.0  0.01375  0.19994  0.51956  1.0000
  C   C6        1.0  0.98625  0.19994  0.98044  1.0000
  C   C7        1.0  0.51375  0.69994  0.51956  1.0000
  C   C8        1.0  0.48625  0.69994  0.98044  1.0000
  C   C9        1.0  0.01014  0.72491  0.51173  1.0000
  C   C10       1.0  0.98986  0.72491  0.98827  1.0000
  C   C11       1.0  0.51014  0.22491  0.51173  1.0000
  C   C12       1.0  0.48986  0.22491  0.98827  1.0000
  C   C13       1.0  0.98986  0.27509  0.48827  1.0000
  C   C14       1.0  0.01014  0.27509  0.01173  1.0000
  C   C15       1.0  0.48986  0.77509  0.48827  1.0000
  C   C16       1.0  0.51014  0.77509  0.01173  1.0000
  C   C17       1.0  0.10267  0.70645  0.33539  1.0000
  C   C18       1.0  0.89733  0.70645  0.16461  1.0000
  C   C19       1.0  0.60267  0.20645  0.33539  1.0000
  C   C20       1.0  0.39733  0.20645  0.16461  1.0000
  C   C21       1.0  0.89733  0.29355  0.66461  1.0000
  C   C22       1.0  0.10267  0.29355  0.83539  1.0000
  C   C23       1.0  0.39733  0.79355  0.66461  1.0000
  C   C24       1.0  0.60267  0.79355  0.83539  1.0000
  C   C25       1.0  0.15106  0.77630  0.33124  1.0000
  C   C26       1.0  0.84894  0.77630  0.16876  1.0000
  C   C27       1.0  0.65106  0.27630  0.33124  1.0000
  C   C28       1.0  0.34894  0.27630  0.16876  1.0000
  C   C29       1.0  0.84894  0.22370  0.66876  1.0000
  C   C30       1.0  0.15106  0.22370  0.83124  1.0000
  C   C31       1.0  0.34894  0.72370  0.66876  1.0000
  C   C32       1.0  0.65106  0.72370  0.83124  1.0000
  C   C33       1.0  0.23935  0.79057  0.51189  1.0000
  C   C34       1.0  0.76065  0.79057  0.98811  1.0000
  C   C35       1.0  0.73935  0.29057  0.51189  1.0000
  C   C36       1.0  0.26065  0.29057  0.98811  1.0000
  C   C37       1.0  0.76065  0.20943  0.48811  1.0000
  C   C38       1.0  0.23935  0.20943  0.01189  1.0000
  C   C39       1.0  0.26065  0.70943  0.48811  1.0000
  C   C40       1.0  0.73935  0.70943  0.01189  1.0000
  C   C41       1.0  0.89271  0.77455  0.67151  1.0000
  C   C42       1.0  0.10729  0.77455  0.82849  1.0000
  C   C43       1.0  0.39271  0.27455  0.67151  1.0000
  C   C44       1.0  0.60729  0.27455  0.82849  1.0000
  C   C45       1.0  0.10729  0.22545  0.32849  1.0000
  C   C46       1.0  0.89271  0.22545  0.17151  1.0000
  C   C47       1.0  0.60729  0.72545  0.32849  1.0000
  C   C48       1.0  0.39271  0.72545  0.17151  1.0000
  C   C49       1.0  0.86019  0.69417  0.65896  1.0000
  C   C50       1.0  0.13981  0.69417  0.84104  1.0000
  C   C51       1.0  0.36019  0.19417  0.65896  1.0000
  C   C52       1.0  0.63981  0.19417  0.84104  1.0000
  C   C53       1.0  0.13981  0.30583  0.34104  1.0000
  C   C54       1.0  0.86019  0.30583  0.15896  1.0000
  C   C55       1.0  0.63981  0.80583  0.34104  1.0000
  C   C56       1.0  0.36019  0.80583  0.15896  1.0000
  C   C57       1.0  0.75607  0.71263  0.48208  1.0000
  C   C58       1.0  0.24393  0.71263  0.01792  1.0000
  C   C59       1.0  0.25607  0.21263  0.48208  1.0000
  C   C60       1.0  0.74393  0.21263  0.01792  1.0000
  C   C61       1.0  0.24393  0.28737  0.51792  1.0000
  C   C62       1.0  0.75607  0.28737  0.98208  1.0000
  C   C63       1.0  0.74393  0.78737  0.51792  1.0000
  C   C64       1.0  0.25607  0.78737  0.98208  1.0000
