data_image0
_chemical_formula_structural       Cu2O16C8
_chemical_formula_sum              "Cu2 O16 C8"
_cell_length_a       9.1043
_cell_length_b       9.4286
_cell_length_c       11.6225
_cell_angle_alpha    94.154
_cell_angle_beta     112.273
_cell_angle_gamma    95.734

_space_group_name_H-M_alt    "P 1"
_space_group_IT_number       1

loop_
  _space_group_symop_operation_xyz
  'x, y, z'

loop_
  _atom_site_type_symbol
  _atom_site_label
  _atom_site_symmetry_multiplicity
  _atom_site_fract_x
  _atom_site_fract_y
  _atom_site_fract_z
  _atom_site_occupancy
  Cu  Cu1       1.0  0.50037  0.73938  0.87259  1.0000
  Cu  Cu2       1.0  0.49963  0.26062  0.12741  1.0000
  O   O1        1.0  0.33961  0.77733  0.71096  1.0000
  O   O2        1.0  0.66039  0.22267  0.28904  1.0000
  O   O3        1.0  0.61267  0.67513  0.76892  1.0000
  O   O4        1.0  0.38733  0.32487  0.23108  1.0000
  O   O5        1.0  0.29890  0.75410  0.50942  1.0000
  O   O6        1.0  0.70110  0.24590  0.49058  1.0000
  O   O7        1.0  0.59870  0.67730  0.57388  1.0000
  O   O8        1.0  0.40130  0.32270  0.42612  1.0000
  O   O9        1.0  0.38230  0.83066  0.96479  1.0000
  O   O10       1.0  0.61770  0.16934  0.03521  1.0000
  O   O11       1.0  0.35780  0.03487  0.06068  1.0000
  O   O12       1.0  0.64220  0.96513  0.93932  1.0000
  O   O13       1.0  0.63775  0.65287  0.01942  1.0000
  O   O14       1.0  0.36225  0.34713  0.98058  1.0000
  O   O15       1.0  0.65852  0.47346  0.13509  1.0000
  O   O16       1.0  0.34148  0.52654  0.86491  1.0000
  C   C1        1.0  0.37900  0.74590  0.61960  1.0000
  C   C2        1.0  0.62100  0.25410  0.38040  1.0000
  C   C3        1.0  0.54530  0.69470  0.65540  1.0000
  C   C4        1.0  0.45470  0.30530  0.34460  1.0000
  C   C5        1.0  0.42450  0.96230  0.00750  1.0000
  C   C6        1.0  0.57550  0.03770  0.99250  1.0000
  C   C7        1.0  0.58540  0.53530  0.04510  1.0000
  C   C8        1.0  0.41460  0.46470  0.95490  1.0000
