data_image0
_chemical_formula_structural       Cu16O128C64
_chemical_formula_sum              "Cu16 O128 C64"
_cell_length_a       19.5856
_cell_length_b       17.0392
_cell_length_c       23.1683
_cell_angle_alpha    90
_cell_angle_beta     90.4144
_cell_angle_gamma    90

_space_group_name_H-M_alt    "P 1"
_space_group_IT_number       1

loop_
  _space_group_symop_operation_xyz
  'x, y, z'

loop_
  _atom_site_type_symbol
  _atom_site_label
  _atom_site_symmetry_multiplicity
  _atom_site_fract_x
  _atom_site_fract_y
  _atom_site_fract_z
  _atom_site_occupancy
  Cu  Cu1       1.0  0.12618  0.75535  0.44308  1.0000
  Cu  Cu2       1.0  0.87382  0.75535  0.05692  1.0000
  Cu  Cu3       1.0  0.62618  0.25535  0.44308  1.0000
  Cu  Cu4       1.0  0.37382  0.25535  0.05692  1.0000
  Cu  Cu5       1.0  0.87382  0.24465  0.55692  1.0000
  Cu  Cu6       1.0  0.12618  0.24465  0.94308  1.0000
  Cu  Cu7       1.0  0.37382  0.74465  0.55692  1.0000
  Cu  Cu8       1.0  0.62618  0.74465  0.94308  1.0000
  Cu  Cu9       1.0  0.88048  0.75068  0.54598  1.0000
  Cu  Cu10      1.0  0.11952  0.75068  0.95402  1.0000
  Cu  Cu11      1.0  0.38048  0.25068  0.54598  1.0000
  Cu  Cu12      1.0  0.61952  0.25068  0.95402  1.0000
  Cu  Cu13      1.0  0.11952  0.24932  0.45402  1.0000
  Cu  Cu14      1.0  0.88048  0.24932  0.04598  1.0000
  Cu  Cu15      1.0  0.61952  0.74932  0.45402  1.0000
  Cu  Cu16      1.0  0.38048  0.74932  0.04598  1.0000
  O   O1        1.0  0.02894  0.83600  0.45001  1.0000
  O   O2        1.0  0.97106  0.83600  0.04999  1.0000
  O   O3        1.0  0.52894  0.33600  0.45001  1.0000
  O   O4        1.0  0.47106  0.33600  0.04999  1.0000
  O   O5        1.0  0.97106  0.16400  0.54999  1.0000
  O   O6        1.0  0.02894  0.16400  0.95001  1.0000
  O   O7        1.0  0.47106  0.66400  0.54999  1.0000
  O   O8        1.0  0.52894  0.66400  0.95001  1.0000
  O   O9        1.0  0.07081  0.70094  0.50382  1.0000
  O   O10       1.0  0.92919  0.70094  0.99618  1.0000
  O   O11       1.0  0.57081  0.20094  0.50382  1.0000
  O   O12       1.0  0.42919  0.20094  0.99618  1.0000
  O   O13       1.0  0.92919  0.29906  0.49618  1.0000
  O   O14       1.0  0.07081  0.29906  0.00382  1.0000
  O   O15       1.0  0.42919  0.79906  0.49618  1.0000
  O   O16       1.0  0.57081  0.79906  0.00382  1.0000
  O   O17       1.0  0.92615  0.82102  0.49048  1.0000
  O   O18       1.0  0.07385  0.82102  0.00952  1.0000
  O   O19       1.0  0.42615  0.32102  0.49048  1.0000
  O   O20       1.0  0.57385  0.32102  0.00952  1.0000
  O   O21       1.0  0.07385  0.17898  0.50952  1.0000
  O   O22       1.0  0.92615  0.17898  0.99048  1.0000
  O   O23       1.0  0.57385  0.67898  0.50952  1.0000
  O   O24       1.0  0.42615  0.67898  0.99048  1.0000
  O   O25       1.0  0.96739  0.69153  0.54261  1.0000
  O   O26       1.0  0.03261  0.69153  0.95739  1.0000
  O   O27       1.0  0.46739  0.19153  0.54261  1.0000
  O   O28       1.0  0.53261  0.19153  0.95739  1.0000
  O   O29       1.0  0.03261  0.30847  0.45739  1.0000
  O   O30       1.0  0.96739  0.30847  0.04261  1.0000
  O   O31       1.0  0.53261  0.80847  0.45739  1.0000
  O   O32       1.0  0.46739  0.80847  0.04261  1.0000
  O   O33       1.0  0.08109  0.69074  0.38332  1.0000
  O   O34       1.0  0.91891  0.69074  0.11668  1.0000
  O   O35       1.0  0.58109  0.19074  0.38332  1.0000
  O   O36       1.0  0.41891  0.19074  0.11668  1.0000
  O   O37       1.0  0.91891  0.30926  0.61668  1.0000
  O   O38       1.0  0.08109  0.30926  0.88332  1.0000
  O   O39       1.0  0.41891  0.80926  0.61668  1.0000
  O   O40       1.0  0.58109  0.80926  0.88332  1.0000
  O   O41       1.0  0.16733  0.80884  0.37643  1.0000
  O   O42       1.0  0.83267  0.80884  0.12357  1.0000
  O   O43       1.0  0.66733  0.30884  0.37643  1.0000
  O   O44       1.0  0.33267  0.30884  0.12357  1.0000
  O   O45       1.0  0.83267  0.19116  0.62357  1.0000
  O   O46       1.0  0.16733  0.19116  0.87643  1.0000
  O   O47       1.0  0.33267  0.69116  0.62357  1.0000
  O   O48       1.0  0.66733  0.69116  0.87643  1.0000
  O   O49       1.0  0.08600  0.66969  0.28838  1.0000
  O   O50       1.0  0.91400  0.66969  0.21162  1.0000
  O   O51       1.0  0.58600  0.16969  0.28838  1.0000
  O   O52       1.0  0.41400  0.16969  0.21162  1.0000
  O   O53       1.0  0.91400  0.33031  0.71162  1.0000
  O   O54       1.0  0.08600  0.33031  0.78838  1.0000
  O   O55       1.0  0.41400  0.83031  0.71162  1.0000
  O   O56       1.0  0.58600  0.83031  0.78838  1.0000
  O   O57       1.0  0.17464  0.79369  0.28067  1.0000
  O   O58       1.0  0.82536  0.79369  0.21933  1.0000
  O   O59       1.0  0.67464  0.29369  0.28067  1.0000
  O   O60       1.0  0.32536  0.29369  0.21933  1.0000
  O   O61       1.0  0.82536  0.20631  0.71933  1.0000
  O   O62       1.0  0.17464  0.20631  0.78067  1.0000
  O   O63       1.0  0.32536  0.70631  0.71933  1.0000
  O   O64       1.0  0.67464  0.70631  0.78067  1.0000
  O   O65       1.0  0.28229  0.82655  0.54205  1.0000
  O   O66       1.0  0.71771  0.82655  0.95795  1.0000
  O   O67       1.0  0.78229  0.32655  0.54205  1.0000
  O   O68       1.0  0.21771  0.32655  0.95795  1.0000
  O   O69       1.0  0.71771  0.17345  0.45795  1.0000
  O   O70       1.0  0.28229  0.17345  0.04205  1.0000
  O   O71       1.0  0.21771  0.67345  0.45795  1.0000
  O   O72       1.0  0.78229  0.67345  0.04205  1.0000
  O   O73       1.0  0.18099  0.81640  0.49861  1.0000
  O   O74       1.0  0.81901  0.81640  0.00139  1.0000
  O   O75       1.0  0.68099  0.31640  0.49861  1.0000
  O   O76       1.0  0.31901  0.31640  0.00139  1.0000
  O   O77       1.0  0.81901  0.18360  0.50139  1.0000
  O   O78       1.0  0.18099  0.18360  0.99861  1.0000
  O   O79       1.0  0.31901  0.68360  0.50139  1.0000
  O   O80       1.0  0.68099  0.68360  0.99861  1.0000
  O   O81       1.0  0.84804  0.67622  0.60626  1.0000
  O   O82       1.0  0.15196  0.67622  0.89374  1.0000
  O   O83       1.0  0.34804  0.17622  0.60626  1.0000
  O   O84       1.0  0.65196  0.17622  0.89374  1.0000
  O   O85       1.0  0.15196  0.32378  0.39374  1.0000
  O   O86       1.0  0.84804  0.32378  0.10626  1.0000
  O   O87       1.0  0.65196  0.82378  0.39374  1.0000
  O   O88       1.0  0.34804  0.82378  0.10626  1.0000
  O   O89       1.0  0.90796  0.81495  0.63058  1.0000
  O   O90       1.0  0.09204  0.81495  0.86942  1.0000
  O   O91       1.0  0.40796  0.31495  0.63058  1.0000
  O   O92       1.0  0.59204  0.31495  0.86942  1.0000
  O   O93       1.0  0.09204  0.18505  0.36942  1.0000
  O   O94       1.0  0.90796  0.18505  0.13058  1.0000
  O   O95       1.0  0.59204  0.68505  0.36942  1.0000
  O   O96       1.0  0.40796  0.68505  0.13058  1.0000
  O   O97       1.0  0.85014  0.64590  0.69929  1.0000
  O   O98       1.0  0.14986  0.64590  0.80071  1.0000
  O   O99       1.0  0.35014  0.14590  0.69929  1.0000
  O   O100      1.0  0.64986  0.14590  0.80071  1.0000
  O   O101      1.0  0.14986  0.35410  0.30071  1.0000
  O   O102      1.0  0.85014  0.35410  0.19929  1.0000
  O   O103      1.0  0.64986  0.85410  0.30071  1.0000
  O   O104      1.0  0.35014  0.85410  0.19929  1.0000
  O   O105      1.0  0.89830  0.79004  0.72447  1.0000
  O   O106      1.0  0.10170  0.79004  0.77553  1.0000
  O   O107      1.0  0.39830  0.29004  0.72447  1.0000
  O   O108      1.0  0.60170  0.29004  0.77553  1.0000
  O   O109      1.0  0.10170  0.20996  0.27553  1.0000
  O   O110      1.0  0.89830  0.20996  0.22447  1.0000
  O   O111      1.0  0.60170  0.70996  0.27553  1.0000
  O   O112      1.0  0.39830  0.70996  0.22447  1.0000
  O   O113      1.0  0.70438  0.68645  0.45393  1.0000
  O   O114      1.0  0.29562  0.68645  0.04607  1.0000
  O   O115      1.0  0.20438  0.18645  0.45393  1.0000
  O   O116      1.0  0.79562  0.18645  0.04607  1.0000
  O   O117      1.0  0.29562  0.31355  0.54607  1.0000
  O   O118      1.0  0.70438  0.31355  0.95393  1.0000
  O   O119      1.0  0.79562  0.81355  0.54607  1.0000
  O   O120      1.0  0.20438  0.81355  0.95393  1.0000
  O   O121      1.0  0.81377  0.68326  0.48082  1.0000
  O   O122      1.0  0.18623  0.68326  0.01918  1.0000
  O   O123      1.0  0.31377  0.18326  0.48082  1.0000
  O   O124      1.0  0.68623  0.18326  0.01918  1.0000
  O   O125      1.0  0.18623  0.31674  0.51918  1.0000
  O   O126      1.0  0.81377  0.31674  0.98082  1.0000
  O   O127      1.0  0.68623  0.81674  0.51918  1.0000
  O   O128      1.0  0.31377  0.81674  0.98082  1.0000
  C   C1        1.0  0.98739  0.80097  0.48041  1.0000
  C   C2        1.0  0.01261  0.80097  0.01959  1.0000
  C   C3        1.0  0.48739  0.30097  0.48041  1.0000
  C   C4        1.0  0.51261  0.30097  0.01959  1.0000
  C   C5        1.0  0.01261  0.19903  0.51959  1.0000
  C   C6        1.0  0.98739  0.19903  0.98041  1.0000
  C   C7        1.0  0.51261  0.69903  0.51959  1.0000
  C   C8        1.0  0.48739  0.69903  0.98041  1.0000
  C   C9        1.0  0.01104  0.72422  0.51110  1.0000
  C   C10       1.0  0.98896  0.72422  0.98890  1.0000
  C   C11       1.0  0.51104  0.22422  0.51110  1.0000
  C   C12       1.0  0.48896  0.22422  0.98890  1.0000
  C   C13       1.0  0.98896  0.27578  0.48890  1.0000
  C   C14       1.0  0.01104  0.27578  0.01110  1.0000
  C   C15       1.0  0.48896  0.77578  0.48890  1.0000
  C   C16       1.0  0.51104  0.77578  0.01110  1.0000
  C   C17       1.0  0.10234  0.70576  0.33306  1.0000
  C   C18       1.0  0.89766  0.70576  0.16694  1.0000
  C   C19       1.0  0.60234  0.20576  0.33306  1.0000
  C   C20       1.0  0.39766  0.20576  0.16694  1.0000
  C   C21       1.0  0.89766  0.29424  0.66694  1.0000
  C   C22       1.0  0.10234  0.29424  0.83306  1.0000
  C   C23       1.0  0.39766  0.79424  0.66694  1.0000
  C   C24       1.0  0.60234  0.79424  0.83306  1.0000
  C   C25       1.0  0.15268  0.77586  0.32850  1.0000
  C   C26       1.0  0.84732  0.77586  0.17150  1.0000
  C   C27       1.0  0.65268  0.27586  0.32850  1.0000
  C   C28       1.0  0.34732  0.27586  0.17150  1.0000
  C   C29       1.0  0.84732  0.22414  0.67150  1.0000
  C   C30       1.0  0.15268  0.22414  0.82850  1.0000
  C   C31       1.0  0.34732  0.72414  0.67150  1.0000
  C   C32       1.0  0.65268  0.72414  0.82850  1.0000
  C   C33       1.0  0.23976  0.79136  0.51173  1.0000
  C   C34       1.0  0.76024  0.79136  0.98827  1.0000
  C   C35       1.0  0.73976  0.29136  0.51173  1.0000
  C   C36       1.0  0.26024  0.29136  0.98827  1.0000
  C   C37       1.0  0.76024  0.20864  0.48827  1.0000
  C   C38       1.0  0.23976  0.20864  0.01173  1.0000
  C   C39       1.0  0.26024  0.70864  0.48827  1.0000
  C   C40       1.0  0.73976  0.70864  0.01173  1.0000
  C   C41       1.0  0.89207  0.77330  0.67294  1.0000
  C   C42       1.0  0.10793  0.77330  0.82706  1.0000
  C   C43       1.0  0.39207  0.27330  0.67294  1.0000
  C   C44       1.0  0.60793  0.27330  0.82706  1.0000
  C   C45       1.0  0.10793  0.22670  0.32706  1.0000
  C   C46       1.0  0.89207  0.22670  0.17294  1.0000
  C   C47       1.0  0.60793  0.72670  0.32706  1.0000
  C   C48       1.0  0.39207  0.72670  0.17294  1.0000
  C   C49       1.0  0.86080  0.69125  0.65917  1.0000
  C   C50       1.0  0.13920  0.69125  0.84083  1.0000
  C   C51       1.0  0.36080  0.19125  0.65917  1.0000
  C   C52       1.0  0.63920  0.19125  0.84083  1.0000
  C   C53       1.0  0.13920  0.30875  0.34083  1.0000
  C   C54       1.0  0.86080  0.30875  0.15917  1.0000
  C   C55       1.0  0.63920  0.80875  0.34083  1.0000
  C   C56       1.0  0.36080  0.80875  0.15917  1.0000
  C   C57       1.0  0.75583  0.71249  0.48130  1.0000
  C   C58       1.0  0.24417  0.71249  0.01870  1.0000
  C   C59       1.0  0.25583  0.21249  0.48130  1.0000
  C   C60       1.0  0.74417  0.21249  0.01870  1.0000
  C   C61       1.0  0.24417  0.28751  0.51870  1.0000
  C   C62       1.0  0.75583  0.28751  0.98130  1.0000
  C   C63       1.0  0.74417  0.78751  0.51870  1.0000
  C   C64       1.0  0.25583  0.78751  0.98130  1.0000
