data_image0
_chemical_formula_structural       Cu4O32C16
_chemical_formula_sum              "Cu4 O32 C16"
_cell_length_a       16.9291
_cell_length_b       9.6931
_cell_length_c       19.2582
_cell_angle_alpha    90
_cell_angle_beta     136.812
_cell_angle_gamma    90

_space_group_name_H-M_alt    "P 1"
_space_group_IT_number       1

loop_
  _space_group_symop_operation_xyz
  'x, y, z'

loop_
  _atom_site_type_symbol
  _atom_site_label
  _atom_site_symmetry_multiplicity
  _atom_site_fract_x
  _atom_site_fract_y
  _atom_site_fract_z
  _atom_site_occupancy
  Cu  Cu1       1.0  0.10362  0.25262  0.52946  1.0000
  Cu  Cu2       1.0  0.89638  0.75262  0.97054  1.0000
  Cu  Cu3       1.0  0.89638  0.74738  0.47054  1.0000
  Cu  Cu4       1.0  0.10362  0.24738  0.02946  1.0000
  O   O1        1.0  0.25502  0.17380  0.64874  1.0000
  O   O2        1.0  0.74498  0.67380  0.85126  1.0000
  O   O3        1.0  0.74498  0.82620  0.35126  1.0000
  O   O4        1.0  0.25502  0.32620  0.14874  1.0000
  O   O5        1.0  0.18784  0.33458  0.50424  1.0000
  O   O6        1.0  0.81216  0.83458  0.99576  1.0000
  O   O7        1.0  0.81216  0.66542  0.49576  1.0000
  O   O8        1.0  0.18784  0.16542  0.00424  1.0000
  O   O9        1.0  0.43789  0.18590  0.73133  1.0000
  O   O10       1.0  0.56211  0.68590  0.76867  1.0000
  O   O11       1.0  0.56211  0.81410  0.26867  1.0000
  O   O12       1.0  0.43789  0.31410  0.23133  1.0000
  O   O13       1.0  0.36713  0.34390  0.57698  1.0000
  O   O14       1.0  0.63287  0.84390  0.92302  1.0000
  O   O15       1.0  0.63287  0.65610  0.42302  1.0000
  O   O16       1.0  0.36713  0.15610  0.07698  1.0000
  O   O17       1.0  0.03552  0.15297  0.56695  1.0000
  O   O18       1.0  0.96448  0.65297  0.93305  1.0000
  O   O19       1.0  0.96448  0.84703  0.43305  1.0000
  O   O20       1.0  0.03552  0.34703  0.06695  1.0000
  O   O21       1.0  0.96410  0.36345  0.42082  1.0000
  O   O22       1.0  0.03590  0.86345  0.07918  1.0000
  O   O23       1.0  0.03590  0.63655  0.57918  1.0000
  O   O24       1.0  0.96410  0.13655  0.92082  1.0000
  O   O25       1.0  0.97301  0.95214  0.56839  1.0000
  O   O26       1.0  0.02699  0.45214  0.93161  1.0000
  O   O27       1.0  0.02699  0.04786  0.43161  1.0000
  O   O28       1.0  0.97301  0.54786  0.06839  1.0000
  O   O29       1.0  0.87309  0.56128  0.38164  1.0000
  O   O30       1.0  0.12691  0.06128  0.11836  1.0000
  O   O31       1.0  0.12691  0.43872  0.61836  1.0000
  O   O32       1.0  0.87309  0.93872  0.88164  1.0000
  C   C1        1.0  0.33410  0.21500  0.65950  1.0000
  C   C2        1.0  0.66590  0.71500  0.84050  1.0000
  C   C3        1.0  0.66590  0.78500  0.34050  1.0000
  C   C4        1.0  0.33410  0.28500  0.15950  1.0000
  C   C5        1.0  0.29460  0.30640  0.57350  1.0000
  C   C6        1.0  0.70540  0.80640  0.92650  1.0000
  C   C7        1.0  0.70540  0.69360  0.42650  1.0000
  C   C8        1.0  0.29460  0.19360  0.07350  1.0000
  C   C9        1.0  0.00230  0.02820  0.53929  1.0000
  C   C10       1.0  0.99770  0.52820  0.96071  1.0000
  C   C11       1.0  0.99770  0.97180  0.46071  1.0000
  C   C12       1.0  0.00230  0.47180  0.03929  1.0000
  C   C13       1.0  0.95312  0.47860  0.44324  1.0000
  C   C14       1.0  0.04688  0.97860  0.05676  1.0000
  C   C15       1.0  0.04688  0.52140  0.55676  1.0000
  C   C16       1.0  0.95312  0.02140  0.94324  1.0000
