data_image0
_chemical_formula_structural       U4S4N4C4O24C8
_chemical_formula_sum              "U4 S4 N4 C12 O24"
_cell_length_a       9.129
_cell_length_b       13.102
_cell_length_c       8.981
_cell_angle_alpha    90
_cell_angle_beta     99.19
_cell_angle_gamma    90

_space_group_name_H-M_alt    "P 1"
_space_group_IT_number       1

loop_
  _space_group_symop_operation_xyz
  'x, y, z'

loop_
  _atom_site_type_symbol
  _atom_site_label
  _atom_site_symmetry_multiplicity
  _atom_site_fract_x
  _atom_site_fract_y
  _atom_site_fract_z
  _atom_site_occupancy
  U   U1        1.0  0.00000  0.16330  0.25000  1.0000
  U   U2        1.0  0.50000  0.66330  0.25000  1.0000
  U   U3        1.0  0.00000  0.83670  0.75000  1.0000
  U   U4        1.0  0.50000  0.33670  0.75000  1.0000
  S   S1        1.0  0.00000  0.77040  0.25000  1.0000
  S   S2        1.0  0.50000  0.27040  0.25000  1.0000
  S   S3        1.0  0.00000  0.22960  0.75000  1.0000
  S   S4        1.0  0.50000  0.72960  0.75000  1.0000
  N   N1        1.0  0.00000  0.98170  0.25000  1.0000
  N   N2        1.0  0.50000  0.48170  0.25000  1.0000
  N   N3        1.0  0.00000  0.01830  0.75000  1.0000
  N   N4        1.0  0.50000  0.51830  0.75000  1.0000
  C   C1        1.0  0.00000  0.89380  0.25000  1.0000
  C   C2        1.0  0.50000  0.39380  0.25000  1.0000
  C   C3        1.0  0.00000  0.10620  0.75000  1.0000
  C   C4        1.0  0.50000  0.60620  0.75000  1.0000
  O   O1        1.0  0.79570  0.12520  0.05050  1.0000
  O   O2        1.0  0.29570  0.62520  0.05050  1.0000
  O   O3        1.0  0.20430  0.12520  0.44950  1.0000
  O   O4        1.0  0.70430  0.62520  0.44950  1.0000
  O   O5        1.0  0.20430  0.87480  0.94950  1.0000
  O   O6        1.0  0.70430  0.37480  0.94950  1.0000
  O   O7        1.0  0.79570  0.87480  0.55050  1.0000
  O   O8        1.0  0.29570  0.37480  0.55050  1.0000
  O   O9        1.0  0.61940  0.18660  0.87200  1.0000
  O   O10       1.0  0.11940  0.68660  0.87200  1.0000
  O   O11       1.0  0.38060  0.18660  0.62800  1.0000
  O   O12       1.0  0.88060  0.68660  0.62800  1.0000
  O   O13       1.0  0.38060  0.81340  0.12800  1.0000
  O   O14       1.0  0.88060  0.31340  0.12800  1.0000
  O   O15       1.0  0.61940  0.81340  0.37200  1.0000
  O   O16       1.0  0.11940  0.31340  0.37200  1.0000
  O   O17       1.0  0.12680  0.16520  0.12150  1.0000
  O   O18       1.0  0.62680  0.66520  0.12150  1.0000
  O   O19       1.0  0.87320  0.16520  0.37850  1.0000
  O   O20       1.0  0.37320  0.66520  0.37850  1.0000
  O   O21       1.0  0.87320  0.83480  0.87850  1.0000
  O   O22       1.0  0.37320  0.33480  0.87850  1.0000
  O   O23       1.0  0.12680  0.83480  0.62150  1.0000
  O   O24       1.0  0.62680  0.33480  0.62150  1.0000
  C   C5        1.0  0.72590  0.19530  0.97730  1.0000
  C   C6        1.0  0.22590  0.69530  0.97730  1.0000
  C   C7        1.0  0.27410  0.19530  0.52270  1.0000
  C   C8        1.0  0.77410  0.69530  0.52270  1.0000
  C   C9        1.0  0.27410  0.80470  0.02270  1.0000
  C   C10       1.0  0.77410  0.30470  0.02270  1.0000
  C   C11       1.0  0.72590  0.80470  0.47730  1.0000
  C   C12       1.0  0.22590  0.30470  0.47730  1.0000
