data_image0
_chemical_formula_structural       Mn4O24C12
_chemical_formula_sum              "Mn4 O24 C12"
_cell_length_a       8.2623
_cell_length_b       16.1821
_cell_length_c       9.4702
_cell_angle_alpha    90
_cell_angle_beta     111.917
_cell_angle_gamma    90

_space_group_name_H-M_alt    "P 1"
_space_group_IT_number       1

loop_
  _space_group_symop_operation_xyz
  'x, y, z'

loop_
  _atom_site_type_symbol
  _atom_site_label
  _atom_site_symmetry_multiplicity
  _atom_site_fract_x
  _atom_site_fract_y
  _atom_site_fract_z
  _atom_site_occupancy
  Mn  Mn1       1.0  0.02869  0.16979  0.95793  1.0000
  Mn  Mn2       1.0  0.47131  0.66979  0.54207  1.0000
  Mn  Mn3       1.0  0.97131  0.83021  0.04207  1.0000
  Mn  Mn4       1.0  0.52869  0.33021  0.45793  1.0000
  O   O1        1.0  0.74727  0.17989  0.83745  1.0000
  O   O2        1.0  0.75273  0.67989  0.66255  1.0000
  O   O3        1.0  0.25273  0.82011  0.16255  1.0000
  O   O4        1.0  0.24727  0.32011  0.33745  1.0000
  O   O5        1.0  0.54842  0.23487  0.62735  1.0000
  O   O6        1.0  0.95158  0.73487  0.87265  1.0000
  O   O7        1.0  0.45158  0.76513  0.37265  1.0000
  O   O8        1.0  0.04842  0.26513  0.12735  1.0000
  O   O9        1.0  0.80602  0.30984  0.56540  1.0000
  O   O10       1.0  0.69398  0.80984  0.93460  1.0000
  O   O11       1.0  0.19398  0.69016  0.43460  1.0000
  O   O12       1.0  0.30602  0.19016  0.06540  1.0000
  O   O13       1.0  0.00415  0.24760  0.76634  1.0000
  O   O14       1.0  0.49585  0.74760  0.73366  1.0000
  O   O15       1.0  0.99585  0.75240  0.23366  1.0000
  O   O16       1.0  0.50415  0.25240  0.26634  1.0000
  O   O17       1.0  0.00269  0.08224  0.12066  1.0000
  O   O18       1.0  0.49731  0.58224  0.37934  1.0000
  O   O19       1.0  0.99731  0.91776  0.87934  1.0000
  O   O20       1.0  0.50269  0.41776  0.62066  1.0000
  O   O21       1.0  0.95581  0.94774  0.14370  1.0000
  O   O22       1.0  0.54419  0.44774  0.35630  1.0000
  O   O23       1.0  0.04419  0.05226  0.85630  1.0000
  O   O24       1.0  0.45581  0.55226  0.64370  1.0000
  C   C1        1.0  0.85089  0.26345  0.67931  1.0000
  C   C2        1.0  0.64911  0.76345  0.82069  1.0000
  C   C3        1.0  0.14911  0.73655  0.32069  1.0000
  C   C4        1.0  0.35089  0.23655  0.17931  1.0000
  C   C5        1.0  0.70154  0.22215  0.71826  1.0000
  C   C6        1.0  0.79846  0.72215  0.78174  1.0000
  C   C7        1.0  0.29846  0.77785  0.28174  1.0000
  C   C8        1.0  0.20154  0.27785  0.21826  1.0000
  C   C9        1.0  0.98787  0.00845  0.07678  1.0000
  C   C10       1.0  0.51213  0.50845  0.42322  1.0000
  C   C11       1.0  0.01213  0.99155  0.92322  1.0000
  C   C12       1.0  0.48787  0.49155  0.57678  1.0000
