data_image0
_chemical_formula_structural       Fe16O64Cl32C32O64C32Fe48Cl32O64C32O64C32O64C32O16
_chemical_formula_sum              "Fe64 O336 Cl64 C160"
_cell_length_a       27.328
_cell_length_b       32.125
_cell_length_c       18.424
_cell_angle_alpha    90
_cell_angle_beta     90
_cell_angle_gamma    90

_space_group_name_H-M_alt    "P 1"
_space_group_IT_number       1

loop_
  _space_group_symop_operation_xyz
  'x, y, z'

loop_
  _atom_site_type_symbol
  _atom_site_label
  _atom_site_symmetry_multiplicity
  _atom_site_fract_x
  _atom_site_fract_y
  _atom_site_fract_z
  _atom_site_occupancy
  Fe  Fe1       1.0  0.50000  0.00000  0.22526  1.0000
  Fe  Fe2       1.0  0.75000  0.25000  0.47526  1.0000
  Fe  Fe3       1.0  0.50000  0.50000  0.72526  1.0000
  Fe  Fe4       1.0  0.75000  0.75000  0.97526  1.0000
  Fe  Fe5       1.0  0.00000  0.00000  0.72526  1.0000
  Fe  Fe6       1.0  0.25000  0.25000  0.97526  1.0000
  Fe  Fe7       1.0  0.00000  0.50000  0.22526  1.0000
  Fe  Fe8       1.0  0.25000  0.75000  0.47526  1.0000
  Fe  Fe9       1.0  0.50000  0.00000  0.81109  1.0000
  Fe  Fe10      1.0  0.75000  0.25000  0.06109  1.0000
  Fe  Fe11      1.0  0.50000  0.50000  0.31109  1.0000
  Fe  Fe12      1.0  0.75000  0.75000  0.56109  1.0000
  Fe  Fe13      1.0  0.00000  0.00000  0.31109  1.0000
  Fe  Fe14      1.0  0.25000  0.25000  0.56109  1.0000
  Fe  Fe15      1.0  0.00000  0.50000  0.81109  1.0000
  Fe  Fe16      1.0  0.25000  0.75000  0.06109  1.0000
  O   O1        1.0  0.47070  0.03690  0.14300  1.0000
  O   O2        1.0  0.52930  0.96310  0.14300  1.0000
  O   O3        1.0  0.72070  0.21310  0.39300  1.0000
  O   O4        1.0  0.77930  0.28690  0.39300  1.0000
  O   O5        1.0  0.47070  0.53690  0.64300  1.0000
  O   O6        1.0  0.52930  0.46310  0.64300  1.0000
  O   O7        1.0  0.72070  0.71310  0.89300  1.0000
  O   O8        1.0  0.77930  0.78690  0.89300  1.0000
  O   O9        1.0  0.97070  0.03690  0.64300  1.0000
  O   O10       1.0  0.02930  0.96310  0.64300  1.0000
  O   O11       1.0  0.22070  0.21310  0.89300  1.0000
  O   O12       1.0  0.27930  0.28690  0.89300  1.0000
  O   O13       1.0  0.97070  0.53690  0.14300  1.0000
  O   O14       1.0  0.02930  0.46310  0.14300  1.0000
  O   O15       1.0  0.22070  0.71310  0.39300  1.0000
  O   O16       1.0  0.27930  0.78690  0.39300  1.0000
  O   O17       1.0  0.43660  0.96920  0.20550  1.0000
  O   O18       1.0  0.56340  0.03080  0.20550  1.0000
  O   O19       1.0  0.68660  0.28080  0.45550  1.0000
  O   O20       1.0  0.81340  0.21920  0.45550  1.0000
  O   O21       1.0  0.43660  0.46920  0.70550  1.0000
  O   O22       1.0  0.56340  0.53080  0.70550  1.0000
  O   O23       1.0  0.68660  0.78080  0.95550  1.0000
  O   O24       1.0  0.81340  0.71920  0.95550  1.0000
  O   O25       1.0  0.93660  0.96920  0.70550  1.0000
  O   O26       1.0  0.06340  0.03080  0.70550  1.0000
  O   O27       1.0  0.18660  0.28080  0.95550  1.0000
  O   O28       1.0  0.31340  0.21920  0.95550  1.0000
  O   O29       1.0  0.93660  0.46920  0.20550  1.0000
  O   O30       1.0  0.06340  0.53080  0.20550  1.0000
  O   O31       1.0  0.18660  0.78080  0.45550  1.0000
  O   O32       1.0  0.31340  0.71920  0.45550  1.0000
  O   O33       1.0  0.40710  0.03960  0.06780  1.0000
  O   O34       1.0  0.59290  0.96040  0.06780  1.0000
  O   O35       1.0  0.65710  0.21040  0.31780  1.0000
  O   O36       1.0  0.84290  0.28960  0.31780  1.0000
  O   O37       1.0  0.40710  0.53960  0.56780  1.0000
  O   O38       1.0  0.59290  0.46040  0.56780  1.0000
  O   O39       1.0  0.65710  0.71040  0.81780  1.0000
  O   O40       1.0  0.84290  0.78960  0.81780  1.0000
  O   O41       1.0  0.90710  0.03960  0.56780  1.0000
  O   O42       1.0  0.09290  0.96040  0.56780  1.0000
  O   O43       1.0  0.15710  0.21040  0.81780  1.0000
  O   O44       1.0  0.34290  0.28960  0.81780  1.0000
  O   O45       1.0  0.90710  0.53960  0.06780  1.0000
  O   O46       1.0  0.09290  0.46040  0.06780  1.0000
  O   O47       1.0  0.15710  0.71040  0.31780  1.0000
  O   O48       1.0  0.34290  0.78960  0.31780  1.0000
  O   O49       1.0  0.37170  0.96880  0.12880  1.0000
  O   O50       1.0  0.62830  0.03120  0.12880  1.0000
  O   O51       1.0  0.62170  0.28120  0.37880  1.0000
  O   O52       1.0  0.87830  0.21880  0.37880  1.0000
  O   O53       1.0  0.37170  0.46880  0.62880  1.0000
  O   O54       1.0  0.62830  0.53120  0.62880  1.0000
  O   O55       1.0  0.62170  0.78120  0.87880  1.0000
  O   O56       1.0  0.87830  0.71880  0.87880  1.0000
  O   O57       1.0  0.87170  0.96880  0.62880  1.0000
  O   O58       1.0  0.12830  0.03120  0.62880  1.0000
  O   O59       1.0  0.12170  0.28120  0.87880  1.0000
  O   O60       1.0  0.37830  0.21880  0.87880  1.0000
  O   O61       1.0  0.87170  0.46880  0.12880  1.0000
  O   O62       1.0  0.12830  0.53120  0.12880  1.0000
  O   O63       1.0  0.12170  0.78120  0.37880  1.0000
  O   O64       1.0  0.37830  0.71880  0.37880  1.0000
  Cl  Cl1       1.0  0.52569  0.95319  0.31070  1.0000
  Cl  Cl2       1.0  0.47431  0.04681  0.31070  1.0000
  Cl  Cl3       1.0  0.77569  0.29681  0.56070  1.0000
  Cl  Cl4       1.0  0.72431  0.20319  0.56070  1.0000
  Cl  Cl5       1.0  0.52569  0.45319  0.81070  1.0000
  Cl  Cl6       1.0  0.47431  0.54681  0.81070  1.0000
  Cl  Cl7       1.0  0.77569  0.79681  0.06070  1.0000
  Cl  Cl8       1.0  0.72431  0.70319  0.06070  1.0000
  Cl  Cl9       1.0  0.02569  0.95319  0.81070  1.0000
  Cl  Cl10      1.0  0.97431  0.04681  0.81070  1.0000
  Cl  Cl11      1.0  0.27569  0.29681  0.06070  1.0000
  Cl  Cl12      1.0  0.22431  0.20319  0.06070  1.0000
  Cl  Cl13      1.0  0.02569  0.45319  0.31070  1.0000
  Cl  Cl14      1.0  0.97431  0.54681  0.31070  1.0000
  Cl  Cl15      1.0  0.27569  0.79681  0.56070  1.0000
  Cl  Cl16      1.0  0.22431  0.70319  0.56070  1.0000
  Cl  Cl17      1.0  0.47579  0.95400  0.72320  1.0000
  Cl  Cl18      1.0  0.52421  0.04600  0.72320  1.0000
  Cl  Cl19      1.0  0.72579  0.29600  0.97320  1.0000
  Cl  Cl20      1.0  0.77421  0.20400  0.97320  1.0000
  Cl  Cl21      1.0  0.47579  0.45400  0.22320  1.0000
  Cl  Cl22      1.0  0.52421  0.54600  0.22320  1.0000
  Cl  Cl23      1.0  0.72579  0.79600  0.47320  1.0000
  Cl  Cl24      1.0  0.77421  0.70400  0.47320  1.0000
  Cl  Cl25      1.0  0.97579  0.95400  0.22320  1.0000
  Cl  Cl26      1.0  0.02421  0.04600  0.22320  1.0000
  Cl  Cl27      1.0  0.22579  0.29600  0.47320  1.0000
  Cl  Cl28      1.0  0.27421  0.20400  0.47320  1.0000
  Cl  Cl29      1.0  0.97579  0.45400  0.72320  1.0000
  Cl  Cl30      1.0  0.02421  0.54600  0.72320  1.0000
  Cl  Cl31      1.0  0.22579  0.79600  0.97320  1.0000
  Cl  Cl32      1.0  0.27421  0.70400  0.97320  1.0000
  C   C1        1.0  0.41060  0.98360  0.15350  1.0000
  C   C2        1.0  0.58940  0.01640  0.15350  1.0000
  C   C3        1.0  0.66060  0.26640  0.40350  1.0000
  C   C4        1.0  0.83940  0.23360  0.40350  1.0000
  C   C5        1.0  0.41060  0.48360  0.65350  1.0000
  C   C6        1.0  0.58940  0.51640  0.65350  1.0000
  C   C7        1.0  0.66060  0.76640  0.90350  1.0000
  C   C8        1.0  0.83940  0.73360  0.90350  1.0000
  C   C9        1.0  0.91060  0.98360  0.65350  1.0000
  C   C10       1.0  0.08940  0.01640  0.65350  1.0000
  C   C11       1.0  0.16060  0.26640  0.90350  1.0000
  C   C12       1.0  0.33940  0.23360  0.90350  1.0000
  C   C13       1.0  0.91060  0.48360  0.15350  1.0000
  C   C14       1.0  0.08940  0.51640  0.15350  1.0000
  C   C15       1.0  0.16060  0.76640  0.40350  1.0000
  C   C16       1.0  0.33940  0.73360  0.40350  1.0000
  C   C17       1.0  0.43060  0.02420  0.11750  1.0000
  C   C18       1.0  0.56940  0.97580  0.11750  1.0000
  C   C19       1.0  0.68060  0.22580  0.36750  1.0000
  C   C20       1.0  0.81940  0.27420  0.36750  1.0000
  C   C21       1.0  0.43060  0.52420  0.61750  1.0000
  C   C22       1.0  0.56940  0.47580  0.61750  1.0000
  C   C23       1.0  0.68060  0.72580  0.86750  1.0000
  C   C24       1.0  0.81940  0.77420  0.86750  1.0000
  C   C25       1.0  0.93060  0.02420  0.61750  1.0000
  C   C26       1.0  0.06940  0.97580  0.61750  1.0000
  C   C27       1.0  0.18060  0.22580  0.86750  1.0000
  C   C28       1.0  0.31940  0.27420  0.86750  1.0000
  C   C29       1.0  0.93060  0.52420  0.11750  1.0000
  C   C30       1.0  0.06940  0.47580  0.11750  1.0000
  C   C31       1.0  0.18060  0.72580  0.36750  1.0000
  C   C32       1.0  0.31940  0.77420  0.36750  1.0000
  O   O65       1.0  0.46940  0.96460  0.89100  1.0000
  O   O66       1.0  0.53060  0.03540  0.89100  1.0000
  O   O67       1.0  0.71940  0.28540  0.14100  1.0000
  O   O68       1.0  0.78060  0.21460  0.14100  1.0000
  O   O69       1.0  0.46940  0.46460  0.39100  1.0000
  O   O70       1.0  0.53060  0.53540  0.39100  1.0000
  O   O71       1.0  0.71940  0.78540  0.64100  1.0000
  O   O72       1.0  0.78060  0.71460  0.64100  1.0000
  O   O73       1.0  0.96940  0.96460  0.39100  1.0000
  O   O74       1.0  0.03060  0.03540  0.39100  1.0000
  O   O75       1.0  0.21940  0.28540  0.64100  1.0000
  O   O76       1.0  0.28060  0.21460  0.64100  1.0000
  O   O77       1.0  0.96940  0.46460  0.89100  1.0000
  O   O78       1.0  0.03060  0.53540  0.89100  1.0000
  O   O79       1.0  0.21940  0.78540  0.14100  1.0000
  O   O80       1.0  0.28060  0.71460  0.14100  1.0000
  O   O81       1.0  0.43690  0.03110  0.82990  1.0000
  O   O82       1.0  0.56310  0.96890  0.82990  1.0000
  O   O83       1.0  0.68690  0.21890  0.07990  1.0000
  O   O84       1.0  0.81310  0.28110  0.07990  1.0000
  O   O85       1.0  0.43690  0.53110  0.32990  1.0000
  O   O86       1.0  0.56310  0.46890  0.32990  1.0000
  O   O87       1.0  0.68690  0.71890  0.57990  1.0000
  O   O88       1.0  0.81310  0.78110  0.57990  1.0000
  O   O89       1.0  0.93690  0.03110  0.32990  1.0000
  O   O90       1.0  0.06310  0.96890  0.32990  1.0000
  O   O91       1.0  0.18690  0.21890  0.57990  1.0000
  O   O92       1.0  0.31310  0.28110  0.57990  1.0000
  O   O93       1.0  0.93690  0.53110  0.82990  1.0000
  O   O94       1.0  0.06310  0.46890  0.82990  1.0000
  O   O95       1.0  0.18690  0.71890  0.07990  1.0000
  O   O96       1.0  0.31310  0.78110  0.07990  1.0000
  O   O97       1.0  0.40810  0.96390  0.96950  1.0000
  O   O98       1.0  0.59190  0.03610  0.96950  1.0000
  O   O99       1.0  0.65810  0.28610  0.21950  1.0000
  O   O100      1.0  0.84190  0.21390  0.21950  1.0000
  O   O101      1.0  0.40810  0.46390  0.46950  1.0000
  O   O102      1.0  0.59190  0.53610  0.46950  1.0000
  O   O103      1.0  0.65810  0.78610  0.71950  1.0000
  O   O104      1.0  0.84190  0.71390  0.71950  1.0000
  O   O105      1.0  0.90810  0.96390  0.46950  1.0000
  O   O106      1.0  0.09190  0.03610  0.46950  1.0000
  O   O107      1.0  0.15810  0.28610  0.71950  1.0000
  O   O108      1.0  0.34190  0.21390  0.71950  1.0000
  O   O109      1.0  0.90810  0.46390  0.96950  1.0000
  O   O110      1.0  0.09190  0.53610  0.96950  1.0000
  O   O111      1.0  0.15810  0.78610  0.21950  1.0000
  O   O112      1.0  0.34190  0.71390  0.21950  1.0000
  O   O113      1.0  0.37570  0.03590  0.90870  1.0000
  O   O114      1.0  0.62430  0.96410  0.90870  1.0000
  O   O115      1.0  0.62570  0.21410  0.15870  1.0000
  O   O116      1.0  0.87430  0.28590  0.15870  1.0000
  O   O117      1.0  0.37570  0.53590  0.40870  1.0000
  O   O118      1.0  0.62430  0.46410  0.40870  1.0000
  O   O119      1.0  0.62570  0.71410  0.65870  1.0000
  O   O120      1.0  0.87430  0.78590  0.65870  1.0000
  O   O121      1.0  0.87570  0.03590  0.40870  1.0000
  O   O122      1.0  0.12430  0.96410  0.40870  1.0000
  O   O123      1.0  0.12570  0.21410  0.65870  1.0000
  O   O124      1.0  0.37430  0.28590  0.65870  1.0000
  O   O125      1.0  0.87570  0.53590  0.90870  1.0000
  O   O126      1.0  0.12430  0.46410  0.90870  1.0000
  O   O127      1.0  0.12570  0.71410  0.15870  1.0000
  O   O128      1.0  0.37430  0.78590  0.15870  1.0000
  C   C33       1.0  0.43130  0.97820  0.91770  1.0000
  C   C34       1.0  0.56870  0.02180  0.91770  1.0000
  C   C35       1.0  0.68130  0.27180  0.16770  1.0000
  C   C36       1.0  0.81870  0.22820  0.16770  1.0000
  C   C37       1.0  0.43130  0.47820  0.41770  1.0000
  C   C38       1.0  0.56870  0.52180  0.41770  1.0000
  C   C39       1.0  0.68130  0.77180  0.66770  1.0000
  C   C40       1.0  0.81870  0.72820  0.66770  1.0000
  C   C41       1.0  0.93130  0.97820  0.41770  1.0000
  C   C42       1.0  0.06870  0.02180  0.41770  1.0000
  C   C43       1.0  0.18130  0.27180  0.66770  1.0000
  C   C44       1.0  0.31870  0.22820  0.66770  1.0000
  C   C45       1.0  0.93130  0.47820  0.91770  1.0000
  C   C46       1.0  0.06870  0.52180  0.91770  1.0000
  C   C47       1.0  0.18130  0.77180  0.16770  1.0000
  C   C48       1.0  0.31870  0.72820  0.16770  1.0000
  C   C49       1.0  0.41210  0.01870  0.88360  1.0000
  C   C50       1.0  0.58790  0.98130  0.88360  1.0000
  C   C51       1.0  0.66210  0.23130  0.13360  1.0000
  C   C52       1.0  0.83790  0.26870  0.13360  1.0000
  C   C53       1.0  0.41210  0.51870  0.38360  1.0000
  C   C54       1.0  0.58790  0.48130  0.38360  1.0000
  C   C55       1.0  0.66210  0.73130  0.63360  1.0000
  C   C56       1.0  0.83790  0.76870  0.63360  1.0000
  C   C57       1.0  0.91210  0.01870  0.38360  1.0000
  C   C58       1.0  0.08790  0.98130  0.38360  1.0000
  C   C59       1.0  0.16210  0.23130  0.63360  1.0000
  C   C60       1.0  0.33790  0.26870  0.63360  1.0000
  C   C61       1.0  0.91210  0.51870  0.88360  1.0000
  C   C62       1.0  0.08790  0.48130  0.88360  1.0000
  C   C63       1.0  0.16210  0.73130  0.13360  1.0000
  C   C64       1.0  0.33790  0.76870  0.13360  1.0000
  Fe  Fe17      1.0  0.19276  0.08050  0.20407  1.0000
  Fe  Fe18      1.0  0.80724  0.91950  0.20407  1.0000
  Fe  Fe19      1.0  0.44276  0.16950  0.45407  1.0000
  Fe  Fe20      1.0  0.05724  0.33050  0.45407  1.0000
  Fe  Fe21      1.0  0.19276  0.58050  0.70407  1.0000
  Fe  Fe22      1.0  0.80724  0.41950  0.70407  1.0000
  Fe  Fe23      1.0  0.44276  0.66950  0.95407  1.0000
  Fe  Fe24      1.0  0.05724  0.83050  0.95407  1.0000
  Fe  Fe25      1.0  0.69276  0.08050  0.70407  1.0000
  Fe  Fe26      1.0  0.30724  0.91950  0.70407  1.0000
  Fe  Fe27      1.0  0.94276  0.16950  0.95407  1.0000
  Fe  Fe28      1.0  0.55724  0.33050  0.95407  1.0000
  Fe  Fe29      1.0  0.69276  0.58050  0.20407  1.0000
  Fe  Fe30      1.0  0.30724  0.41950  0.20407  1.0000
  Fe  Fe31      1.0  0.94276  0.66950  0.45407  1.0000
  Fe  Fe32      1.0  0.55724  0.83050  0.45407  1.0000
  Fe  Fe33      1.0  0.20435  0.91500  0.82276  1.0000
  Fe  Fe34      1.0  0.79565  0.08500  0.82276  1.0000
  Fe  Fe35      1.0  0.45435  0.33500  0.07276  1.0000
  Fe  Fe36      1.0  0.04565  0.16500  0.07276  1.0000
  Fe  Fe37      1.0  0.20435  0.41500  0.32276  1.0000
  Fe  Fe38      1.0  0.79565  0.58500  0.32276  1.0000
  Fe  Fe39      1.0  0.45435  0.83500  0.57276  1.0000
  Fe  Fe40      1.0  0.04565  0.66500  0.57276  1.0000
  Fe  Fe41      1.0  0.70435  0.91500  0.32276  1.0000
  Fe  Fe42      1.0  0.29565  0.08500  0.32276  1.0000
  Fe  Fe43      1.0  0.95435  0.33500  0.57276  1.0000
  Fe  Fe44      1.0  0.54565  0.16500  0.57276  1.0000
  Fe  Fe45      1.0  0.70435  0.41500  0.82276  1.0000
  Fe  Fe46      1.0  0.29565  0.58500  0.82276  1.0000
  Fe  Fe47      1.0  0.95435  0.83500  0.07276  1.0000
  Fe  Fe48      1.0  0.54565  0.66500  0.07276  1.0000
  Fe  Fe49      1.0  0.33880  0.00110  0.01721  1.0000
  Fe  Fe50      1.0  0.66120  0.99890  0.01721  1.0000
  Fe  Fe51      1.0  0.58880  0.24890  0.26721  1.0000
  Fe  Fe52      1.0  0.91120  0.25110  0.26721  1.0000
  Fe  Fe53      1.0  0.33880  0.50110  0.51721  1.0000
  Fe  Fe54      1.0  0.66120  0.49890  0.51721  1.0000
  Fe  Fe55      1.0  0.58880  0.74890  0.76721  1.0000
  Fe  Fe56      1.0  0.91120  0.75110  0.76721  1.0000
  Fe  Fe57      1.0  0.83880  0.00110  0.51721  1.0000
  Fe  Fe58      1.0  0.16120  0.99890  0.51721  1.0000
  Fe  Fe59      1.0  0.08880  0.24890  0.76721  1.0000
  Fe  Fe60      1.0  0.41120  0.25110  0.76721  1.0000
  Fe  Fe61      1.0  0.83880  0.50110  0.01721  1.0000
  Fe  Fe62      1.0  0.16120  0.49890  0.01721  1.0000
  Fe  Fe63      1.0  0.08880  0.74890  0.26721  1.0000
  Fe  Fe64      1.0  0.41120  0.75110  0.26721  1.0000
  Cl  Cl33      1.0  0.15039  0.05348  0.29853  1.0000
  Cl  Cl34      1.0  0.84961  0.94652  0.29853  1.0000
  Cl  Cl35      1.0  0.40039  0.19652  0.54853  1.0000
  Cl  Cl36      1.0  0.09961  0.30348  0.54853  1.0000
  Cl  Cl37      1.0  0.15039  0.55348  0.79853  1.0000
  Cl  Cl38      1.0  0.84961  0.44652  0.79853  1.0000
  Cl  Cl39      1.0  0.40039  0.69652  0.04853  1.0000
  Cl  Cl40      1.0  0.09961  0.80348  0.04853  1.0000
  Cl  Cl41      1.0  0.65039  0.05348  0.79853  1.0000
  Cl  Cl42      1.0  0.34961  0.94652  0.79853  1.0000
  Cl  Cl43      1.0  0.90039  0.19652  0.04853  1.0000
  Cl  Cl44      1.0  0.59961  0.30348  0.04853  1.0000
  Cl  Cl45      1.0  0.65039  0.55348  0.29853  1.0000
  Cl  Cl46      1.0  0.34961  0.44652  0.29853  1.0000
  Cl  Cl47      1.0  0.90039  0.69652  0.54853  1.0000
  Cl  Cl48      1.0  0.59961  0.80348  0.54853  1.0000
  Cl  Cl49      1.0  0.15800  0.93916  0.72870  1.0000
  Cl  Cl50      1.0  0.84200  0.06084  0.72870  1.0000
  Cl  Cl51      1.0  0.40800  0.31084  0.97870  1.0000
  Cl  Cl52      1.0  0.09200  0.18916  0.97870  1.0000
  Cl  Cl53      1.0  0.15800  0.43916  0.22870  1.0000
  Cl  Cl54      1.0  0.84200  0.56084  0.22870  1.0000
  Cl  Cl55      1.0  0.40800  0.81084  0.47870  1.0000
  Cl  Cl56      1.0  0.09200  0.68916  0.47870  1.0000
  Cl  Cl57      1.0  0.65800  0.93916  0.22870  1.0000
  Cl  Cl58      1.0  0.34200  0.06084  0.22870  1.0000
  Cl  Cl59      1.0  0.90800  0.31084  0.47870  1.0000
  Cl  Cl60      1.0  0.59200  0.18916  0.47870  1.0000
  Cl  Cl61      1.0  0.65800  0.43916  0.72870  1.0000
  Cl  Cl62      1.0  0.34200  0.56084  0.72870  1.0000
  Cl  Cl63      1.0  0.90800  0.81084  0.97870  1.0000
  Cl  Cl64      1.0  0.59200  0.68916  0.97870  1.0000
  O   O129      1.0  0.22170  0.02440  0.18010  1.0000
  O   O130      1.0  0.77830  0.97560  0.18010  1.0000
  O   O131      1.0  0.47170  0.22560  0.43010  1.0000
  O   O132      1.0  0.02830  0.27440  0.43010  1.0000
  O   O133      1.0  0.22170  0.52440  0.68010  1.0000
  O   O134      1.0  0.77830  0.47560  0.68010  1.0000
  O   O135      1.0  0.47170  0.72560  0.93010  1.0000
  O   O136      1.0  0.02830  0.77440  0.93010  1.0000
  O   O137      1.0  0.72170  0.02440  0.68010  1.0000
  O   O138      1.0  0.27830  0.97560  0.68010  1.0000
  O   O139      1.0  0.97170  0.22560  0.93010  1.0000
  O   O140      1.0  0.52830  0.27440  0.93010  1.0000
  O   O141      1.0  0.72170  0.52440  0.18010  1.0000
  O   O142      1.0  0.27830  0.47560  0.18010  1.0000
  O   O143      1.0  0.97170  0.72560  0.43010  1.0000
  O   O144      1.0  0.52830  0.77440  0.43010  1.0000
  O   O145      1.0  0.23410  0.09430  0.11080  1.0000
  O   O146      1.0  0.76590  0.90570  0.11080  1.0000
  O   O147      1.0  0.48410  0.15570  0.36080  1.0000
  O   O148      1.0  0.01590  0.34430  0.36080  1.0000
  O   O149      1.0  0.23410  0.59430  0.61080  1.0000
  O   O150      1.0  0.76590  0.40570  0.61080  1.0000
  O   O151      1.0  0.48410  0.65570  0.86080  1.0000
  O   O152      1.0  0.01590  0.84430  0.86080  1.0000
  O   O153      1.0  0.73410  0.09430  0.61080  1.0000
  O   O154      1.0  0.26590  0.90570  0.61080  1.0000
  O   O155      1.0  0.98410  0.15570  0.86080  1.0000
  O   O156      1.0  0.51590  0.34430  0.86080  1.0000
  O   O157      1.0  0.73410  0.59430  0.11080  1.0000
  O   O158      1.0  0.26590  0.40570  0.11080  1.0000
  O   O159      1.0  0.98410  0.65570  0.36080  1.0000
  O   O160      1.0  0.51590  0.84430  0.36080  1.0000
  O   O161      1.0  0.27200  0.99110  0.10330  1.0000
  O   O162      1.0  0.72800  0.00890  0.10330  1.0000
  O   O163      1.0  0.52200  0.25890  0.35330  1.0000
  O   O164      1.0  0.97800  0.24110  0.35330  1.0000
  O   O165      1.0  0.27200  0.49110  0.60330  1.0000
  O   O166      1.0  0.72800  0.50890  0.60330  1.0000
  O   O167      1.0  0.52200  0.75890  0.85330  1.0000
  O   O168      1.0  0.97800  0.74110  0.85330  1.0000
  O   O169      1.0  0.77200  0.99110  0.60330  1.0000
  O   O170      1.0  0.22800  0.00890  0.60330  1.0000
  O   O171      1.0  0.02200  0.25890  0.85330  1.0000
  O   O172      1.0  0.47800  0.24110  0.85330  1.0000
  O   O173      1.0  0.77200  0.49110  0.10330  1.0000
  O   O174      1.0  0.22800  0.50890  0.10330  1.0000
  O   O175      1.0  0.02200  0.75890  0.35330  1.0000
  O   O176      1.0  0.47800  0.74110  0.35330  1.0000
  O   O177      1.0  0.29280  0.06600  0.04320  1.0000
  O   O178      1.0  0.70720  0.93400  0.04320  1.0000
  O   O179      1.0  0.54280  0.18400  0.29320  1.0000
  O   O180      1.0  0.95720  0.31600  0.29320  1.0000
  O   O181      1.0  0.29280  0.56600  0.54320  1.0000
  O   O182      1.0  0.70720  0.43400  0.54320  1.0000
  O   O183      1.0  0.54280  0.68400  0.79320  1.0000
  O   O184      1.0  0.95720  0.81600  0.79320  1.0000
  O   O185      1.0  0.79280  0.06600  0.54320  1.0000
  O   O186      1.0  0.20720  0.93400  0.54320  1.0000
  O   O187      1.0  0.04280  0.18400  0.79320  1.0000
  O   O188      1.0  0.45720  0.31600  0.79320  1.0000
  O   O189      1.0  0.79280  0.56600  0.04320  1.0000
  O   O190      1.0  0.20720  0.43400  0.04320  1.0000
  O   O191      1.0  0.04280  0.68400  0.29320  1.0000
  O   O192      1.0  0.45720  0.81600  0.29320  1.0000
  C   C65       1.0  0.25160  0.02290  0.12770  1.0000
  C   C66       1.0  0.74840  0.97710  0.12770  1.0000
  C   C67       1.0  0.50160  0.22710  0.37770  1.0000
  C   C68       1.0  0.99840  0.27290  0.37770  1.0000
  C   C69       1.0  0.25160  0.52290  0.62770  1.0000
  C   C70       1.0  0.74840  0.47710  0.62770  1.0000
  C   C71       1.0  0.50160  0.72710  0.87770  1.0000
  C   C72       1.0  0.99840  0.77290  0.87770  1.0000
  C   C73       1.0  0.75160  0.02290  0.62770  1.0000
  C   C74       1.0  0.24840  0.97710  0.62770  1.0000
  C   C75       1.0  0.00160  0.22710  0.87770  1.0000
  C   C76       1.0  0.49840  0.27290  0.87770  1.0000
  C   C77       1.0  0.75160  0.52290  0.12770  1.0000
  C   C78       1.0  0.24840  0.47710  0.12770  1.0000
  C   C79       1.0  0.00160  0.72710  0.37770  1.0000
  C   C80       1.0  0.49840  0.77290  0.37770  1.0000
  C   C81       1.0  0.26160  0.06470  0.08940  1.0000
  C   C82       1.0  0.73840  0.93530  0.08940  1.0000
  C   C83       1.0  0.51160  0.18530  0.33940  1.0000
  C   C84       1.0  0.98840  0.31470  0.33940  1.0000
  C   C85       1.0  0.26160  0.56470  0.58940  1.0000
  C   C86       1.0  0.73840  0.43530  0.58940  1.0000
  C   C87       1.0  0.51160  0.68530  0.83940  1.0000
  C   C88       1.0  0.98840  0.81470  0.83940  1.0000
  C   C89       1.0  0.76160  0.06470  0.58940  1.0000
  C   C90       1.0  0.23840  0.93530  0.58940  1.0000
  C   C91       1.0  0.01160  0.18530  0.83940  1.0000
  C   C92       1.0  0.48840  0.31470  0.83940  1.0000
  C   C93       1.0  0.76160  0.56470  0.08940  1.0000
  C   C94       1.0  0.23840  0.43530  0.08940  1.0000
  C   C95       1.0  0.01160  0.68530  0.33940  1.0000
  C   C96       1.0  0.48840  0.81470  0.33940  1.0000
  O   O193      1.0  0.10150  0.17370  0.14770  1.0000
  O   O194      1.0  0.89850  0.82630  0.14770  1.0000
  O   O195      1.0  0.35150  0.07630  0.39770  1.0000
  O   O196      1.0  0.14850  0.42370  0.39770  1.0000
  O   O197      1.0  0.10150  0.67370  0.64770  1.0000
  O   O198      1.0  0.89850  0.32630  0.64770  1.0000
  O   O199      1.0  0.35150  0.57630  0.89770  1.0000
  O   O200      1.0  0.14850  0.92370  0.89770  1.0000
  O   O201      1.0  0.60150  0.17370  0.64770  1.0000
  O   O202      1.0  0.39850  0.82630  0.64770  1.0000
  O   O203      1.0  0.85150  0.07630  0.89770  1.0000
  O   O204      1.0  0.64850  0.42370  0.89770  1.0000
  O   O205      1.0  0.60150  0.67370  0.14770  1.0000
  O   O206      1.0  0.39850  0.32630  0.14770  1.0000
  O   O207      1.0  0.85150  0.57630  0.39770  1.0000
  O   O208      1.0  0.64850  0.92370  0.39770  1.0000
  O   O209      1.0  0.07480  0.10590  0.07650  1.0000
  O   O210      1.0  0.92520  0.89410  0.07650  1.0000
  O   O211      1.0  0.32480  0.14410  0.32650  1.0000
  O   O212      1.0  0.17520  0.35590  0.32650  1.0000
  O   O213      1.0  0.07480  0.60590  0.57650  1.0000
  O   O214      1.0  0.92520  0.39410  0.57650  1.0000
  O   O215      1.0  0.32480  0.64410  0.82650  1.0000
  O   O216      1.0  0.17520  0.85590  0.82650  1.0000
  O   O217      1.0  0.57480  0.10590  0.57650  1.0000
  O   O218      1.0  0.42520  0.89410  0.57650  1.0000
  O   O219      1.0  0.82480  0.14410  0.82650  1.0000
  O   O220      1.0  0.67520  0.35590  0.82650  1.0000
  O   O221      1.0  0.57480  0.60590  0.07650  1.0000
  O   O222      1.0  0.42520  0.39410  0.07650  1.0000
  O   O223      1.0  0.82480  0.64410  0.32650  1.0000
  O   O224      1.0  0.67520  0.85590  0.32650  1.0000
  O   O225      1.0  0.16260  0.13890  0.19890  1.0000
  O   O226      1.0  0.83740  0.86110  0.19890  1.0000
  O   O227      1.0  0.41260  0.11110  0.44890  1.0000
  O   O228      1.0  0.08740  0.38890  0.44890  1.0000
  O   O229      1.0  0.16260  0.63890  0.69890  1.0000
  O   O230      1.0  0.83740  0.36110  0.69890  1.0000
  O   O231      1.0  0.41260  0.61110  0.94890  1.0000
  O   O232      1.0  0.08740  0.88890  0.94890  1.0000
  O   O233      1.0  0.66260  0.13890  0.69890  1.0000
  O   O234      1.0  0.33740  0.86110  0.69890  1.0000
  O   O235      1.0  0.91260  0.11110  0.94890  1.0000
  O   O236      1.0  0.58740  0.38890  0.94890  1.0000
  O   O237      1.0  0.66260  0.63890  0.19890  1.0000
  O   O238      1.0  0.33740  0.36110  0.19890  1.0000
  O   O239      1.0  0.91260  0.61110  0.44890  1.0000
  O   O240      1.0  0.58740  0.88890  0.44890  1.0000
  O   O241      1.0  0.13510  0.07110  0.12970  1.0000
  O   O242      1.0  0.86490  0.92890  0.12970  1.0000
  O   O243      1.0  0.38510  0.17890  0.37970  1.0000
  O   O244      1.0  0.11490  0.32110  0.37970  1.0000
  O   O245      1.0  0.13510  0.57110  0.62970  1.0000
  O   O246      1.0  0.86490  0.42890  0.62970  1.0000
  O   O247      1.0  0.38510  0.67890  0.87970  1.0000
  O   O248      1.0  0.11490  0.82110  0.87970  1.0000
  O   O249      1.0  0.63510  0.07110  0.62970  1.0000
  O   O250      1.0  0.36490  0.92890  0.62970  1.0000
  O   O251      1.0  0.88510  0.17890  0.87970  1.0000
  O   O252      1.0  0.61490  0.32110  0.87970  1.0000
  O   O253      1.0  0.63510  0.57110  0.12970  1.0000
  O   O254      1.0  0.36490  0.42890  0.12970  1.0000
  O   O255      1.0  0.88510  0.67890  0.37970  1.0000
  O   O256      1.0  0.61490  0.82110  0.37970  1.0000
  C   C97       1.0  0.12570  0.14210  0.15880  1.0000
  C   C98       1.0  0.87430  0.85790  0.15880  1.0000
  C   C99       1.0  0.37570  0.10790  0.40880  1.0000
  C   C100      1.0  0.12430  0.39210  0.40880  1.0000
  C   C101      1.0  0.12570  0.64210  0.65880  1.0000
  C   C102      1.0  0.87430  0.35790  0.65880  1.0000
  C   C103      1.0  0.37570  0.60790  0.90880  1.0000
  C   C104      1.0  0.12430  0.89210  0.90880  1.0000
  C   C105      1.0  0.62570  0.14210  0.65880  1.0000
  C   C106      1.0  0.37430  0.85790  0.65880  1.0000
  C   C107      1.0  0.87570  0.10790  0.90880  1.0000
  C   C108      1.0  0.62430  0.39210  0.90880  1.0000
  C   C109      1.0  0.62570  0.64210  0.15880  1.0000
  C   C110      1.0  0.37430  0.35790  0.15880  1.0000
  C   C111      1.0  0.87570  0.60790  0.40880  1.0000
  C   C112      1.0  0.62430  0.89210  0.40880  1.0000
  C   C113      1.0  0.11110  0.10280  0.11870  1.0000
  C   C114      1.0  0.88890  0.89720  0.11870  1.0000
  C   C115      1.0  0.36110  0.14720  0.36870  1.0000
  C   C116      1.0  0.13890  0.35280  0.36870  1.0000
  C   C117      1.0  0.11110  0.60280  0.61870  1.0000
  C   C118      1.0  0.88890  0.39720  0.61870  1.0000
  C   C119      1.0  0.36110  0.64720  0.86870  1.0000
  C   C120      1.0  0.13890  0.85280  0.86870  1.0000
  C   C121      1.0  0.61110  0.10280  0.61870  1.0000
  C   C122      1.0  0.38890  0.89720  0.61870  1.0000
  C   C123      1.0  0.86110  0.14720  0.86870  1.0000
  C   C124      1.0  0.63890  0.35280  0.86870  1.0000
  C   C125      1.0  0.61110  0.60280  0.11870  1.0000
  C   C126      1.0  0.38890  0.39720  0.11870  1.0000
  C   C127      1.0  0.86110  0.64720  0.36870  1.0000
  C   C128      1.0  0.63890  0.85280  0.36870  1.0000
  O   O257      1.0  0.22800  0.97270  0.84520  1.0000
  O   O258      1.0  0.77200  0.02730  0.84520  1.0000
  O   O259      1.0  0.47800  0.27730  0.09520  1.0000
  O   O260      1.0  0.02200  0.22270  0.09520  1.0000
  O   O261      1.0  0.22800  0.47270  0.34520  1.0000
  O   O262      1.0  0.77200  0.52730  0.34520  1.0000
  O   O263      1.0  0.47800  0.77730  0.59520  1.0000
  O   O264      1.0  0.02200  0.72270  0.59520  1.0000
  O   O265      1.0  0.72800  0.97270  0.34520  1.0000
  O   O266      1.0  0.27200  0.02730  0.34520  1.0000
  O   O267      1.0  0.97800  0.27730  0.59520  1.0000
  O   O268      1.0  0.52200  0.22270  0.59520  1.0000
  O   O269      1.0  0.72800  0.47270  0.84520  1.0000
  O   O270      1.0  0.27200  0.52730  0.84520  1.0000
  O   O271      1.0  0.97800  0.77730  0.09520  1.0000
  O   O272      1.0  0.52200  0.72270  0.09520  1.0000
  O   O273      1.0  0.24730  0.90280  0.91210  1.0000
  O   O274      1.0  0.75270  0.09720  0.91210  1.0000
  O   O275      1.0  0.49730  0.34720  0.16210  1.0000
  O   O276      1.0  0.00270  0.15280  0.16210  1.0000
  O   O277      1.0  0.24730  0.40280  0.41210  1.0000
  O   O278      1.0  0.75270  0.59720  0.41210  1.0000
  O   O279      1.0  0.49730  0.84720  0.66210  1.0000
  O   O280      1.0  0.00270  0.65280  0.66210  1.0000
  O   O281      1.0  0.74730  0.90280  0.41210  1.0000
  O   O282      1.0  0.25270  0.09720  0.41210  1.0000
  O   O283      1.0  0.99730  0.34720  0.66210  1.0000
  O   O284      1.0  0.50270  0.15280  0.66210  1.0000
  O   O285      1.0  0.74730  0.40280  0.91210  1.0000
  O   O286      1.0  0.25270  0.59720  0.91210  1.0000
  O   O287      1.0  0.99730  0.84720  0.16210  1.0000
  O   O288      1.0  0.50270  0.65280  0.16210  1.0000
  O   O289      1.0  0.27520  0.00730  0.92460  1.0000
  O   O290      1.0  0.72480  0.99270  0.92460  1.0000
  O   O291      1.0  0.52520  0.24270  0.17460  1.0000
  O   O292      1.0  0.97480  0.25730  0.17460  1.0000
  O   O293      1.0  0.27520  0.50730  0.42460  1.0000
  O   O294      1.0  0.72480  0.49270  0.42460  1.0000
  O   O295      1.0  0.52520  0.74270  0.67460  1.0000
  O   O296      1.0  0.97480  0.75730  0.67460  1.0000
  O   O297      1.0  0.77520  0.00730  0.42460  1.0000
  O   O298      1.0  0.22480  0.99270  0.42460  1.0000
  O   O299      1.0  0.02520  0.24270  0.67460  1.0000
  O   O300      1.0  0.47480  0.25730  0.67460  1.0000
  O   O301      1.0  0.77520  0.50730  0.92460  1.0000
  O   O302      1.0  0.22480  0.49270  0.92460  1.0000
  O   O303      1.0  0.02520  0.74270  0.17460  1.0000
  O   O304      1.0  0.47480  0.75730  0.17460  1.0000
  O   O305      1.0  0.30140  0.93440  0.98480  1.0000
  O   O306      1.0  0.69860  0.06560  0.98480  1.0000
  O   O307      1.0  0.55140  0.31560  0.23480  1.0000
  O   O308      1.0  0.94860  0.18440  0.23480  1.0000
  O   O309      1.0  0.30140  0.43440  0.48480  1.0000
  O   O310      1.0  0.69860  0.56560  0.48480  1.0000
  O   O311      1.0  0.55140  0.81560  0.73480  1.0000
  O   O312      1.0  0.94860  0.68440  0.73480  1.0000
  O   O313      1.0  0.80140  0.93440  0.48480  1.0000
  O   O314      1.0  0.19860  0.06560  0.48480  1.0000
  O   O315      1.0  0.05140  0.31560  0.73480  1.0000
  O   O316      1.0  0.44860  0.18440  0.73480  1.0000
  O   O317      1.0  0.80140  0.43440  0.98480  1.0000
  O   O318      1.0  0.19860  0.56560  0.98480  1.0000
  O   O319      1.0  0.05140  0.81560  0.23480  1.0000
  O   O320      1.0  0.44860  0.68440  0.23480  1.0000
  C   C129      1.0  0.25670  0.97490  0.90060  1.0000
  C   C130      1.0  0.74330  0.02510  0.90060  1.0000
  C   C131      1.0  0.50670  0.27510  0.15060  1.0000
  C   C132      1.0  0.99330  0.22490  0.15060  1.0000
  C   C133      1.0  0.25670  0.47490  0.40060  1.0000
  C   C134      1.0  0.74330  0.52510  0.40060  1.0000
  C   C135      1.0  0.50670  0.77510  0.65060  1.0000
  C   C136      1.0  0.99330  0.72490  0.65060  1.0000
  C   C137      1.0  0.75670  0.97490  0.40060  1.0000
  C   C138      1.0  0.24330  0.02510  0.40060  1.0000
  C   C139      1.0  0.00670  0.27510  0.65060  1.0000
  C   C140      1.0  0.49330  0.22490  0.65060  1.0000
  C   C141      1.0  0.75670  0.47490  0.90060  1.0000
  C   C142      1.0  0.24330  0.52510  0.90060  1.0000
  C   C143      1.0  0.00670  0.77510  0.15060  1.0000
  C   C144      1.0  0.49330  0.72490  0.15060  1.0000
  C   C145      1.0  0.27020  0.93420  0.93510  1.0000
  C   C146      1.0  0.72980  0.06580  0.93510  1.0000
  C   C147      1.0  0.52020  0.31580  0.18510  1.0000
  C   C148      1.0  0.97980  0.18420  0.18510  1.0000
  C   C149      1.0  0.27020  0.43420  0.43510  1.0000
  C   C150      1.0  0.72980  0.56580  0.43510  1.0000
  C   C151      1.0  0.52020  0.81580  0.68510  1.0000
  C   C152      1.0  0.97980  0.68420  0.68510  1.0000
  C   C153      1.0  0.77020  0.93420  0.43510  1.0000
  C   C154      1.0  0.22980  0.06580  0.43510  1.0000
  C   C155      1.0  0.02020  0.31580  0.68510  1.0000
  C   C156      1.0  0.47980  0.18420  0.68510  1.0000
  C   C157      1.0  0.77020  0.43420  0.93510  1.0000
  C   C158      1.0  0.22980  0.56580  0.93510  1.0000
  C   C159      1.0  0.02020  0.81580  0.18510  1.0000
  C   C160      1.0  0.47980  0.68420  0.18510  1.0000
  O   O321      1.0  0.24420  0.10580  0.26120  1.0000
  O   O322      1.0  0.75580  0.89420  0.26120  1.0000
  O   O323      1.0  0.49420  0.14420  0.51120  1.0000
  O   O324      1.0  0.00580  0.35580  0.51120  1.0000
  O   O325      1.0  0.24420  0.60580  0.76120  1.0000
  O   O326      1.0  0.75580  0.39420  0.76120  1.0000
  O   O327      1.0  0.49420  0.64420  0.01120  1.0000
  O   O328      1.0  0.00580  0.85580  0.01120  1.0000
  O   O329      1.0  0.74420  0.10580  0.76120  1.0000
  O   O330      1.0  0.25580  0.89420  0.76120  1.0000
  O   O331      1.0  0.99420  0.14420  0.01120  1.0000
  O   O332      1.0  0.50580  0.35580  0.01120  1.0000
  O   O333      1.0  0.74420  0.60580  0.26120  1.0000
  O   O334      1.0  0.25580  0.39420  0.26120  1.0000
  O   O335      1.0  0.99420  0.64420  0.51120  1.0000
  O   O336      1.0  0.50580  0.85580  0.51120  1.0000
