data_image0
_chemical_formula_structural       Be16O8H8O8H8O48C64H16C8H8
_chemical_formula_sum              "Be16 O64 H40 C72"
_cell_length_a       18.9009
_cell_length_b       18.9009
_cell_length_c       10.257
_cell_angle_alpha    90
_cell_angle_beta     90
_cell_angle_gamma    90

_space_group_name_H-M_alt    "P 1"
_space_group_IT_number       1

loop_
  _space_group_symop_operation_xyz
  'x, y, z'

loop_
  _atom_site_type_symbol
  _atom_site_label
  _atom_site_symmetry_multiplicity
  _atom_site_fract_x
  _atom_site_fract_y
  _atom_site_fract_z
  _atom_site_occupancy
  Be  Be1       1.0  0.81750  0.07060  0.13120  1.0000
  Be  Be2       1.0  0.18250  0.92940  0.13120  1.0000
  Be  Be3       1.0  0.42940  0.31750  0.63120  1.0000
  Be  Be4       1.0  0.57060  0.68250  0.63120  1.0000
  Be  Be5       1.0  0.68250  0.57060  0.36880  1.0000
  Be  Be6       1.0  0.31750  0.42940  0.36880  1.0000
  Be  Be7       1.0  0.07060  0.81750  0.86880  1.0000
  Be  Be8       1.0  0.92940  0.18250  0.86880  1.0000
  Be  Be9       1.0  0.18250  0.92940  0.86880  1.0000
  Be  Be10      1.0  0.81750  0.07060  0.86880  1.0000
  Be  Be11      1.0  0.57060  0.68250  0.36880  1.0000
  Be  Be12      1.0  0.42940  0.31750  0.36880  1.0000
  Be  Be13      1.0  0.31750  0.42940  0.63120  1.0000
  Be  Be14      1.0  0.68250  0.57060  0.63120  1.0000
  Be  Be15      1.0  0.92940  0.18250  0.13120  1.0000
  Be  Be16      1.0  0.07060  0.81750  0.13120  1.0000
  O   O1        1.0  0.83140  0.02925  0.00000  1.0000
  O   O2        1.0  0.16860  0.97075  0.00000  1.0000
  O   O3        1.0  0.47075  0.33140  0.50000  1.0000
  O   O4        1.0  0.52925  0.66860  0.50000  1.0000
  O   O5        1.0  0.66860  0.52925  0.50000  1.0000
  O   O6        1.0  0.33140  0.47075  0.50000  1.0000
  O   O7        1.0  0.02925  0.83140  0.00000  1.0000
  O   O8        1.0  0.97075  0.16860  0.00000  1.0000
  H   H1        1.0  0.84710  0.98260  0.00000  1.0000
  H   H2        1.0  0.15290  0.01740  0.00000  1.0000
  H   H3        1.0  0.51740  0.34710  0.50000  1.0000
  H   H4        1.0  0.48260  0.65290  0.50000  1.0000
  H   H5        1.0  0.65290  0.48260  0.50000  1.0000
  H   H6        1.0  0.34710  0.51740  0.50000  1.0000
  H   H7        1.0  0.98260  0.84710  0.00000  1.0000
  H   H8        1.0  0.01740  0.15290  0.00000  1.0000
  O   O9        1.0  0.88325  0.11675  0.17260  1.0000
  O   O10       1.0  0.11675  0.88325  0.17260  1.0000
  O   O11       1.0  0.38325  0.38325  0.67260  1.0000
  O   O12       1.0  0.61675  0.61675  0.67260  1.0000
  O   O13       1.0  0.61675  0.61675  0.32740  1.0000
  O   O14       1.0  0.38325  0.38325  0.32740  1.0000
  O   O15       1.0  0.11675  0.88325  0.82740  1.0000
  O   O16       1.0  0.88325  0.11675  0.82740  1.0000
  H   H9        1.0  0.90150  0.09850  0.24980  1.0000
  H   H10       1.0  0.09850  0.90150  0.24980  1.0000
  H   H11       1.0  0.40150  0.40150  0.74980  1.0000
  H   H12       1.0  0.59850  0.59850  0.74980  1.0000
  H   H13       1.0  0.59850  0.59850  0.25020  1.0000
  H   H14       1.0  0.40150  0.40150  0.25020  1.0000
  H   H15       1.0  0.09850  0.90150  0.75020  1.0000
  H   H16       1.0  0.90150  0.09850  0.75020  1.0000
  O   O17       1.0  0.79977  0.02288  0.25820  1.0000
  O   O18       1.0  0.20023  0.97712  0.25820  1.0000
  O   O19       1.0  0.47712  0.29977  0.75820  1.0000
  O   O20       1.0  0.52288  0.70023  0.75820  1.0000
  O   O21       1.0  0.70023  0.52288  0.24180  1.0000
  O   O22       1.0  0.29977  0.47712  0.24180  1.0000
  O   O23       1.0  0.02288  0.79977  0.74180  1.0000
  O   O24       1.0  0.97712  0.20023  0.74180  1.0000
  O   O25       1.0  0.20023  0.97712  0.74180  1.0000
  O   O26       1.0  0.79977  0.02288  0.74180  1.0000
  O   O27       1.0  0.52288  0.70023  0.24180  1.0000
  O   O28       1.0  0.47712  0.29977  0.24180  1.0000
  O   O29       1.0  0.29977  0.47712  0.75820  1.0000
  O   O30       1.0  0.70023  0.52288  0.75820  1.0000
  O   O31       1.0  0.97712  0.20023  0.25820  1.0000
  O   O32       1.0  0.02288  0.79977  0.25820  1.0000
  O   O33       1.0  0.73770  0.94240  0.15490  1.0000
  O   O34       1.0  0.26230  0.05760  0.15490  1.0000
  O   O35       1.0  0.55760  0.23770  0.65490  1.0000
  O   O36       1.0  0.44240  0.76230  0.65490  1.0000
  O   O37       1.0  0.76230  0.44240  0.34510  1.0000
  O   O38       1.0  0.23770  0.55760  0.34510  1.0000
  O   O39       1.0  0.94240  0.73770  0.84510  1.0000
  O   O40       1.0  0.05760  0.26230  0.84510  1.0000
  O   O41       1.0  0.26230  0.05760  0.84510  1.0000
  O   O42       1.0  0.73770  0.94240  0.84510  1.0000
  O   O43       1.0  0.44240  0.76230  0.34510  1.0000
  O   O44       1.0  0.55760  0.23770  0.34510  1.0000
  O   O45       1.0  0.23770  0.55760  0.65490  1.0000
  O   O46       1.0  0.76230  0.44240  0.65490  1.0000
  O   O47       1.0  0.05760  0.26230  0.15490  1.0000
  O   O48       1.0  0.94240  0.73770  0.15490  1.0000
  O   O49       1.0  0.62565  0.74818  0.39020  1.0000
  O   O50       1.0  0.37435  0.25182  0.39020  1.0000
  O   O51       1.0  0.75182  0.12565  0.89020  1.0000
  O   O52       1.0  0.24818  0.87435  0.89020  1.0000
  O   O53       1.0  0.87435  0.24818  0.10980  1.0000
  O   O54       1.0  0.12565  0.75182  0.10980  1.0000
  O   O55       1.0  0.74818  0.62565  0.60980  1.0000
  O   O56       1.0  0.25182  0.37435  0.60980  1.0000
  O   O57       1.0  0.37435  0.25182  0.60980  1.0000
  O   O58       1.0  0.62565  0.74818  0.60980  1.0000
  O   O59       1.0  0.24818  0.87435  0.10980  1.0000
  O   O60       1.0  0.75182  0.12565  0.10980  1.0000
  O   O61       1.0  0.12565  0.75182  0.89020  1.0000
  O   O62       1.0  0.87435  0.24818  0.89020  1.0000
  O   O63       1.0  0.25182  0.37435  0.39020  1.0000
  O   O64       1.0  0.74818  0.62565  0.39020  1.0000
  C   C1        1.0  0.75970  0.96810  0.25520  1.0000
  C   C2        1.0  0.24030  0.03190  0.25520  1.0000
  C   C3        1.0  0.53190  0.25970  0.75520  1.0000
  C   C4        1.0  0.46810  0.74030  0.75520  1.0000
  C   C5        1.0  0.74030  0.46810  0.24480  1.0000
  C   C6        1.0  0.25970  0.53190  0.24480  1.0000
  C   C7        1.0  0.96810  0.75970  0.74480  1.0000
  C   C8        1.0  0.03190  0.24030  0.74480  1.0000
  C   C9        1.0  0.24030  0.03190  0.74480  1.0000
  C   C10       1.0  0.75970  0.96810  0.74480  1.0000
  C   C11       1.0  0.46810  0.74030  0.24480  1.0000
  C   C12       1.0  0.53190  0.25970  0.24480  1.0000
  C   C13       1.0  0.25970  0.53190  0.75520  1.0000
  C   C14       1.0  0.74030  0.46810  0.75520  1.0000
  C   C15       1.0  0.03190  0.24030  0.25520  1.0000
  C   C16       1.0  0.96810  0.75970  0.25520  1.0000
  C   C17       1.0  0.64280  0.77570  0.50000  1.0000
  C   C18       1.0  0.35720  0.22430  0.50000  1.0000
  C   C19       1.0  0.72430  0.14280  0.00000  1.0000
  C   C20       1.0  0.27570  0.85720  0.00000  1.0000
  C   C21       1.0  0.85720  0.27570  0.00000  1.0000
  C   C22       1.0  0.14280  0.72430  0.00000  1.0000
  C   C23       1.0  0.77570  0.64280  0.50000  1.0000
  C   C24       1.0  0.22430  0.35720  0.50000  1.0000
  C   C25       1.0  0.68490  0.84070  0.50000  1.0000
  C   C26       1.0  0.31510  0.15930  0.50000  1.0000
  C   C27       1.0  0.65930  0.18490  0.00000  1.0000
  C   C28       1.0  0.34070  0.81510  0.00000  1.0000
  C   C29       1.0  0.81510  0.34070  0.00000  1.0000
  C   C30       1.0  0.18490  0.65930  0.00000  1.0000
  C   C31       1.0  0.84070  0.68490  0.50000  1.0000
  C   C32       1.0  0.15930  0.31510  0.50000  1.0000
  C   C33       1.0  0.74280  0.93410  0.38190  1.0000
  C   C34       1.0  0.25720  0.06590  0.38190  1.0000
  C   C35       1.0  0.56590  0.24280  0.88190  1.0000
  C   C36       1.0  0.43410  0.75720  0.88190  1.0000
  C   C37       1.0  0.75720  0.43410  0.11810  1.0000
  C   C38       1.0  0.24280  0.56590  0.11810  1.0000
  C   C39       1.0  0.93410  0.74280  0.61810  1.0000
  C   C40       1.0  0.06590  0.25720  0.61810  1.0000
  C   C41       1.0  0.25720  0.06590  0.61810  1.0000
  C   C42       1.0  0.74280  0.93410  0.61810  1.0000
  C   C43       1.0  0.43410  0.75720  0.11810  1.0000
  C   C44       1.0  0.56590  0.24280  0.11810  1.0000
  C   C45       1.0  0.24280  0.56590  0.88190  1.0000
  C   C46       1.0  0.75720  0.43410  0.88190  1.0000
  C   C47       1.0  0.06590  0.25720  0.38190  1.0000
  C   C48       1.0  0.93410  0.74280  0.38190  1.0000
  C   C49       1.0  0.70390  0.87290  0.38400  1.0000
  C   C50       1.0  0.29610  0.12710  0.38400  1.0000
  C   C51       1.0  0.62710  0.20390  0.88400  1.0000
  C   C52       1.0  0.37290  0.79610  0.88400  1.0000
  C   C53       1.0  0.79610  0.37290  0.11600  1.0000
  C   C54       1.0  0.20390  0.62710  0.11600  1.0000
  C   C55       1.0  0.87290  0.70390  0.61600  1.0000
  C   C56       1.0  0.12710  0.29610  0.61600  1.0000
  C   C57       1.0  0.29610  0.12710  0.61600  1.0000
  C   C58       1.0  0.70390  0.87290  0.61600  1.0000
  C   C59       1.0  0.37290  0.79610  0.11600  1.0000
  C   C60       1.0  0.62710  0.20390  0.11600  1.0000
  C   C61       1.0  0.20390  0.62710  0.88400  1.0000
  C   C62       1.0  0.79610  0.37290  0.88400  1.0000
  C   C63       1.0  0.12710  0.29610  0.38400  1.0000
  C   C64       1.0  0.87290  0.70390  0.38400  1.0000
  H   H17       1.0  0.69000  0.85260  0.30550  1.0000
  H   H18       1.0  0.31000  0.14740  0.30550  1.0000
  H   H19       1.0  0.64740  0.19000  0.80550  1.0000
  H   H20       1.0  0.35260  0.81000  0.80550  1.0000
  H   H21       1.0  0.81000  0.35260  0.19450  1.0000
  H   H22       1.0  0.19000  0.64740  0.19450  1.0000
  H   H23       1.0  0.85260  0.69000  0.69450  1.0000
  H   H24       1.0  0.14740  0.31000  0.69450  1.0000
  H   H25       1.0  0.31000  0.14740  0.69450  1.0000
  H   H26       1.0  0.69000  0.85260  0.69450  1.0000
  H   H27       1.0  0.35260  0.81000  0.19450  1.0000
  H   H28       1.0  0.64740  0.19000  0.19450  1.0000
  H   H29       1.0  0.19000  0.64740  0.80550  1.0000
  H   H30       1.0  0.81000  0.35260  0.80550  1.0000
  H   H31       1.0  0.14740  0.31000  0.30550  1.0000
  H   H32       1.0  0.85260  0.69000  0.30550  1.0000
  C   C65       1.0  0.76140  0.96500  0.50000  1.0000
  C   C66       1.0  0.23860  0.03500  0.50000  1.0000
  C   C67       1.0  0.53500  0.26140  0.00000  1.0000
  C   C68       1.0  0.46500  0.73860  0.00000  1.0000
  C   C69       1.0  0.73860  0.46500  0.00000  1.0000
  C   C70       1.0  0.26140  0.53500  0.00000  1.0000
  C   C71       1.0  0.96500  0.76140  0.50000  1.0000
  C   C72       1.0  0.03500  0.23860  0.50000  1.0000
  H   H33       1.0  0.78680  0.00720  0.50000  1.0000
  H   H34       1.0  0.21320  0.99280  0.50000  1.0000
  H   H35       1.0  0.49280  0.28680  0.00000  1.0000
  H   H36       1.0  0.50720  0.71320  0.00000  1.0000
  H   H37       1.0  0.71320  0.50720  0.00000  1.0000
  H   H38       1.0  0.28680  0.49280  0.00000  1.0000
  H   H39       1.0  0.00720  0.78680  0.50000  1.0000
  H   H40       1.0  0.99280  0.21320  0.50000  1.0000
