data_image0
_chemical_formula_structural       Cd16O16H4O8H4O20H4O12H4O16H4O16H4O8N72C28H4C4H4C4H4C4H4C80H4C4H4C4H4C4H4C8H4C4H4C4H4C4H4C28H4C4H4C4H4C4H4C16H4C4H4C4H4C4H4C8H4C4H4C4H4C4H4
_chemical_formula_sum              "Cd16 O96 H120 N72 C240"
_cell_length_a       18.893
_cell_length_b       23.639
_cell_length_c       21.018
_cell_angle_alpha    90
_cell_angle_beta     93.295
_cell_angle_gamma    90

_space_group_name_H-M_alt    "P 1"
_space_group_IT_number       1

loop_
  _space_group_symop_operation_xyz
  'x, y, z'

loop_
  _atom_site_type_symbol
  _atom_site_label
  _atom_site_symmetry_multiplicity
  _atom_site_fract_x
  _atom_site_fract_y
  _atom_site_fract_z
  _atom_site_occupancy
  Cd  Cd1       1.0  0.07464  0.46076  0.31431  1.0000
  Cd  Cd2       1.0  0.92536  0.96076  0.18569  1.0000
  Cd  Cd3       1.0  0.92536  0.53924  0.68569  1.0000
  Cd  Cd4       1.0  0.07464  0.03924  0.81431  1.0000
  Cd  Cd5       1.0  0.89256  0.69830  0.29210  1.0000
  Cd  Cd6       1.0  0.10744  0.19830  0.20790  1.0000
  Cd  Cd7       1.0  0.10744  0.30170  0.70790  1.0000
  Cd  Cd8       1.0  0.89256  0.80170  0.79210  1.0000
  Cd  Cd9       1.0  0.57423  0.78239  0.17811  1.0000
  Cd  Cd10      1.0  0.42577  0.28239  0.32189  1.0000
  Cd  Cd11      1.0  0.42577  0.21761  0.82189  1.0000
  Cd  Cd12      1.0  0.57423  0.71761  0.67811  1.0000
  Cd  Cd13      1.0  0.39039  0.55331  0.23330  1.0000
  Cd  Cd14      1.0  0.60961  0.05331  0.26670  1.0000
  Cd  Cd15      1.0  0.60961  0.44669  0.76670  1.0000
  Cd  Cd16      1.0  0.39039  0.94669  0.73330  1.0000
  O   O1        1.0  0.01370  0.47210  0.16980  1.0000
  O   O2        1.0  0.98630  0.97210  0.33020  1.0000
  O   O3        1.0  0.98630  0.52790  0.83020  1.0000
  O   O4        1.0  0.01370  0.02790  0.66980  1.0000
  O   O5        1.0  0.99130  0.41220  0.08890  1.0000
  O   O6        1.0  0.00870  0.91220  0.41110  1.0000
  O   O7        1.0  0.00870  0.58780  0.91110  1.0000
  O   O8        1.0  0.99130  0.08780  0.58890  1.0000
  O   O9        1.0  0.03930  0.23310  0.11650  1.0000
  O   O10       1.0  0.96070  0.73310  0.38350  1.0000
  O   O11       1.0  0.96070  0.76690  0.88350  1.0000
  O   O12       1.0  0.03930  0.26690  0.61650  1.0000
  O   O13       1.0  0.00540  0.31140  0.06600  1.0000
  O   O14       1.0  0.99460  0.81140  0.43400  1.0000
  O   O15       1.0  0.99460  0.68860  0.93400  1.0000
  O   O16       1.0  0.00540  0.18860  0.56600  1.0000
  H   H1        1.0  0.00580  0.34643  0.07271  1.0000
  H   H2        1.0  0.99420  0.84643  0.42729  1.0000
  H   H3        1.0  0.99420  0.65357  0.92729  1.0000
  H   H4        1.0  0.00580  0.15357  0.57271  1.0000
  O   O17       1.0  0.80340  0.62820  0.38580  1.0000
  O   O18       1.0  0.19660  0.12820  0.11420  1.0000
  O   O19       1.0  0.19660  0.37180  0.61420  1.0000
  O   O20       1.0  0.80340  0.87180  0.88580  1.0000
  O   O21       1.0  0.80840  0.54310  0.42860  1.0000
  O   O22       1.0  0.19160  0.04310  0.07140  1.0000
  O   O23       1.0  0.19160  0.45690  0.57140  1.0000
  O   O24       1.0  0.80840  0.95690  0.92860  1.0000
  H   H5        1.0  0.82490  0.51153  0.41867  1.0000
  H   H6        1.0  0.17510  0.01153  0.08133  1.0000
  H   H7        1.0  0.17510  0.48847  0.58133  1.0000
  H   H8        1.0  0.82490  0.98847  0.91867  1.0000
  O   O25       1.0  0.97600  0.42670  0.36680  1.0000
  O   O26       1.0  0.02400  0.92670  0.13320  1.0000
  O   O27       1.0  0.02400  0.57330  0.63320  1.0000
  O   O28       1.0  0.97600  0.07330  0.86680  1.0000
  O   O29       1.0  0.88120  0.45510  0.41580  1.0000
  O   O30       1.0  0.11880  0.95510  0.08420  1.0000
  O   O31       1.0  0.11880  0.54490  0.58420  1.0000
  O   O32       1.0  0.88120  0.04490  0.91580  1.0000
  O   O33       1.0  0.60210  0.72730  0.08760  1.0000
  O   O34       1.0  0.39790  0.22730  0.41240  1.0000
  O   O35       1.0  0.39790  0.27270  0.91240  1.0000
  O   O36       1.0  0.60210  0.77270  0.58760  1.0000
  O   O37       1.0  0.28100  0.62350  0.13760  1.0000
  O   O38       1.0  0.71900  0.12350  0.36240  1.0000
  O   O39       1.0  0.71900  0.37650  0.86240  1.0000
  O   O40       1.0  0.28100  0.87650  0.63760  1.0000
  O   O41       1.0  0.28910  0.70140  0.07920  1.0000
  O   O42       1.0  0.71090  0.20140  0.42080  1.0000
  O   O43       1.0  0.71090  0.29860  0.92080  1.0000
  O   O44       1.0  0.28910  0.79860  0.57920  1.0000
  H   H9        1.0  0.31522  0.73023  0.07945  1.0000
  H   H10       1.0  0.68478  0.23023  0.42055  1.0000
  H   H11       1.0  0.68478  0.26977  0.92055  1.0000
  H   H12       1.0  0.31522  0.76977  0.57945  1.0000
  O   O45       1.0  0.47930  0.80610  0.10740  1.0000
  O   O46       1.0  0.52070  0.30610  0.39260  1.0000
  O   O47       1.0  0.52070  0.19390  0.89260  1.0000
  O   O48       1.0  0.47930  0.69390  0.60740  1.0000
  O   O49       1.0  0.37970  0.77390  0.06030  1.0000
  O   O50       1.0  0.62030  0.27390  0.43970  1.0000
  O   O51       1.0  0.62030  0.22610  0.93970  1.0000
  O   O52       1.0  0.37970  0.72610  0.56030  1.0000
  O   O53       1.0  0.46790  0.84640  0.37790  1.0000
  O   O54       1.0  0.53210  0.34640  0.12210  1.0000
  O   O55       1.0  0.53210  0.15360  0.62210  1.0000
  O   O56       1.0  0.46790  0.65360  0.87790  1.0000
  H   H13       1.0  0.46312  0.88169  0.37755  1.0000
  H   H14       1.0  0.53688  0.38169  0.12245  1.0000
  H   H15       1.0  0.53688  0.11831  0.62245  1.0000
  H   H16       1.0  0.46312  0.61831  0.87755  1.0000
  O   O57       1.0  0.10990  0.50600  0.41130  1.0000
  O   O58       1.0  0.89010  0.00600  0.08870  1.0000
  O   O59       1.0  0.89010  0.49400  0.58870  1.0000
  O   O60       1.0  0.10990  0.99400  0.91130  1.0000
  O   O61       1.0  0.50690  0.78250  0.31160  1.0000
  O   O62       1.0  0.49310  0.28250  0.18840  1.0000
  O   O63       1.0  0.49310  0.21750  0.68840  1.0000
  O   O64       1.0  0.50690  0.71750  0.81160  1.0000
  O   O65       1.0  0.18780  0.56370  0.45900  1.0000
  O   O66       1.0  0.81220  0.06370  0.04100  1.0000
  O   O67       1.0  0.81220  0.43630  0.54100  1.0000
  O   O68       1.0  0.18780  0.93630  0.95900  1.0000
  O   O69       1.0  0.30180  0.60790  0.44010  1.0000
  O   O70       1.0  0.69820  0.10790  0.05990  1.0000
  O   O71       1.0  0.69820  0.39210  0.55990  1.0000
  O   O72       1.0  0.30180  0.89210  0.94010  1.0000
  H   H17       1.0  0.26225  0.59329  0.44626  1.0000
  H   H18       1.0  0.73775  0.09329  0.05374  1.0000
  H   H19       1.0  0.73775  0.40671  0.55374  1.0000
  H   H20       1.0  0.26225  0.90671  0.94626  1.0000
  O   O73       1.0  0.37580  0.61260  0.36160  1.0000
  O   O74       1.0  0.62420  0.11260  0.13840  1.0000
  O   O75       1.0  0.62420  0.38740  0.63840  1.0000
  O   O76       1.0  0.37580  0.88740  0.86160  1.0000
  O   O77       1.0  0.53860  0.02240  0.35020  1.0000
  O   O78       1.0  0.46140  0.52240  0.14980  1.0000
  O   O79       1.0  0.46140  0.97760  0.64980  1.0000
  O   O80       1.0  0.53860  0.47760  0.85020  1.0000
  O   O81       1.0  0.48310  0.95020  0.39320  1.0000
  O   O82       1.0  0.51690  0.45020  0.10680  1.0000
  O   O83       1.0  0.51690  0.04980  0.60680  1.0000
  O   O84       1.0  0.48310  0.54980  0.89320  1.0000
  O   O85       1.0  0.67360  0.66070  0.05450  1.0000
  O   O86       1.0  0.32640  0.16070  0.44550  1.0000
  O   O87       1.0  0.32640  0.33930  0.94550  1.0000
  O   O88       1.0  0.67360  0.83930  0.55450  1.0000
  H   H21       1.0  0.71321  0.64660  0.06574  1.0000
  H   H22       1.0  0.28679  0.14660  0.43426  1.0000
  H   H23       1.0  0.28679  0.35340  0.93426  1.0000
  H   H24       1.0  0.71321  0.85340  0.56574  1.0000
  O   O89       1.0  0.79240  0.62440  0.08240  1.0000
  O   O90       1.0  0.20760  0.12440  0.41760  1.0000
  O   O91       1.0  0.20760  0.37560  0.91760  1.0000
  O   O92       1.0  0.79240  0.87560  0.58240  1.0000
  O   O93       1.0  0.87360  0.63140  0.16330  1.0000
  O   O94       1.0  0.12640  0.13140  0.33670  1.0000
  O   O95       1.0  0.12640  0.36860  0.83670  1.0000
  O   O96       1.0  0.87360  0.86860  0.66330  1.0000
  N   N1        1.0  0.06160  0.38520  0.24950  1.0000
  N   N2        1.0  0.93840  0.88520  0.25050  1.0000
  N   N3        1.0  0.93840  0.61480  0.75050  1.0000
  N   N4        1.0  0.06160  0.11480  0.74950  1.0000
  N   N5        1.0  0.06960  0.29170  0.23010  1.0000
  N   N6        1.0  0.93040  0.79170  0.26990  1.0000
  N   N7        1.0  0.93040  0.70830  0.76990  1.0000
  N   N8        1.0  0.06960  0.20830  0.73010  1.0000
  N   N9        1.0  0.12210  0.37620  0.37020  1.0000
  N   N10       1.0  0.87790  0.87620  0.12980  1.0000
  N   N11       1.0  0.87790  0.62380  0.62980  1.0000
  N   N12       1.0  0.12210  0.12380  0.87020  1.0000
  N   N13       1.0  0.98970  0.53160  0.30970  1.0000
  N   N14       1.0  0.01030  0.03160  0.19030  1.0000
  N   N15       1.0  0.01030  0.46840  0.69030  1.0000
  N   N16       1.0  0.98970  0.96840  0.80970  1.0000
  N   N17       1.0  0.92240  0.60960  0.31710  1.0000
  N   N18       1.0  0.07760  0.10960  0.18290  1.0000
  N   N19       1.0  0.07760  0.39040  0.68290  1.0000
  N   N20       1.0  0.92240  0.89040  0.81710  1.0000
  N   N21       1.0  0.79080  0.70330  0.22950  1.0000
  N   N22       1.0  0.20920  0.20330  0.27050  1.0000
  N   N23       1.0  0.20920  0.29670  0.77050  1.0000
  N   N24       1.0  0.79080  0.79670  0.72950  1.0000
  N   N25       1.0  0.68380  0.74100  0.20190  1.0000
  N   N26       1.0  0.31620  0.24100  0.29810  1.0000
  N   N27       1.0  0.31620  0.25900  0.79810  1.0000
  N   N28       1.0  0.68380  0.75900  0.70190  1.0000
  N   N29       1.0  0.48940  0.71300  0.18810  1.0000
  N   N30       1.0  0.51060  0.21300  0.31190  1.0000
  N   N31       1.0  0.51060  0.28700  0.81190  1.0000
  N   N32       1.0  0.48940  0.78700  0.68810  1.0000
  N   N33       1.0  0.41320  0.64210  0.19990  1.0000
  N   N34       1.0  0.58680  0.14210  0.30010  1.0000
  N   N35       1.0  0.58680  0.35790  0.80010  1.0000
  N   N36       1.0  0.41320  0.85790  0.69990  1.0000
  N   N37       1.0  0.29050  0.54410  0.28390  1.0000
  N   N38       1.0  0.70950  0.04410  0.21610  1.0000
  N   N39       1.0  0.70950  0.45590  0.71610  1.0000
  N   N40       1.0  0.29050  0.95590  0.78390  1.0000
  N   N41       1.0  0.18610  0.50270  0.30120  1.0000
  N   N42       1.0  0.81390  0.00270  0.19880  1.0000
  N   N43       1.0  0.81390  0.49730  0.69880  1.0000
  N   N44       1.0  0.18610  0.99730  0.80120  1.0000
  N   N45       1.0  0.30000  0.50040  0.16590  1.0000
  N   N46       1.0  0.70000  0.00040  0.33410  1.0000
  N   N47       1.0  0.70000  0.49960  0.83410  1.0000
  N   N48       1.0  0.30000  0.99960  0.66590  1.0000
  N   N49       1.0  0.50330  0.58280  0.28150  1.0000
  N   N50       1.0  0.49670  0.08280  0.21850  1.0000
  N   N51       1.0  0.49670  0.41720  0.71850  1.0000
  N   N52       1.0  0.50330  0.91720  0.78150  1.0000
  N   N53       1.0  0.55800  0.86280  0.23220  1.0000
  N   N54       1.0  0.44200  0.36280  0.26780  1.0000
  N   N55       1.0  0.44200  0.13720  0.76780  1.0000
  N   N56       1.0  0.55800  0.63720  0.73220  1.0000
  N   N57       1.0  0.56810  0.95760  0.24350  1.0000
  N   N58       1.0  0.43190  0.45760  0.25650  1.0000
  N   N59       1.0  0.43190  0.04240  0.75650  1.0000
  N   N60       1.0  0.56810  0.54240  0.74350  1.0000
  N   N61       1.0  0.63020  0.86160  0.12240  1.0000
  N   N62       1.0  0.36980  0.36160  0.37760  1.0000
  N   N63       1.0  0.36980  0.13840  0.87760  1.0000
  N   N64       1.0  0.63020  0.63840  0.62240  1.0000
  N   N65       1.0  0.80070  0.75250  0.34540  1.0000
  N   N66       1.0  0.19930  0.25250  0.15460  1.0000
  N   N67       1.0  0.19930  0.24750  0.65460  1.0000
  N   N68       1.0  0.80070  0.74750  0.84540  1.0000
  N   N69       1.0  0.00580  0.67360  0.24370  1.0000
  N   N70       1.0  0.99420  0.17360  0.25630  1.0000
  N   N71       1.0  0.99420  0.32640  0.75630  1.0000
  N   N72       1.0  0.00580  0.82640  0.74370  1.0000
  C   C1        1.0  0.01290  0.42320  0.14670  1.0000
  C   C2        1.0  0.98710  0.92320  0.35330  1.0000
  C   C3        1.0  0.98710  0.57680  0.85330  1.0000
  C   C4        1.0  0.01290  0.07680  0.64670  1.0000
  C   C5        1.0  0.03770  0.37530  0.18850  1.0000
  C   C6        1.0  0.96230  0.87530  0.31150  1.0000
  C   C7        1.0  0.96230  0.62470  0.81150  1.0000
  C   C8        1.0  0.03770  0.12470  0.68850  1.0000
  C   C9        1.0  0.07970  0.33400  0.27260  1.0000
  C   C10       1.0  0.92030  0.83400  0.22740  1.0000
  C   C11       1.0  0.92030  0.66600  0.72740  1.0000
  C   C12       1.0  0.07970  0.16600  0.77260  1.0000
  C   C13       1.0  0.04330  0.31770  0.17540  1.0000
  C   C14       1.0  0.95670  0.81770  0.32460  1.0000
  C   C15       1.0  0.95670  0.68230  0.82460  1.0000
  C   C16       1.0  0.04330  0.18230  0.67540  1.0000
  C   C17       1.0  0.02840  0.28500  0.11770  1.0000
  C   C18       1.0  0.97160  0.78500  0.38230  1.0000
  C   C19       1.0  0.97160  0.71500  0.88230  1.0000
  C   C20       1.0  0.02840  0.21500  0.61770  1.0000
  C   C21       1.0  0.10580  0.32730  0.33940  1.0000
  C   C22       1.0  0.89420  0.82730  0.16060  1.0000
  C   C23       1.0  0.89420  0.67270  0.66060  1.0000
  C   C24       1.0  0.10580  0.17270  0.83940  1.0000
  C   C25       1.0  0.14520  0.37320  0.43170  1.0000
  C   C26       1.0  0.85480  0.87320  0.06830  1.0000
  C   C27       1.0  0.85480  0.62680  0.56830  1.0000
  C   C28       1.0  0.14520  0.12680  0.93170  1.0000
  H   H25       1.0  0.15670  0.40742  0.45366  1.0000
  H   H26       1.0  0.84330  0.90742  0.04634  1.0000
  H   H27       1.0  0.84330  0.59258  0.54634  1.0000
  H   H28       1.0  0.15670  0.09258  0.95366  1.0000
  C   C29       1.0  0.15320  0.32260  0.46480  1.0000
  C   C30       1.0  0.84680  0.82260  0.03520  1.0000
  C   C31       1.0  0.84680  0.67740  0.53520  1.0000
  C   C32       1.0  0.15320  0.17740  0.96480  1.0000
  H   H29       1.0  0.17096  0.32200  0.50804  1.0000
  H   H30       1.0  0.82904  0.82200  0.99196  1.0000
  H   H31       1.0  0.82904  0.67800  0.49196  1.0000
  H   H32       1.0  0.17096  0.17800  0.00804  1.0000
  C   C33       1.0  0.13470  0.27320  0.43320  1.0000
  C   C34       1.0  0.86530  0.77320  0.06680  1.0000
  C   C35       1.0  0.86530  0.72680  0.56680  1.0000
  C   C36       1.0  0.13470  0.22680  0.93320  1.0000
  H   H33       1.0  0.13848  0.23791  0.45477  1.0000
  H   H34       1.0  0.86152  0.73791  0.04523  1.0000
  H   H35       1.0  0.86152  0.76209  0.54523  1.0000
  H   H36       1.0  0.13848  0.26209  0.95477  1.0000
  C   C37       1.0  0.11040  0.27560  0.36940  1.0000
  C   C38       1.0  0.88960  0.77560  0.13060  1.0000
  C   C39       1.0  0.88960  0.72440  0.63060  1.0000
  C   C40       1.0  0.11040  0.22440  0.86940  1.0000
  H   H37       1.0  0.09719  0.24199  0.34693  1.0000
  H   H38       1.0  0.90281  0.74199  0.15307  1.0000
  H   H39       1.0  0.90281  0.75801  0.65307  1.0000
  H   H40       1.0  0.09719  0.25801  0.84693  1.0000
  C   C41       1.0  0.97790  0.58550  0.29190  1.0000
  C   C42       1.0  0.02210  0.08550  0.20810  1.0000
  C   C43       1.0  0.02210  0.41450  0.70810  1.0000
  C   C44       1.0  0.97790  0.91450  0.79190  1.0000
  C   C45       1.0  0.89520  0.56880  0.35460  1.0000
  C   C46       1.0  0.10480  0.06880  0.14540  1.0000
  C   C47       1.0  0.10480  0.43120  0.64540  1.0000
  C   C48       1.0  0.89520  0.93120  0.85460  1.0000
  C   C49       1.0  0.83220  0.58230  0.39100  1.0000
  C   C50       1.0  0.16780  0.08230  0.10900  1.0000
  C   C51       1.0  0.16780  0.41770  0.60900  1.0000
  C   C52       1.0  0.83220  0.91770  0.89100  1.0000
  C   C53       1.0  0.93700  0.52060  0.35040  1.0000
  C   C54       1.0  0.06300  0.02060  0.14960  1.0000
  C   C55       1.0  0.06300  0.47940  0.64960  1.0000
  C   C56       1.0  0.93700  0.97940  0.85040  1.0000
  C   C57       1.0  0.93220  0.46370  0.38010  1.0000
  C   C58       1.0  0.06780  0.96370  0.11990  1.0000
  C   C59       1.0  0.06780  0.53630  0.61990  1.0000
  C   C60       1.0  0.93220  0.03630  0.88010  1.0000
  C   C61       1.0  0.73760  0.73700  0.24560  1.0000
  C   C62       1.0  0.26240  0.23700  0.25440  1.0000
  C   C63       1.0  0.26240  0.26300  0.75440  1.0000
  C   C64       1.0  0.73760  0.76300  0.74560  1.0000
  C   C65       1.0  0.70410  0.70640  0.15340  1.0000
  C   C66       1.0  0.29590  0.20640  0.34660  1.0000
  C   C67       1.0  0.29590  0.29360  0.84660  1.0000
  C   C68       1.0  0.70410  0.79360  0.65340  1.0000
  C   C69       1.0  0.65690  0.69880  0.09580  1.0000
  C   C70       1.0  0.34310  0.19880  0.40420  1.0000
  C   C71       1.0  0.34310  0.30120  0.90420  1.0000
  C   C72       1.0  0.65690  0.80120  0.59580  1.0000
  C   C73       1.0  0.47500  0.66450  0.21870  1.0000
  C   C74       1.0  0.52500  0.16450  0.28130  1.0000
  C   C75       1.0  0.52500  0.33550  0.78130  1.0000
  C   C76       1.0  0.47500  0.83550  0.71870  1.0000
  C   C77       1.0  0.38340  0.67800  0.15440  1.0000
  C   C78       1.0  0.61660  0.17800  0.34560  1.0000
  C   C79       1.0  0.61660  0.32200  0.84560  1.0000
  C   C80       1.0  0.38340  0.82200  0.65440  1.0000
  C   C81       1.0  0.31360  0.66560  0.12380  1.0000
  C   C82       1.0  0.68640  0.16560  0.37620  1.0000
  C   C83       1.0  0.68640  0.33440  0.87620  1.0000
  C   C84       1.0  0.31360  0.83440  0.62380  1.0000
  C   C85       1.0  0.43150  0.72220  0.14800  1.0000
  C   C86       1.0  0.56850  0.22220  0.35200  1.0000
  C   C87       1.0  0.56850  0.27780  0.85200  1.0000
  C   C88       1.0  0.43150  0.77780  0.64800  1.0000
  C   C89       1.0  0.43050  0.77030  0.10280  1.0000
  C   C90       1.0  0.56950  0.27030  0.39720  1.0000
  C   C91       1.0  0.56950  0.22970  0.89720  1.0000
  C   C92       1.0  0.43050  0.72970  0.60280  1.0000
  C   C93       1.0  0.23820  0.51070  0.26090  1.0000
  C   C94       1.0  0.76180  0.01070  0.23910  1.0000
  C   C95       1.0  0.76180  0.48930  0.73910  1.0000
  C   C96       1.0  0.23820  0.98930  0.76090  1.0000
  C   C97       1.0  0.20710  0.53380  0.35400  1.0000
  C   C98       1.0  0.79290  0.03380  0.14600  1.0000
  C   C99       1.0  0.79290  0.46620  0.64600  1.0000
  C   C100      1.0  0.20710  0.96620  0.85400  1.0000
  C   C101      1.0  0.16440  0.53400  0.41090  1.0000
  C   C102      1.0  0.83560  0.03400  0.08910  1.0000
  C   C103      1.0  0.83560  0.46600  0.58910  1.0000
  C   C104      1.0  0.16440  0.96600  0.91090  1.0000
  C   C105      1.0  0.27130  0.55940  0.34320  1.0000
  C   C106      1.0  0.72870  0.05940  0.15680  1.0000
  C   C107      1.0  0.72870  0.44060  0.65680  1.0000
  C   C108      1.0  0.27130  0.94060  0.84320  1.0000
  C   C109      1.0  0.31990  0.59560  0.38320  1.0000
  C   C110      1.0  0.68010  0.09560  0.11680  1.0000
  C   C111      1.0  0.68010  0.40440  0.61680  1.0000
  C   C112      1.0  0.31990  0.90440  0.88320  1.0000
  C   C113      1.0  0.24140  0.48740  0.19600  1.0000
  C   C114      1.0  0.75860  0.98740  0.30400  1.0000
  C   C115      1.0  0.75860  0.51260  0.80400  1.0000
  C   C116      1.0  0.24140  0.01260  0.69600  1.0000
  C   C117      1.0  0.30290  0.48280  0.10640  1.0000
  C   C118      1.0  0.69710  0.98280  0.39360  1.0000
  C   C119      1.0  0.69710  0.51720  0.89360  1.0000
  C   C120      1.0  0.30290  0.01720  0.60640  1.0000
  H   H41       1.0  0.34361  0.49278  0.08434  1.0000
  H   H42       1.0  0.65639  0.99278  0.41566  1.0000
  H   H43       1.0  0.65639  0.50722  0.91566  1.0000
  H   H44       1.0  0.34361  0.00722  0.58434  1.0000
  C   C121      1.0  0.25160  0.45100  0.07400  1.0000
  C   C122      1.0  0.74840  0.95100  0.42600  1.0000
  C   C123      1.0  0.74840  0.54900  0.92600  1.0000
  C   C124      1.0  0.25160  0.04900  0.57400  1.0000
  H   H45       1.0  0.25662  0.43941  0.03126  1.0000
  H   H46       1.0  0.74338  0.93941  0.46874  1.0000
  H   H47       1.0  0.74338  0.56059  0.96874  1.0000
  H   H48       1.0  0.25662  0.06059  0.53126  1.0000
  C   C125      1.0  0.19260  0.43680  0.10600  1.0000
  C   C126      1.0  0.80740  0.93680  0.39400  1.0000
  C   C127      1.0  0.80740  0.56320  0.89400  1.0000
  C   C128      1.0  0.19260  0.06320  0.60600  1.0000
  H   H49       1.0  0.15599  0.41457  0.08564  1.0000
  H   H50       1.0  0.84401  0.91457  0.41436  1.0000
  H   H51       1.0  0.84401  0.58543  0.91436  1.0000
  H   H52       1.0  0.15599  0.08543  0.58564  1.0000
  C   C129      1.0  0.18710  0.45490  0.16750  1.0000
  C   C130      1.0  0.81290  0.95490  0.33250  1.0000
  C   C131      1.0  0.81290  0.54510  0.83250  1.0000
  C   C132      1.0  0.18710  0.04510  0.66750  1.0000
  H   H53       1.0  0.14678  0.44544  0.19032  1.0000
  H   H54       1.0  0.85322  0.94544  0.30968  1.0000
  H   H55       1.0  0.85322  0.55456  0.80968  1.0000
  H   H56       1.0  0.14678  0.05456  0.69032  1.0000
  C   C133      1.0  0.52350  0.63580  0.26640  1.0000
  C   C134      1.0  0.47650  0.13580  0.23360  1.0000
  C   C135      1.0  0.47650  0.36420  0.73360  1.0000
  C   C136      1.0  0.52350  0.86420  0.76640  1.0000
  C   C137      1.0  0.58420  0.66060  0.29330  1.0000
  C   C138      1.0  0.41580  0.16060  0.20670  1.0000
  C   C139      1.0  0.41580  0.33940  0.70670  1.0000
  C   C140      1.0  0.58420  0.83940  0.79330  1.0000
  H   H57       1.0  0.59571  0.69864  0.28362  1.0000
  H   H58       1.0  0.40429  0.19864  0.21638  1.0000
  H   H59       1.0  0.40429  0.30136  0.71638  1.0000
  H   H60       1.0  0.59571  0.80136  0.78362  1.0000
  C   C141      1.0  0.62800  0.62870  0.33480  1.0000
  C   C142      1.0  0.37200  0.12870  0.16520  1.0000
  C   C143      1.0  0.37200  0.37130  0.66520  1.0000
  C   C144      1.0  0.62800  0.87130  0.83480  1.0000
  H   H61       1.0  0.67115  0.64419  0.35262  1.0000
  H   H62       1.0  0.32885  0.14419  0.14738  1.0000
  H   H63       1.0  0.32885  0.35581  0.64738  1.0000
  H   H64       1.0  0.67115  0.85581  0.85262  1.0000
  C   C145      1.0  0.60850  0.57490  0.34980  1.0000
  C   C146      1.0  0.39150  0.07490  0.15020  1.0000
  C   C147      1.0  0.39150  0.42510  0.65020  1.0000
  C   C148      1.0  0.60850  0.92510  0.84980  1.0000
  H   H65       1.0  0.63710  0.55286  0.37901  1.0000
  H   H66       1.0  0.36290  0.05286  0.12099  1.0000
  H   H67       1.0  0.36290  0.44714  0.62099  1.0000
  H   H68       1.0  0.63710  0.94714  0.87901  1.0000
  C   C149      1.0  0.54680  0.55340  0.32210  1.0000
  C   C150      1.0  0.45320  0.05340  0.17790  1.0000
  C   C151      1.0  0.45320  0.44660  0.67790  1.0000
  C   C152      1.0  0.54680  0.94660  0.82210  1.0000
  H   H69       1.0  0.53417  0.51565  0.33204  1.0000
  H   H70       1.0  0.46583  0.01565  0.16796  1.0000
  H   H71       1.0  0.46583  0.48435  0.66796  1.0000
  H   H72       1.0  0.53417  0.98435  0.83204  1.0000
  C   C153      1.0  0.57910  0.91180  0.20710  1.0000
  C   C154      1.0  0.42090  0.41180  0.29290  1.0000
  C   C155      1.0  0.42090  0.08820  0.79290  1.0000
  C   C156      1.0  0.57910  0.58820  0.70710  1.0000
  C   C157      1.0  0.53630  0.93520  0.29530  1.0000
  C   C158      1.0  0.46370  0.43520  0.20470  1.0000
  C   C159      1.0  0.46370  0.06480  0.70470  1.0000
  C   C160      1.0  0.53630  0.56480  0.79530  1.0000
  C   C161      1.0  0.51800  0.97170  0.34980  1.0000
  C   C162      1.0  0.48200  0.47170  0.15020  1.0000
  C   C163      1.0  0.48200  0.02830  0.65020  1.0000
  C   C164      1.0  0.51800  0.52830  0.84980  1.0000
  C   C165      1.0  0.53090  0.87700  0.28790  1.0000
  C   C166      1.0  0.46910  0.37700  0.21210  1.0000
  C   C167      1.0  0.46910  0.12300  0.71210  1.0000
  C   C168      1.0  0.53090  0.62300  0.78790  1.0000
  C   C169      1.0  0.50060  0.83030  0.32700  1.0000
  C   C170      1.0  0.49940  0.33030  0.17300  1.0000
  C   C171      1.0  0.49940  0.16970  0.67300  1.0000
  C   C172      1.0  0.50060  0.66970  0.82700  1.0000
  C   C173      1.0  0.61120  0.91260  0.14460  1.0000
  C   C174      1.0  0.38880  0.41260  0.35540  1.0000
  C   C175      1.0  0.38880  0.08740  0.85540  1.0000
  C   C176      1.0  0.61120  0.58740  0.64460  1.0000
  C   C177      1.0  0.66260  0.85990  0.06710  1.0000
  C   C178      1.0  0.33740  0.35990  0.43290  1.0000
  C   C179      1.0  0.33740  0.14010  0.93290  1.0000
  C   C180      1.0  0.66260  0.64010  0.56710  1.0000
  H   H73       1.0  0.67712  0.82426  0.05167  1.0000
  H   H74       1.0  0.32288  0.32426  0.44833  1.0000
  H   H75       1.0  0.32288  0.17574  0.94833  1.0000
  H   H76       1.0  0.67712  0.67574  0.55167  1.0000
  C   C181      1.0  0.67570  0.90730  0.03200  1.0000
  C   C182      1.0  0.32430  0.40730  0.46800  1.0000
  C   C183      1.0  0.32430  0.09270  0.96800  1.0000
  C   C184      1.0  0.67570  0.59270  0.53200  1.0000
  H   H77       1.0  0.70024  0.90438  0.99398  1.0000
  H   H78       1.0  0.29976  0.40438  0.50602  1.0000
  H   H79       1.0  0.29976  0.09562  0.00602  1.0000
  H   H80       1.0  0.70024  0.59562  0.49398  1.0000
  C   C185      1.0  0.65260  0.95960  0.05270  1.0000
  C   C186      1.0  0.34740  0.45960  0.44730  1.0000
  C   C187      1.0  0.34740  0.04040  0.94730  1.0000
  C   C188      1.0  0.65260  0.54040  0.55270  1.0000
  H   H81       1.0  0.65891  0.99283  0.02818  1.0000
  H   H82       1.0  0.34109  0.49283  0.47182  1.0000
  H   H83       1.0  0.34109  0.00717  0.97182  1.0000
  H   H84       1.0  0.65891  0.50717  0.52818  1.0000
  C   C189      1.0  0.62000  0.96190  0.11040  1.0000
  C   C190      1.0  0.38000  0.46190  0.38960  1.0000
  C   C191      1.0  0.38000  0.03810  0.88960  1.0000
  C   C192      1.0  0.62000  0.53810  0.61040  1.0000
  H   H85       1.0  0.60382  0.99695  0.12617  1.0000
  H   H86       1.0  0.39618  0.49695  0.37383  1.0000
  H   H87       1.0  0.39618  0.00305  0.87383  1.0000
  H   H88       1.0  0.60382  0.50305  0.62617  1.0000
  C   C193      1.0  0.76980  0.68390  0.17060  1.0000
  C   C194      1.0  0.23020  0.18390  0.32940  1.0000
  C   C195      1.0  0.23020  0.31610  0.82940  1.0000
  C   C196      1.0  0.76980  0.81610  0.67060  1.0000
  C   C197      1.0  0.81540  0.64400  0.13710  1.0000
  C   C198      1.0  0.18460  0.14400  0.36290  1.0000
  C   C199      1.0  0.18460  0.35600  0.86290  1.0000
  C   C200      1.0  0.81540  0.85600  0.63710  1.0000
  C   C201      1.0  0.73970  0.76170  0.31010  1.0000
  C   C202      1.0  0.26030  0.26170  0.18990  1.0000
  C   C203      1.0  0.26030  0.23830  0.68990  1.0000
  C   C204      1.0  0.73970  0.73830  0.81010  1.0000
  C   C205      1.0  0.80440  0.77110  0.40550  1.0000
  C   C206      1.0  0.19560  0.27110  0.09450  1.0000
  C   C207      1.0  0.19560  0.22890  0.59450  1.0000
  C   C208      1.0  0.80440  0.72890  0.90550  1.0000
  H   H89       1.0  0.84719  0.76520  0.43058  1.0000
  H   H90       1.0  0.15281  0.26520  0.06942  1.0000
  H   H91       1.0  0.15281  0.23480  0.56942  1.0000
  H   H92       1.0  0.84719  0.73480  0.93058  1.0000
  C   C209      1.0  0.75090  0.79780  0.43250  1.0000
  C   C210      1.0  0.24910  0.29780  0.06750  1.0000
  C   C211      1.0  0.24910  0.20220  0.56750  1.0000
  C   C212      1.0  0.75090  0.70220  0.93250  1.0000
  H   H93       1.0  0.75618  0.81004  0.47553  1.0000
  H   H94       1.0  0.24382  0.31004  0.02447  1.0000
  H   H95       1.0  0.24382  0.18996  0.52447  1.0000
  H   H96       1.0  0.75618  0.68996  0.97553  1.0000
  C   C213      1.0  0.68810  0.80730  0.39690  1.0000
  C   C214      1.0  0.31190  0.30730  0.10310  1.0000
  C   C215      1.0  0.31190  0.19270  0.60310  1.0000
  C   C216      1.0  0.68810  0.69270  0.89690  1.0000
  H   H97       1.0  0.64892  0.82476  0.41534  1.0000
  H   H98       1.0  0.35108  0.32476  0.08466  1.0000
  H   H99       1.0  0.35108  0.17524  0.58466  1.0000
  H   H100      1.0  0.64892  0.67524  0.91534  1.0000
  C   C217      1.0  0.68410  0.79080  0.33370  1.0000
  C   C218      1.0  0.31590  0.29080  0.16630  1.0000
  C   C219      1.0  0.31590  0.20920  0.66630  1.0000
  C   C220      1.0  0.68410  0.70920  0.83370  1.0000
  H   H101      1.0  0.64331  0.79948  0.30698  1.0000
  H   H102      1.0  0.35669  0.29948  0.19302  1.0000
  H   H103      1.0  0.35669  0.20052  0.69302  1.0000
  H   H104      1.0  0.64331  0.70052  0.80698  1.0000
  C   C221      1.0  0.02230  0.61780  0.24940  1.0000
  C   C222      1.0  0.97770  0.11780  0.25060  1.0000
  C   C223      1.0  0.97770  0.38220  0.75060  1.0000
  C   C224      1.0  0.02230  0.88220  0.74940  1.0000
  C   C225      1.0  0.07790  0.59430  0.21870  1.0000
  C   C226      1.0  0.92210  0.09430  0.28130  1.0000
  C   C227      1.0  0.92210  0.40570  0.78130  1.0000
  C   C228      1.0  0.07790  0.90570  0.71870  1.0000
  H   H105      1.0  0.08792  0.55498  0.22277  1.0000
  H   H106      1.0  0.91208  0.05498  0.27723  1.0000
  H   H107      1.0  0.91208  0.44502  0.77723  1.0000
  H   H108      1.0  0.08792  0.94502  0.72277  1.0000
  C   C229      1.0  0.11930  0.62850  0.18200  1.0000
  C   C230      1.0  0.88070  0.12850  0.31800  1.0000
  C   C231      1.0  0.88070  0.37150  0.81800  1.0000
  C   C232      1.0  0.11930  0.87150  0.68200  1.0000
  H   H109      1.0  0.15712  0.61295  0.15983  1.0000
  H   H110      1.0  0.84288  0.11295  0.34017  1.0000
  H   H111      1.0  0.84288  0.38705  0.84017  1.0000
  H   H112      1.0  0.15712  0.88705  0.65983  1.0000
  C   C233      1.0  0.10430  0.68550  0.17820  1.0000
  C   C234      1.0  0.89570  0.18550  0.32180  1.0000
  C   C235      1.0  0.89570  0.31450  0.82180  1.0000
  C   C236      1.0  0.10430  0.81450  0.67820  1.0000
  H   H113      1.0  0.13313  0.71023  0.15519  1.0000
  H   H114      1.0  0.86687  0.21023  0.34481  1.0000
  H   H115      1.0  0.86687  0.28977  0.84481  1.0000
  H   H116      1.0  0.13313  0.78977  0.65519  1.0000
  C   C237      1.0  0.04660  0.70580  0.20860  1.0000
  C   C238      1.0  0.95340  0.20580  0.29140  1.0000
  C   C239      1.0  0.95340  0.29420  0.79140  1.0000
  C   C240      1.0  0.04660  0.79420  0.70860  1.0000
  H   H117      1.0  0.03538  0.74487  0.20432  1.0000
  H   H118      1.0  0.96462  0.24487  0.29568  1.0000
  H   H119      1.0  0.96462  0.25513  0.79568  1.0000
  H   H120      1.0  0.03538  0.75513  0.70432  1.0000
