data_image0
_chemical_formula_structural       Cr6Mn6O72C36
_chemical_formula_sum              "Cr6 Mn6 O72 C36"
_cell_length_a       9.383
_cell_length_b       9.383
_cell_length_c       52.19
_cell_angle_alpha    90
_cell_angle_beta     90
_cell_angle_gamma    120

_space_group_name_H-M_alt    "P 1"
_space_group_IT_number       1

loop_
  _space_group_symop_operation_xyz
  'x, y, z'

loop_
  _atom_site_type_symbol
  _atom_site_label
  _atom_site_symmetry_multiplicity
  _atom_site_fract_x
  _atom_site_fract_y
  _atom_site_fract_z
  _atom_site_occupancy
  Cr  Cr1       1.0  0.00000  0.00000  0.99970  1.0000
  Cr  Cr2       1.0  0.00000  0.00000  0.49970  1.0000
  Cr  Cr3       1.0  0.33333  0.66667  0.66637  1.0000
  Cr  Cr4       1.0  0.33333  0.66667  0.16637  1.0000
  Cr  Cr5       1.0  0.66667  0.33333  0.33303  1.0000
  Cr  Cr6       1.0  0.66667  0.33333  0.83303  1.0000
  Mn  Mn1       1.0  0.33330  0.66670  0.99980  1.0000
  Mn  Mn2       1.0  0.33330  0.66670  0.49980  1.0000
  Mn  Mn3       1.0  0.66663  0.33337  0.66647  1.0000
  Mn  Mn4       1.0  0.66663  0.33337  0.16647  1.0000
  Mn  Mn5       1.0  0.99997  0.00003  0.33313  1.0000
  Mn  Mn6       1.0  0.99997  0.00003  0.83313  1.0000
  O   O1        1.0  0.16640  0.18150  0.02080  1.0000
  O   O2        1.0  0.81850  0.98490  0.02080  1.0000
  O   O3        1.0  0.81850  0.83360  0.52080  1.0000
  O   O4        1.0  0.01510  0.83360  0.02080  1.0000
  O   O5        1.0  0.16640  0.98490  0.52080  1.0000
  O   O6        1.0  0.01510  0.18150  0.52080  1.0000
  O   O7        1.0  0.49973  0.84817  0.68747  1.0000
  O   O8        1.0  0.15183  0.65157  0.68747  1.0000
  O   O9        1.0  0.15183  0.50027  0.18747  1.0000
  O   O10       1.0  0.34843  0.50027  0.68747  1.0000
  O   O11       1.0  0.49973  0.65157  0.18747  1.0000
  O   O12       1.0  0.34843  0.84817  0.18747  1.0000
  O   O13       1.0  0.83307  0.51483  0.35413  1.0000
  O   O14       1.0  0.48517  0.31823  0.35413  1.0000
  O   O15       1.0  0.48517  0.16693  0.85413  1.0000
  O   O16       1.0  0.68177  0.16693  0.35413  1.0000
  O   O17       1.0  0.83307  0.31823  0.85413  1.0000
  O   O18       1.0  0.68177  0.51483  0.85413  1.0000
  O   O19       1.0  0.01440  0.18310  0.98040  1.0000
  O   O20       1.0  0.81690  0.83130  0.98040  1.0000
  O   O21       1.0  0.81690  0.98560  0.48040  1.0000
  O   O22       1.0  0.16870  0.98560  0.98040  1.0000
  O   O23       1.0  0.01440  0.83130  0.48040  1.0000
  O   O24       1.0  0.16870  0.18310  0.48040  1.0000
  O   O25       1.0  0.34773  0.84977  0.64707  1.0000
  O   O26       1.0  0.15023  0.49797  0.64707  1.0000
  O   O27       1.0  0.15023  0.65227  0.14707  1.0000
  O   O28       1.0  0.50203  0.65227  0.64707  1.0000
  O   O29       1.0  0.34773  0.49797  0.14707  1.0000
  O   O30       1.0  0.50203  0.84977  0.14707  1.0000
  O   O31       1.0  0.68107  0.51643  0.31373  1.0000
  O   O32       1.0  0.48357  0.16463  0.31373  1.0000
  O   O33       1.0  0.48357  0.31893  0.81373  1.0000
  O   O34       1.0  0.83537  0.31893  0.31373  1.0000
  O   O35       1.0  0.68107  0.16463  0.81373  1.0000
  O   O36       1.0  0.83537  0.51643  0.81373  1.0000
  O   O37       1.0  0.30760  0.45600  0.02250  1.0000
  O   O38       1.0  0.54400  0.85160  0.02250  1.0000
  O   O39       1.0  0.54400  0.69240  0.52250  1.0000
  O   O40       1.0  0.14840  0.69240  0.02250  1.0000
  O   O41       1.0  0.30760  0.85160  0.52250  1.0000
  O   O42       1.0  0.14840  0.45600  0.52250  1.0000
  O   O43       1.0  0.64093  0.12267  0.68917  1.0000
  O   O44       1.0  0.87733  0.51827  0.68917  1.0000
  O   O45       1.0  0.87733  0.35907  0.18917  1.0000
  O   O46       1.0  0.48173  0.35907  0.68917  1.0000
  O   O47       1.0  0.64093  0.51827  0.18917  1.0000
  O   O48       1.0  0.48173  0.12267  0.18917  1.0000
  O   O49       1.0  0.97427  0.78933  0.35583  1.0000
  O   O50       1.0  0.21067  0.18493  0.35583  1.0000
  O   O51       1.0  0.21067  0.02573  0.85583  1.0000
  O   O52       1.0  0.81507  0.02573  0.35583  1.0000
  O   O53       1.0  0.97427  0.18493  0.85583  1.0000
  O   O54       1.0  0.81507  0.78933  0.85583  1.0000
  O   O55       1.0  0.15440  0.46160  0.97830  1.0000
  O   O56       1.0  0.53840  0.69280  0.97830  1.0000
  O   O57       1.0  0.53840  0.84560  0.47830  1.0000
  O   O58       1.0  0.30720  0.84560  0.97830  1.0000
  O   O59       1.0  0.15440  0.69280  0.47830  1.0000
  O   O60       1.0  0.30720  0.46160  0.47830  1.0000
  O   O61       1.0  0.48773  0.12827  0.64497  1.0000
  O   O62       1.0  0.87173  0.35947  0.64497  1.0000
  O   O63       1.0  0.87173  0.51227  0.14497  1.0000
  O   O64       1.0  0.64053  0.51227  0.64497  1.0000
  O   O65       1.0  0.48773  0.35947  0.14497  1.0000
  O   O66       1.0  0.64053  0.12827  0.14497  1.0000
  O   O67       1.0  0.82107  0.79493  0.31163  1.0000
  O   O68       1.0  0.20507  0.02613  0.31163  1.0000
  O   O69       1.0  0.20507  0.17893  0.81163  1.0000
  O   O70       1.0  0.97387  0.17893  0.31163  1.0000
  O   O71       1.0  0.82107  0.02613  0.81163  1.0000
  O   O72       1.0  0.97387  0.79493  0.81163  1.0000
  C   C1        1.0  0.21480  0.32540  0.01240  1.0000
  C   C2        1.0  0.67460  0.88940  0.01240  1.0000
  C   C3        1.0  0.67460  0.78520  0.51240  1.0000
  C   C4        1.0  0.11060  0.78520  0.01240  1.0000
  C   C5        1.0  0.21480  0.88940  0.51240  1.0000
  C   C6        1.0  0.11060  0.32540  0.51240  1.0000
  C   C7        1.0  0.54813  0.99207  0.67907  1.0000
  C   C8        1.0  0.00793  0.55607  0.67907  1.0000
  C   C9        1.0  0.00793  0.45187  0.17907  1.0000
  C   C10       1.0  0.44393  0.45187  0.67907  1.0000
  C   C11       1.0  0.54813  0.55607  0.17907  1.0000
  C   C12       1.0  0.44393  0.99207  0.17907  1.0000
  C   C13       1.0  0.88147  0.65873  0.34573  1.0000
  C   C14       1.0  0.34127  0.22273  0.34573  1.0000
  C   C15       1.0  0.34127  0.11853  0.84573  1.0000
  C   C16       1.0  0.77727  0.11853  0.34573  1.0000
  C   C17       1.0  0.88147  0.22273  0.84573  1.0000
  C   C18       1.0  0.77727  0.65873  0.84573  1.0000
  C   C19       1.0  0.12670  0.33000  0.98700  1.0000
  C   C20       1.0  0.67000  0.79670  0.98700  1.0000
  C   C21       1.0  0.67000  0.87330  0.48700  1.0000
  C   C22       1.0  0.20330  0.87330  0.98700  1.0000
  C   C23       1.0  0.12670  0.79670  0.48700  1.0000
  C   C24       1.0  0.20330  0.33000  0.48700  1.0000
  C   C25       1.0  0.46003  0.99667  0.65367  1.0000
  C   C26       1.0  0.00333  0.46337  0.65367  1.0000
  C   C27       1.0  0.00333  0.53997  0.15367  1.0000
  C   C28       1.0  0.53663  0.53997  0.65367  1.0000
  C   C29       1.0  0.46003  0.46337  0.15367  1.0000
  C   C30       1.0  0.53663  0.99667  0.15367  1.0000
  C   C31       1.0  0.79337  0.66333  0.32033  1.0000
  C   C32       1.0  0.33667  0.13003  0.32033  1.0000
  C   C33       1.0  0.33667  0.20663  0.82033  1.0000
  C   C34       1.0  0.86997  0.20663  0.32033  1.0000
  C   C35       1.0  0.79337  0.13003  0.82033  1.0000
  C   C36       1.0  0.86997  0.66333  0.82033  1.0000
