data_image0
_chemical_formula_structural       Cr6Mn6O72C36
_chemical_formula_sum              "Cr6 Mn6 O72 C36"
_cell_length_a       9.372
_cell_length_b       9.372
_cell_length_c       57.94
_cell_angle_alpha    90
_cell_angle_beta     90
_cell_angle_gamma    120

_space_group_name_H-M_alt    "P 1"
_space_group_IT_number       1

loop_
  _space_group_symop_operation_xyz
  'x, y, z'

loop_
  _atom_site_type_symbol
  _atom_site_label
  _atom_site_symmetry_multiplicity
  _atom_site_fract_x
  _atom_site_fract_y
  _atom_site_fract_z
  _atom_site_occupancy
  Cr  Cr1       1.0  0.00000  0.00000  0.00010  1.0000
  Cr  Cr2       1.0  0.00000  0.00000  0.50010  1.0000
  Cr  Cr3       1.0  0.33333  0.66667  0.66677  1.0000
  Cr  Cr4       1.0  0.33333  0.66667  0.16677  1.0000
  Cr  Cr5       1.0  0.66667  0.33333  0.33343  1.0000
  Cr  Cr6       1.0  0.66667  0.33333  0.83343  1.0000
  Mn  Mn1       1.0  0.33330  0.66660  0.99990  1.0000
  Mn  Mn2       1.0  0.33340  0.66670  0.49990  1.0000
  Mn  Mn3       1.0  0.66663  0.33327  0.66657  1.0000
  Mn  Mn4       1.0  0.66673  0.33337  0.16657  1.0000
  Mn  Mn5       1.0  0.99997  0.99993  0.33323  1.0000
  Mn  Mn6       1.0  0.00007  0.00003  0.83323  1.0000
  O   O1        1.0  0.17830  0.19950  0.01970  1.0000
  O   O2        1.0  0.80050  0.97880  0.01970  1.0000
  O   O3        1.0  0.80050  0.82170  0.51970  1.0000
  O   O4        1.0  0.02120  0.82170  0.01970  1.0000
  O   O5        1.0  0.17830  0.97880  0.51970  1.0000
  O   O6        1.0  0.02120  0.19950  0.51970  1.0000
  O   O7        1.0  0.51163  0.86617  0.68637  1.0000
  O   O8        1.0  0.13383  0.64547  0.68637  1.0000
  O   O9        1.0  0.13383  0.48837  0.18637  1.0000
  O   O10       1.0  0.35453  0.48837  0.68637  1.0000
  O   O11       1.0  0.51163  0.64547  0.18637  1.0000
  O   O12       1.0  0.35453  0.86617  0.18637  1.0000
  O   O13       1.0  0.84497  0.53283  0.35303  1.0000
  O   O14       1.0  0.46717  0.31213  0.35303  1.0000
  O   O15       1.0  0.46717  0.15503  0.85303  1.0000
  O   O16       1.0  0.68787  0.15503  0.35303  1.0000
  O   O17       1.0  0.84497  0.31213  0.85303  1.0000
  O   O18       1.0  0.68787  0.53283  0.85303  1.0000
  O   O19       1.0  0.01850  0.19620  0.98150  1.0000
  O   O20       1.0  0.80380  0.82230  0.98150  1.0000
  O   O21       1.0  0.80380  0.98150  0.48150  1.0000
  O   O22       1.0  0.17770  0.98150  0.98150  1.0000
  O   O23       1.0  0.01850  0.82230  0.48150  1.0000
  O   O24       1.0  0.17770  0.19620  0.48150  1.0000
  O   O25       1.0  0.35183  0.86287  0.64817  1.0000
  O   O26       1.0  0.13713  0.48897  0.64817  1.0000
  O   O27       1.0  0.13713  0.64817  0.14817  1.0000
  O   O28       1.0  0.51103  0.64817  0.64817  1.0000
  O   O29       1.0  0.35183  0.48897  0.14817  1.0000
  O   O30       1.0  0.51103  0.86287  0.14817  1.0000
  O   O31       1.0  0.68517  0.52953  0.31483  1.0000
  O   O32       1.0  0.47047  0.15563  0.31483  1.0000
  O   O33       1.0  0.47047  0.31483  0.81483  1.0000
  O   O34       1.0  0.84437  0.31483  0.31483  1.0000
  O   O35       1.0  0.68517  0.15563  0.81483  1.0000
  O   O36       1.0  0.84437  0.52953  0.81483  1.0000
  O   O37       1.0  0.31560  0.47030  0.01890  1.0000
  O   O38       1.0  0.52970  0.84530  0.01890  1.0000
  O   O39       1.0  0.52970  0.68440  0.51890  1.0000
  O   O40       1.0  0.15470  0.68440  0.01890  1.0000
  O   O41       1.0  0.31560  0.84530  0.51890  1.0000
  O   O42       1.0  0.15470  0.47030  0.51890  1.0000
  O   O43       1.0  0.64893  0.13697  0.68557  1.0000
  O   O44       1.0  0.86303  0.51197  0.68557  1.0000
  O   O45       1.0  0.86303  0.35107  0.18557  1.0000
  O   O46       1.0  0.48803  0.35107  0.68557  1.0000
  O   O47       1.0  0.64893  0.51197  0.18557  1.0000
  O   O48       1.0  0.48803  0.13697  0.18557  1.0000
  O   O49       1.0  0.98227  0.80363  0.35223  1.0000
  O   O50       1.0  0.19637  0.17863  0.35223  1.0000
  O   O51       1.0  0.19637  0.01773  0.85223  1.0000
  O   O52       1.0  0.82137  0.01773  0.35223  1.0000
  O   O53       1.0  0.98227  0.17863  0.85223  1.0000
  O   O54       1.0  0.82137  0.80363  0.85223  1.0000
  O   O55       1.0  0.16280  0.47020  0.98110  1.0000
  O   O56       1.0  0.52980  0.69260  0.98110  1.0000
  O   O57       1.0  0.52980  0.83720  0.48110  1.0000
  O   O58       1.0  0.30740  0.83720  0.98110  1.0000
  O   O59       1.0  0.16280  0.69260  0.48110  1.0000
  O   O60       1.0  0.30740  0.47020  0.48110  1.0000
  O   O61       1.0  0.49613  0.13687  0.64777  1.0000
  O   O62       1.0  0.86313  0.35927  0.64777  1.0000
  O   O63       1.0  0.86313  0.50387  0.14777  1.0000
  O   O64       1.0  0.64073  0.50387  0.64777  1.0000
  O   O65       1.0  0.49613  0.35927  0.14777  1.0000
  O   O66       1.0  0.64073  0.13687  0.14777  1.0000
  O   O67       1.0  0.82947  0.80353  0.31443  1.0000
  O   O68       1.0  0.19647  0.02593  0.31443  1.0000
  O   O69       1.0  0.19647  0.17053  0.81443  1.0000
  O   O70       1.0  0.97407  0.17053  0.31443  1.0000
  O   O71       1.0  0.82947  0.02593  0.81443  1.0000
  O   O72       1.0  0.97407  0.80353  0.81443  1.0000
  C   C1        1.0  0.21350  0.34280  0.01120  1.0000
  C   C2        1.0  0.65720  0.87070  0.01120  1.0000
  C   C3        1.0  0.65720  0.78650  0.51120  1.0000
  C   C4        1.0  0.12930  0.78650  0.01120  1.0000
  C   C5        1.0  0.21350  0.87070  0.51120  1.0000
  C   C6        1.0  0.12930  0.34280  0.51120  1.0000
  C   C7        1.0  0.54683  0.00947  0.67787  1.0000
  C   C8        1.0  0.99053  0.53737  0.67787  1.0000
  C   C9        1.0  0.99053  0.45317  0.17787  1.0000
  C   C10       1.0  0.46263  0.45317  0.67787  1.0000
  C   C11       1.0  0.54683  0.53737  0.17787  1.0000
  C   C12       1.0  0.46263  0.00947  0.17787  1.0000
  C   C13       1.0  0.88017  0.67613  0.34453  1.0000
  C   C14       1.0  0.32387  0.20403  0.34453  1.0000
  C   C15       1.0  0.32387  0.11983  0.84453  1.0000
  C   C16       1.0  0.79597  0.11983  0.34453  1.0000
  C   C17       1.0  0.88017  0.20403  0.84453  1.0000
  C   C18       1.0  0.79597  0.67613  0.84453  1.0000
  C   C19       1.0  0.12790  0.34810  0.98950  1.0000
  C   C20       1.0  0.65190  0.77980  0.98950  1.0000
  C   C21       1.0  0.65190  0.87210  0.48950  1.0000
  C   C22       1.0  0.22020  0.87210  0.98950  1.0000
  C   C23       1.0  0.12790  0.77980  0.48950  1.0000
  C   C24       1.0  0.22020  0.34810  0.48950  1.0000
  C   C25       1.0  0.46123  0.01477  0.65617  1.0000
  C   C26       1.0  0.98523  0.44647  0.65617  1.0000
  C   C27       1.0  0.98523  0.53877  0.15617  1.0000
  C   C28       1.0  0.55353  0.53877  0.65617  1.0000
  C   C29       1.0  0.46123  0.44647  0.15617  1.0000
  C   C30       1.0  0.55353  0.01477  0.15617  1.0000
  C   C31       1.0  0.79457  0.68143  0.32283  1.0000
  C   C32       1.0  0.31857  0.11313  0.32283  1.0000
  C   C33       1.0  0.31857  0.20543  0.82283  1.0000
  C   C34       1.0  0.88687  0.20543  0.32283  1.0000
  C   C35       1.0  0.79457  0.11313  0.82283  1.0000
  C   C36       1.0  0.88687  0.68143  0.82283  1.0000
