data_image0
_chemical_formula_structural       Pt4Ag4Cl8C48Cl40
_chemical_formula_sum              "Pt4 Ag4 Cl48 C48"
_cell_length_a       19.3
_cell_length_b       26.523
_cell_length_c       8.45
_cell_angle_alpha    90
_cell_angle_beta     103.53
_cell_angle_gamma    90

_space_group_name_H-M_alt    "P 1"
_space_group_IT_number       1

loop_
  _space_group_symop_operation_xyz
  'x, y, z'

loop_
  _atom_site_type_symbol
  _atom_site_label
  _atom_site_symmetry_multiplicity
  _atom_site_fract_x
  _atom_site_fract_y
  _atom_site_fract_z
  _atom_site_occupancy
  Pt  Pt1       1.0  0.00000  0.09076  0.25000  1.0000
  Pt  Pt2       1.0  0.50000  0.59076  0.25000  1.0000
  Pt  Pt3       1.0  0.00000  0.90924  0.75000  1.0000
  Pt  Pt4       1.0  0.50000  0.40924  0.75000  1.0000
  Ag  Ag1       1.0  0.00000  0.00000  0.00000  1.0000
  Ag  Ag2       1.0  0.50000  0.50000  0.00000  1.0000
  Ag  Ag3       1.0  0.00000  0.00000  0.50000  1.0000
  Ag  Ag4       1.0  0.50000  0.50000  0.50000  1.0000
  Cl  Cl1       1.0  0.99890  0.09310  0.97450  1.0000
  Cl  Cl2       1.0  0.49890  0.59310  0.97450  1.0000
  Cl  Cl3       1.0  0.00110  0.09310  0.52550  1.0000
  Cl  Cl4       1.0  0.50110  0.59310  0.52550  1.0000
  Cl  Cl5       1.0  0.00110  0.90690  0.02550  1.0000
  Cl  Cl6       1.0  0.50110  0.40690  0.02550  1.0000
  Cl  Cl7       1.0  0.99890  0.90690  0.47450  1.0000
  Cl  Cl8       1.0  0.49890  0.40690  0.47450  1.0000
  C   C1        1.0  0.11100  0.09360  0.30800  1.0000
  C   C2        1.0  0.61100  0.59360  0.30800  1.0000
  C   C3        1.0  0.88900  0.09360  0.19200  1.0000
  C   C4        1.0  0.38900  0.59360  0.19200  1.0000
  C   C5        1.0  0.88900  0.90640  0.69200  1.0000
  C   C6        1.0  0.38900  0.40640  0.69200  1.0000
  C   C7        1.0  0.11100  0.90640  0.80800  1.0000
  C   C8        1.0  0.61100  0.40640  0.80800  1.0000
  C   C9        1.0  0.15600  0.05000  0.32000  1.0000
  C   C10       1.0  0.65600  0.55000  0.32000  1.0000
  C   C11       1.0  0.84400  0.05000  0.18000  1.0000
  C   C12       1.0  0.34400  0.55000  0.18000  1.0000
  C   C13       1.0  0.84400  0.95000  0.68000  1.0000
  C   C14       1.0  0.34400  0.45000  0.68000  1.0000
  C   C15       1.0  0.15600  0.95000  0.82000  1.0000
  C   C16       1.0  0.65600  0.45000  0.82000  1.0000
  C   C17       1.0  0.23100  0.05000  0.34200  1.0000
  C   C18       1.0  0.73100  0.55000  0.34200  1.0000
  C   C19       1.0  0.76900  0.05000  0.15800  1.0000
  C   C20       1.0  0.26900  0.55000  0.15800  1.0000
  C   C21       1.0  0.76900  0.95000  0.65800  1.0000
  C   C22       1.0  0.26900  0.45000  0.65800  1.0000
  C   C23       1.0  0.23100  0.95000  0.84200  1.0000
  C   C24       1.0  0.73100  0.45000  0.84200  1.0000
  C   C25       1.0  0.26000  0.09800  0.35400  1.0000
  C   C26       1.0  0.76000  0.59800  0.35400  1.0000
  C   C27       1.0  0.74000  0.09800  0.14600  1.0000
  C   C28       1.0  0.24000  0.59800  0.14600  1.0000
  C   C29       1.0  0.74000  0.90200  0.64600  1.0000
  C   C30       1.0  0.24000  0.40200  0.64600  1.0000
  C   C31       1.0  0.26000  0.90200  0.85400  1.0000
  C   C32       1.0  0.76000  0.40200  0.85400  1.0000
  C   C33       1.0  0.21420  0.14300  0.34400  1.0000
  C   C34       1.0  0.71420  0.64300  0.34400  1.0000
  C   C35       1.0  0.78580  0.14300  0.15600  1.0000
  C   C36       1.0  0.28580  0.64300  0.15600  1.0000
  C   C37       1.0  0.78580  0.85700  0.65600  1.0000
  C   C38       1.0  0.28580  0.35700  0.65600  1.0000
  C   C39       1.0  0.21420  0.85700  0.84400  1.0000
  C   C40       1.0  0.71420  0.35700  0.84400  1.0000
  C   C41       1.0  0.14400  0.13760  0.31700  1.0000
  C   C42       1.0  0.64400  0.63760  0.31700  1.0000
  C   C43       1.0  0.85600  0.13760  0.18300  1.0000
  C   C44       1.0  0.35600  0.63760  0.18300  1.0000
  C   C45       1.0  0.85600  0.86240  0.68300  1.0000
  C   C46       1.0  0.35600  0.36240  0.68300  1.0000
  C   C47       1.0  0.14400  0.86240  0.81700  1.0000
  C   C48       1.0  0.64400  0.36240  0.81700  1.0000
  Cl  Cl9       1.0  0.11660  0.99090  0.30500  1.0000
  Cl  Cl10      1.0  0.61660  0.49090  0.30500  1.0000
  Cl  Cl11      1.0  0.88340  0.99090  0.19500  1.0000
  Cl  Cl12      1.0  0.38340  0.49090  0.19500  1.0000
  Cl  Cl13      1.0  0.88340  0.00910  0.69500  1.0000
  Cl  Cl14      1.0  0.38340  0.50910  0.69500  1.0000
  Cl  Cl15      1.0  0.11660  0.00910  0.80500  1.0000
  Cl  Cl16      1.0  0.61660  0.50910  0.80500  1.0000
  Cl  Cl17      1.0  0.27860  0.99850  0.35800  1.0000
  Cl  Cl18      1.0  0.77860  0.49850  0.35800  1.0000
  Cl  Cl19      1.0  0.72140  0.99850  0.14200  1.0000
  Cl  Cl20      1.0  0.22140  0.49850  0.14200  1.0000
  Cl  Cl21      1.0  0.72140  0.00150  0.64200  1.0000
  Cl  Cl22      1.0  0.22140  0.50150  0.64200  1.0000
  Cl  Cl23      1.0  0.27860  0.00150  0.85800  1.0000
  Cl  Cl24      1.0  0.77860  0.50150  0.85800  1.0000
  Cl  Cl25      1.0  0.35150  0.10180  0.38100  1.0000
  Cl  Cl26      1.0  0.85150  0.60180  0.38100  1.0000
  Cl  Cl27      1.0  0.64850  0.10180  0.11900  1.0000
  Cl  Cl28      1.0  0.14850  0.60180  0.11900  1.0000
  Cl  Cl29      1.0  0.64850  0.89820  0.61900  1.0000
  Cl  Cl30      1.0  0.14850  0.39820  0.61900  1.0000
  Cl  Cl31      1.0  0.35150  0.89820  0.88100  1.0000
  Cl  Cl32      1.0  0.85150  0.39820  0.88100  1.0000
  Cl  Cl33      1.0  0.26080  0.19960  0.36700  1.0000
  Cl  Cl34      1.0  0.76080  0.69960  0.36700  1.0000
  Cl  Cl35      1.0  0.73920  0.19960  0.13300  1.0000
  Cl  Cl36      1.0  0.23920  0.69960  0.13300  1.0000
  Cl  Cl37      1.0  0.73920  0.80040  0.63300  1.0000
  Cl  Cl38      1.0  0.23920  0.30040  0.63300  1.0000
  Cl  Cl39      1.0  0.26080  0.80040  0.86700  1.0000
  Cl  Cl40      1.0  0.76080  0.30040  0.86700  1.0000
  Cl  Cl41      1.0  0.09870  0.19310  0.30520  1.0000
  Cl  Cl42      1.0  0.59870  0.69310  0.30520  1.0000
  Cl  Cl43      1.0  0.90130  0.19310  0.19480  1.0000
  Cl  Cl44      1.0  0.40130  0.69310  0.19480  1.0000
  Cl  Cl45      1.0  0.90130  0.80690  0.69480  1.0000
  Cl  Cl46      1.0  0.40130  0.30690  0.69480  1.0000
  Cl  Cl47      1.0  0.09870  0.80690  0.80520  1.0000
  Cl  Cl48      1.0  0.59870  0.30690  0.80520  1.0000
