data_image0
_chemical_formula_structural       Mn4S2O28C10
_chemical_formula_sum              "Mn4 S2 O28 C10"
_cell_length_a       9.9379
_cell_length_b       11.2423
_cell_length_c       11.639
_cell_angle_alpha    86.793
_cell_angle_beta     81.644
_cell_angle_gamma    74.481

_space_group_name_H-M_alt    "P 1"
_space_group_IT_number       1

loop_
  _space_group_symop_operation_xyz
  'x, y, z'

loop_
  _atom_site_type_symbol
  _atom_site_label
  _atom_site_symmetry_multiplicity
  _atom_site_fract_x
  _atom_site_fract_y
  _atom_site_fract_z
  _atom_site_occupancy
  Mn  Mn1       1.0  0.76570  0.56392  0.45779  1.0000
  Mn  Mn2       1.0  0.23430  0.43608  0.54221  1.0000
  Mn  Mn3       1.0  0.76275  0.91275  0.08763  1.0000
  Mn  Mn4       1.0  0.23725  0.08725  0.91237  1.0000
  S   S1        1.0  0.01414  0.29911  0.44320  1.0000
  S   S2        1.0  0.98586  0.70089  0.55680  1.0000
  O   O1        1.0  0.86650  0.37180  0.46560  1.0000
  O   O2        1.0  0.13350  0.62820  0.53440  1.0000
  O   O3        1.0  0.03320  0.24220  0.33050  1.0000
  O   O4        1.0  0.96680  0.75780  0.66950  1.0000
  O   O5        1.0  0.04550  0.20470  0.53160  1.0000
  O   O6        1.0  0.95450  0.79530  0.46840  1.0000
  O   O7        1.0  0.10840  0.38020  0.43680  1.0000
  O   O8        1.0  0.89160  0.61980  0.56320  1.0000
  O   O9        1.0  0.59100  0.55550  0.59250  1.0000
  O   O10       1.0  0.40900  0.44450  0.40750  1.0000
  O   O11       1.0  0.39350  0.49490  0.63160  1.0000
  O   O12       1.0  0.60650  0.50510  0.36840  1.0000
  O   O13       1.0  0.86920  0.58810  0.28150  1.0000
  O   O14       1.0  0.13080  0.41190  0.71850  1.0000
  O   O15       1.0  0.87780  0.72760  0.14040  1.0000
  O   O16       1.0  0.12220  0.27240  0.85960  1.0000
  O   O17       1.0  0.66040  0.75560  0.40720  1.0000
  O   O18       1.0  0.33960  0.24440  0.59280  1.0000
  O   O19       1.0  0.66960  0.89510  0.26470  1.0000
  O   O20       1.0  0.33040  0.10490  0.73530  1.0000
  O   O21       1.0  0.59860  0.84830  0.02180  1.0000
  O   O22       1.0  0.40140  0.15170  0.97820  1.0000
  O   O23       1.0  0.39020  0.91740  0.95820  1.0000
  O   O24       1.0  0.60980  0.08260  0.04180  1.0000
  O   O25       1.0  0.91750  0.90700  0.93580  1.0000
  O   O26       1.0  0.08250  0.09300  0.06420  1.0000
  O   O27       1.0  0.10190  0.97690  0.86410  1.0000
  O   O28       1.0  0.89810  0.02310  0.13590  1.0000
  C   C1        1.0  0.49580  0.51440  0.56500  1.0000
  C   C2        1.0  0.50420  0.48560  0.43500  1.0000
  C   C3        1.0  0.82850  0.69360  0.23850  1.0000
  C   C4        1.0  0.17150  0.30640  0.76150  1.0000
  C   C5        1.0  0.70940  0.78910  0.31100  1.0000
  C   C6        1.0  0.29060  0.21090  0.68900  1.0000
  C   C7        1.0  0.49660  0.93280  0.99390  1.0000
  C   C8        1.0  0.50340  0.06720  0.00610  1.0000
  C   C9        1.0  0.00560  0.96700  0.94160  1.0000
  C   C10       1.0  0.99440  0.03300  0.05840  1.0000
