data_image0
_chemical_formula_structural       Mn2S2O14H4C2
_chemical_formula_sum              "Mn2 S2 O14 H4 C2"
_cell_length_a       6.6501
_cell_length_b       7.7034
_cell_length_c       9.681
_cell_angle_alpha    69.85
_cell_angle_beta     70.553
_cell_angle_gamma    83.921

_space_group_name_H-M_alt    "P 1"
_space_group_IT_number       1

loop_
  _space_group_symop_operation_xyz
  'x, y, z'

loop_
  _atom_site_type_symbol
  _atom_site_label
  _atom_site_symmetry_multiplicity
  _atom_site_fract_x
  _atom_site_fract_y
  _atom_site_fract_z
  _atom_site_occupancy
  Mn  Mn1       1.0  0.15469  0.55685  0.67338  1.0000
  Mn  Mn2       1.0  0.84531  0.44315  0.32662  1.0000
  S   S1        1.0  0.32560  0.36182  0.39228  1.0000
  S   S2        1.0  0.67440  0.63818  0.60772  1.0000
  O   O1        1.0  0.22550  0.35960  0.55350  1.0000
  O   O2        1.0  0.77450  0.64040  0.44650  1.0000
  O   O3        1.0  0.18050  0.44560  0.30300  1.0000
  O   O4        1.0  0.81950  0.55440  0.69700  1.0000
  O   O5        1.0  0.38180  0.17530  0.39410  1.0000
  O   O6        1.0  0.61820  0.82470  0.60590  1.0000
  O   O7        1.0  0.51830  0.48120  0.31920  1.0000
  O   O8        1.0  0.48170  0.51880  0.68080  1.0000
  O   O9        1.0  0.07040  0.70480  0.84440  1.0000
  O   O10       1.0  0.92960  0.29520  0.15560  1.0000
  O   O11       1.0  0.92750  0.66210  0.09750  1.0000
  O   O12       1.0  0.07250  0.33790  0.90250  1.0000
  O   O13       1.0  0.22860  0.81880  0.49340  1.0000
  O   O14       1.0  0.77140  0.18120  0.50660  1.0000
  H   H1        1.0  0.16170  0.87210  0.42990  1.0000
  H   H2        1.0  0.83830  0.12790  0.57010  1.0000
  H   H3        1.0  0.30750  0.89980  0.49010  1.0000
  H   H4        1.0  0.69250  0.10020  0.50990  1.0000
  C   C1        1.0  0.99950  0.60650  0.98390  1.0000
  C   C2        1.0  0.00050  0.39350  0.01610  1.0000
