data_image0
_chemical_formula_structural       Mn2S4O30H4O2H4O2H4C6Mn2
_chemical_formula_sum              "Mn4 S4 O34 H12 C6"
_cell_length_a       8.6819
_cell_length_b       10.1689
_cell_length_c       13.7456
_cell_angle_alpha    70.197
_cell_angle_beta     73.406
_cell_angle_gamma    87.636

_space_group_name_H-M_alt    "P 1"
_space_group_IT_number       1

loop_
  _space_group_symop_operation_xyz
  'x, y, z'

loop_
  _atom_site_type_symbol
  _atom_site_label
  _atom_site_symmetry_multiplicity
  _atom_site_fract_x
  _atom_site_fract_y
  _atom_site_fract_z
  _atom_site_occupancy
  Mn  Mn1       1.0  0.90935  0.70722  0.59864  1.0000
  Mn  Mn2       1.0  0.09065  0.29278  0.40136  1.0000
  S   S1        1.0  0.59625  0.80860  0.74422  1.0000
  S   S2        1.0  0.40375  0.19140  0.25578  1.0000
  S   S3        1.0  0.00574  0.44957  0.80245  1.0000
  S   S4        1.0  0.99426  0.55043  0.19755  1.0000
  O   O1        1.0  0.66400  0.71110  0.68530  1.0000
  O   O2        1.0  0.33600  0.28890  0.31470  1.0000
  O   O3        1.0  0.60370  0.74800  0.85200  1.0000
  O   O4        1.0  0.39630  0.25200  0.14800  1.0000
  O   O5        1.0  0.69440  0.94170  0.68320  1.0000
  O   O6        1.0  0.30560  0.05830  0.31680  1.0000
  O   O7        1.0  0.42860  0.82310  0.73990  1.0000
  O   O8        1.0  0.57140  0.17690  0.26010  1.0000
  O   O9        1.0  0.97810  0.59310  0.73964  1.0000
  O   O10       1.0  0.02190  0.40690  0.26036  1.0000
  O   O11       1.0  0.90900  0.34880  0.78490  1.0000
  O   O12       1.0  0.09100  0.65120  0.21510  1.0000
  O   O13       1.0  0.17740  0.42620  0.76760  1.0000
  O   O14       1.0  0.82260  0.57380  0.23240  1.0000
  O   O15       1.0  0.95780  0.43610  0.91699  1.0000
  O   O16       1.0  0.04220  0.56390  0.08301  1.0000
  O   O17       1.0  0.07150  0.87290  0.59620  1.0000
  O   O18       1.0  0.92850  0.12710  0.40380  1.0000
  O   O19       1.0  0.09870  0.10560  0.54325  1.0000
  O   O20       1.0  0.90130  0.89440  0.45675  1.0000
  O   O21       1.0  0.80960  0.54260  0.56138  1.0000
  O   O22       1.0  0.19040  0.45740  0.43862  1.0000
  O   O23       1.0  0.88300  0.36060  0.50584  1.0000
  O   O24       1.0  0.11700  0.63940  0.49416  1.0000
  O   O25       1.0  0.70460  0.05140  0.95060  1.0000
  O   O26       1.0  0.29540  0.94860  0.04940  1.0000
  O   O27       1.0  0.58090  0.84770  0.06753  1.0000
  O   O28       1.0  0.41910  0.15230  0.93247  1.0000
  O   O29       1.0  0.52580  0.42990  0.77170  1.0000
  O   O30       1.0  0.47420  0.57010  0.22830  1.0000
  H   H1        1.0  0.52440  0.42680  0.70920  1.0000
  H   H2        1.0  0.47560  0.57320  0.29080  1.0000
  H   H3        1.0  0.56980  0.51100  0.76100  1.0000
  H   H4        1.0  0.43020  0.48900  0.23900  1.0000
  O   O31       1.0  0.63880  0.35530  0.97050  1.0000
  O   O32       1.0  0.36120  0.64470  0.02950  1.0000
  H   H5        1.0  0.73170  0.36560  0.97960  1.0000
  H   H6        1.0  0.26830  0.63440  0.02040  1.0000
  H   H7        1.0  0.57450  0.30400  0.03170  1.0000
  H   H8        1.0  0.42550  0.69600  0.96830  1.0000
  O   O33       1.0  0.70810  0.18520  0.71510  1.0000
  O   O34       1.0  0.29190  0.81480  0.28490  1.0000
  H   H9        1.0  0.74010  0.10130  0.73260  1.0000
  H   H10       1.0  0.25990  0.89870  0.26740  1.0000
  H   H11       1.0  0.78170  0.23880  0.66100  1.0000
  H   H12       1.0  0.21830  0.76120  0.33900  1.0000
  C   C1        1.0  0.04920  0.99410  0.53990  1.0000
  C   C2        1.0  0.95080  0.00590  0.46010  1.0000
  C   C3        1.0  0.91060  0.47290  0.51930  1.0000
  C   C4        1.0  0.08940  0.52710  0.48070  1.0000
  C   C5        1.0  0.58240  0.97150  0.00510  1.0000
  C   C6        1.0  0.41760  0.02850  0.99490  1.0000
  Mn  Mn3       1.0  0.66308  0.25977  0.84995  1.0000
  Mn  Mn4       1.0  0.33692  0.74023  0.15005  1.0000
