data_image0
_chemical_formula_structural       Cu12O72H16O8H16N16C8H8C40H8C8H8C8H8C40H8C8H8
_chemical_formula_sum              "Cu12 O80 H80 N16 C112"
_cell_length_a       13.668
_cell_length_b       17.525
_cell_length_c       19.059
_cell_angle_alpha    90
_cell_angle_beta     90
_cell_angle_gamma    90

_space_group_name_H-M_alt    "P 1"
_space_group_IT_number       1

loop_
  _space_group_symop_operation_xyz
  'x, y, z'

loop_
  _atom_site_type_symbol
  _atom_site_label
  _atom_site_symmetry_multiplicity
  _atom_site_fract_x
  _atom_site_fract_y
  _atom_site_fract_z
  _atom_site_occupancy
  Cu  Cu1       1.0  0.43001  0.13977  0.60977  1.0000
  Cu  Cu2       1.0  0.06999  0.86023  0.10977  1.0000
  Cu  Cu3       1.0  0.56999  0.63977  0.89023  1.0000
  Cu  Cu4       1.0  0.93001  0.36023  0.39023  1.0000
  Cu  Cu5       1.0  0.56999  0.86023  0.39023  1.0000
  Cu  Cu6       1.0  0.93001  0.13977  0.89023  1.0000
  Cu  Cu7       1.0  0.43001  0.36023  0.10977  1.0000
  Cu  Cu8       1.0  0.06999  0.63977  0.60977  1.0000
  Cu  Cu9       1.0  0.50000  0.00000  0.00000  1.0000
  Cu  Cu10      1.0  0.00000  0.00000  0.50000  1.0000
  Cu  Cu11      1.0  0.50000  0.50000  0.50000  1.0000
  Cu  Cu12      1.0  0.00000  0.50000  0.00000  1.0000
  O   O1        1.0  0.52401  0.11773  0.68530  1.0000
  O   O2        1.0  0.97599  0.88227  0.18530  1.0000
  O   O3        1.0  0.47599  0.61773  0.81470  1.0000
  O   O4        1.0  0.02401  0.38227  0.31470  1.0000
  O   O5        1.0  0.47599  0.88227  0.31470  1.0000
  O   O6        1.0  0.02401  0.11773  0.81470  1.0000
  O   O7        1.0  0.52401  0.38227  0.18530  1.0000
  O   O8        1.0  0.97599  0.61773  0.68530  1.0000
  O   O9        1.0  0.56210  0.99570  0.66380  1.0000
  O   O10       1.0  0.93790  0.00430  0.16380  1.0000
  O   O11       1.0  0.43790  0.49570  0.83620  1.0000
  O   O12       1.0  0.06210  0.50430  0.33620  1.0000
  O   O13       1.0  0.43790  0.00430  0.33620  1.0000
  O   O14       1.0  0.06210  0.99570  0.83620  1.0000
  O   O15       1.0  0.56210  0.50430  0.16380  1.0000
  O   O16       1.0  0.93790  0.49570  0.66380  1.0000
  O   O17       1.0  0.56942  0.04848  0.92371  1.0000
  O   O18       1.0  0.93058  0.95152  0.42371  1.0000
  O   O19       1.0  0.43058  0.54848  0.57629  1.0000
  O   O20       1.0  0.06942  0.45152  0.07629  1.0000
  O   O21       1.0  0.43058  0.95152  0.07629  1.0000
  O   O22       1.0  0.06942  0.04848  0.57629  1.0000
  O   O23       1.0  0.56942  0.45152  0.42371  1.0000
  O   O24       1.0  0.93058  0.54848  0.92371  1.0000
  O   O25       1.0  0.49020  0.01612  0.82526  1.0000
  O   O26       1.0  0.00980  0.98388  0.32526  1.0000
  O   O27       1.0  0.50980  0.51612  0.67474  1.0000
  O   O28       1.0  0.99020  0.48388  0.17474  1.0000
  O   O29       1.0  0.50980  0.98388  0.17474  1.0000
  O   O30       1.0  0.99020  0.01612  0.67474  1.0000
  O   O31       1.0  0.49020  0.48388  0.32526  1.0000
  O   O32       1.0  0.00980  0.51612  0.82526  1.0000
  O   O33       1.0  0.33732  0.31384  0.04337  1.0000
  O   O34       1.0  0.16268  0.68616  0.54337  1.0000
  O   O35       1.0  0.66268  0.81384  0.45663  1.0000
  O   O36       1.0  0.83732  0.18616  0.95663  1.0000
  O   O37       1.0  0.66268  0.68616  0.95663  1.0000
  O   O38       1.0  0.83732  0.31384  0.45663  1.0000
  O   O39       1.0  0.33732  0.18616  0.54337  1.0000
  O   O40       1.0  0.16268  0.81384  0.04337  1.0000
  O   O41       1.0  0.31640  0.21848  0.11941  1.0000
  O   O42       1.0  0.18360  0.78152  0.61941  1.0000
  O   O43       1.0  0.68360  0.71848  0.38059  1.0000
  O   O44       1.0  0.81640  0.28152  0.88059  1.0000
  O   O45       1.0  0.68360  0.78152  0.88059  1.0000
  O   O46       1.0  0.81640  0.21848  0.38059  1.0000
  O   O47       1.0  0.31640  0.28152  0.61941  1.0000
  O   O48       1.0  0.18360  0.71848  0.11941  1.0000
  O   O49       1.0  0.25270  0.02286  0.99433  1.0000
  O   O50       1.0  0.24730  0.97714  0.49433  1.0000
  O   O51       1.0  0.74730  0.52286  0.50567  1.0000
  O   O52       1.0  0.75270  0.47714  0.00567  1.0000
  O   O53       1.0  0.74730  0.97714  0.00567  1.0000
  O   O54       1.0  0.75270  0.02286  0.50567  1.0000
  O   O55       1.0  0.25270  0.47714  0.49433  1.0000
  O   O56       1.0  0.24730  0.52286  0.99433  1.0000
  O   O57       1.0  0.36970  0.11169  0.99723  1.0000
  O   O58       1.0  0.13030  0.88831  0.49723  1.0000
  O   O59       1.0  0.63030  0.61169  0.50277  1.0000
  O   O60       1.0  0.86970  0.38831  0.00277  1.0000
  O   O61       1.0  0.63030  0.88831  0.00277  1.0000
  O   O62       1.0  0.86970  0.11169  0.50277  1.0000
  O   O63       1.0  0.36970  0.38831  0.49723  1.0000
  O   O64       1.0  0.13030  0.61169  0.99723  1.0000
  O   O65       1.0  0.42280  0.02821  0.54687  1.0000
  O   O66       1.0  0.07720  0.97179  0.04687  1.0000
  O   O67       1.0  0.57720  0.52821  0.95313  1.0000
  O   O68       1.0  0.92280  0.47179  0.45313  1.0000
  O   O69       1.0  0.57720  0.97179  0.45313  1.0000
  O   O70       1.0  0.92280  0.02821  0.95313  1.0000
  O   O71       1.0  0.42280  0.47179  0.04687  1.0000
  O   O72       1.0  0.07720  0.52821  0.54687  1.0000
  H   H1        1.0  0.36580  0.01040  0.53220  1.0000
  H   H2        1.0  0.13420  0.98960  0.03220  1.0000
  H   H3        1.0  0.63420  0.51040  0.96780  1.0000
  H   H4        1.0  0.86580  0.48960  0.46780  1.0000
  H   H5        1.0  0.63420  0.98960  0.46780  1.0000
  H   H6        1.0  0.86580  0.01040  0.96780  1.0000
  H   H7        1.0  0.36580  0.48960  0.03220  1.0000
  H   H8        1.0  0.13420  0.51040  0.53220  1.0000
  H   H9        1.0  0.44460  0.00120  0.59190  1.0000
  H   H10       1.0  0.05540  0.99880  0.09190  1.0000
  H   H11       1.0  0.55540  0.50120  0.90810  1.0000
  H   H12       1.0  0.94460  0.49880  0.40810  1.0000
  H   H13       1.0  0.55540  0.99880  0.40810  1.0000
  H   H14       1.0  0.94460  0.00120  0.90810  1.0000
  H   H15       1.0  0.44460  0.49880  0.09190  1.0000
  H   H16       1.0  0.05540  0.50120  0.59190  1.0000
  O   O73       1.0  0.40460  0.95034  0.93666  1.0000
  O   O74       1.0  0.09540  0.04966  0.43666  1.0000
  O   O75       1.0  0.59540  0.45034  0.56334  1.0000
  O   O76       1.0  0.90460  0.54966  0.06334  1.0000
  O   O77       1.0  0.59540  0.04966  0.06334  1.0000
  O   O78       1.0  0.90460  0.95034  0.56334  1.0000
  O   O79       1.0  0.40460  0.54966  0.43666  1.0000
  O   O80       1.0  0.09540  0.45034  0.93666  1.0000
  H   H17       1.0  0.42270  0.97030  0.89480  1.0000
  H   H18       1.0  0.07730  0.02970  0.39480  1.0000
  H   H19       1.0  0.57730  0.47030  0.60520  1.0000
  H   H20       1.0  0.92270  0.52970  0.10520  1.0000
  H   H21       1.0  0.57730  0.02970  0.10520  1.0000
  H   H22       1.0  0.92270  0.97030  0.60520  1.0000
  H   H23       1.0  0.42270  0.52970  0.39480  1.0000
  H   H24       1.0  0.07730  0.47030  0.89480  1.0000
  H   H25       1.0  0.34860  0.96760  0.95120  1.0000
  H   H26       1.0  0.15140  0.03240  0.45120  1.0000
  H   H27       1.0  0.65140  0.46760  0.54880  1.0000
  H   H28       1.0  0.84860  0.53240  0.04880  1.0000
  H   H29       1.0  0.65140  0.03240  0.04880  1.0000
  H   H30       1.0  0.84860  0.96760  0.54880  1.0000
  H   H31       1.0  0.34860  0.53240  0.45120  1.0000
  H   H32       1.0  0.15140  0.46760  0.95120  1.0000
  N   N1        1.0  0.81960  0.10564  0.82728  1.0000
  N   N2        1.0  0.68040  0.89436  0.32728  1.0000
  N   N3        1.0  0.18040  0.60564  0.67272  1.0000
  N   N4        1.0  0.31960  0.39436  0.17272  1.0000
  N   N5        1.0  0.18040  0.89436  0.17272  1.0000
  N   N6        1.0  0.31960  0.10564  0.67272  1.0000
  N   N7        1.0  0.81960  0.39436  0.32728  1.0000
  N   N8        1.0  0.68040  0.60564  0.82728  1.0000
  N   N9        1.0  0.04340  0.18052  0.94702  1.0000
  N   N10       1.0  0.45660  0.81948  0.44702  1.0000
  N   N11       1.0  0.95660  0.68052  0.55298  1.0000
  N   N12       1.0  0.54340  0.31948  0.05298  1.0000
  N   N13       1.0  0.95660  0.81948  0.05298  1.0000
  N   N14       1.0  0.54340  0.18052  0.55298  1.0000
  N   N15       1.0  0.04340  0.31948  0.44702  1.0000
  N   N16       1.0  0.45660  0.68052  0.94702  1.0000
  C   C1        1.0  0.73560  0.08211  0.85602  1.0000
  C   C2        1.0  0.76440  0.91789  0.35602  1.0000
  C   C3        1.0  0.26440  0.58211  0.64398  1.0000
  C   C4        1.0  0.23560  0.41789  0.14398  1.0000
  C   C5        1.0  0.26440  0.91789  0.14398  1.0000
  C   C6        1.0  0.23560  0.08211  0.64398  1.0000
  C   C7        1.0  0.73560  0.41789  0.35602  1.0000
  C   C8        1.0  0.76440  0.58211  0.85602  1.0000
  H   H33       1.0  0.73280  0.07760  0.90460  1.0000
  H   H34       1.0  0.76720  0.92240  0.40460  1.0000
  H   H35       1.0  0.26720  0.57760  0.59540  1.0000
  H   H36       1.0  0.23280  0.42240  0.09540  1.0000
  H   H37       1.0  0.26720  0.92240  0.09540  1.0000
  H   H38       1.0  0.23280  0.07760  0.59540  1.0000
  H   H39       1.0  0.73280  0.42240  0.40460  1.0000
  H   H40       1.0  0.76720  0.57760  0.90460  1.0000
  C   C9        1.0  0.65250  0.06405  0.81799  1.0000
  C   C10       1.0  0.84750  0.93595  0.31799  1.0000
  C   C11       1.0  0.34750  0.56405  0.68201  1.0000
  C   C12       1.0  0.15250  0.43595  0.18201  1.0000
  C   C13       1.0  0.34750  0.93595  0.18201  1.0000
  C   C14       1.0  0.15250  0.06405  0.68201  1.0000
  C   C15       1.0  0.65250  0.43595  0.31799  1.0000
  C   C16       1.0  0.84750  0.56405  0.81799  1.0000
  C   C17       1.0  0.56180  0.04040  0.85782  1.0000
  C   C18       1.0  0.93820  0.95960  0.35782  1.0000
  C   C19       1.0  0.43820  0.54040  0.64218  1.0000
  C   C20       1.0  0.06180  0.45960  0.14218  1.0000
  C   C21       1.0  0.43820  0.95960  0.14218  1.0000
  C   C22       1.0  0.06180  0.04040  0.64218  1.0000
  C   C23       1.0  0.56180  0.45960  0.35782  1.0000
  C   C24       1.0  0.93820  0.54040  0.85782  1.0000
  C   C25       1.0  0.65760  0.06804  0.74465  1.0000
  C   C26       1.0  0.84240  0.93196  0.24465  1.0000
  C   C27       1.0  0.34240  0.56804  0.75535  1.0000
  C   C28       1.0  0.15760  0.43196  0.25535  1.0000
  C   C29       1.0  0.34240  0.93196  0.25535  1.0000
  C   C30       1.0  0.15760  0.06804  0.75535  1.0000
  C   C31       1.0  0.65760  0.43196  0.24465  1.0000
  C   C32       1.0  0.84240  0.56804  0.74465  1.0000
  C   C33       1.0  0.57230  0.05680  0.69495  1.0000
  C   C34       1.0  0.92770  0.94320  0.19495  1.0000
  C   C35       1.0  0.42770  0.55680  0.80505  1.0000
  C   C36       1.0  0.07230  0.44320  0.30505  1.0000
  C   C37       1.0  0.42770  0.94320  0.30505  1.0000
  C   C38       1.0  0.07230  0.05680  0.80505  1.0000
  C   C39       1.0  0.57230  0.44320  0.19495  1.0000
  C   C40       1.0  0.92770  0.55680  0.69495  1.0000
  C   C41       1.0  0.74660  0.08960  0.71525  1.0000
  C   C42       1.0  0.75340  0.91040  0.21525  1.0000
  C   C43       1.0  0.25340  0.58960  0.78475  1.0000
  C   C44       1.0  0.24660  0.41040  0.28475  1.0000
  C   C45       1.0  0.25340  0.91040  0.28475  1.0000
  C   C46       1.0  0.24660  0.08960  0.78475  1.0000
  C   C47       1.0  0.74660  0.41040  0.21525  1.0000
  C   C48       1.0  0.75340  0.58960  0.71525  1.0000
  H   H41       1.0  0.75320  0.09120  0.66670  1.0000
  H   H42       1.0  0.74680  0.90880  0.16670  1.0000
  H   H43       1.0  0.24680  0.59120  0.83330  1.0000
  H   H44       1.0  0.25320  0.40880  0.33330  1.0000
  H   H45       1.0  0.24680  0.90880  0.33330  1.0000
  H   H46       1.0  0.25320  0.09120  0.83330  1.0000
  H   H47       1.0  0.75320  0.40880  0.16670  1.0000
  H   H48       1.0  0.74680  0.59120  0.66670  1.0000
  C   C49       1.0  0.82500  0.10870  0.75688  1.0000
  C   C50       1.0  0.67500  0.89130  0.25688  1.0000
  C   C51       1.0  0.17500  0.60870  0.74312  1.0000
  C   C52       1.0  0.32500  0.39130  0.24312  1.0000
  C   C53       1.0  0.17500  0.89130  0.24312  1.0000
  C   C54       1.0  0.32500  0.10870  0.74312  1.0000
  C   C55       1.0  0.82500  0.39130  0.25688  1.0000
  C   C56       1.0  0.67500  0.60870  0.75688  1.0000
  H   H49       1.0  0.88320  0.12400  0.73590  1.0000
  H   H50       1.0  0.61680  0.87600  0.23590  1.0000
  H   H51       1.0  0.11680  0.62400  0.76410  1.0000
  H   H52       1.0  0.38320  0.37600  0.26410  1.0000
  H   H53       1.0  0.11680  0.87600  0.26410  1.0000
  H   H54       1.0  0.38320  0.12400  0.76410  1.0000
  H   H55       1.0  0.88320  0.37600  0.23590  1.0000
  H   H56       1.0  0.61680  0.62400  0.73590  1.0000
  C   C57       1.0  0.11870  0.13250  0.95771  1.0000
  C   C58       1.0  0.38130  0.86750  0.45771  1.0000
  C   C59       1.0  0.88130  0.63250  0.54229  1.0000
  C   C60       1.0  0.61870  0.36750  0.04229  1.0000
  C   C61       1.0  0.88130  0.86750  0.04229  1.0000
  C   C62       1.0  0.61870  0.13250  0.54229  1.0000
  C   C63       1.0  0.11870  0.36750  0.45771  1.0000
  C   C64       1.0  0.38130  0.63250  0.95771  1.0000
  H   H57       1.0  0.11360  0.08320  0.93990  1.0000
  H   H58       1.0  0.38640  0.91680  0.43990  1.0000
  H   H59       1.0  0.88640  0.58320  0.56010  1.0000
  H   H60       1.0  0.61360  0.41680  0.06010  1.0000
  H   H61       1.0  0.88640  0.91680  0.06010  1.0000
  H   H62       1.0  0.61360  0.08320  0.56010  1.0000
  H   H63       1.0  0.11360  0.41680  0.43990  1.0000
  H   H64       1.0  0.38640  0.58320  0.93990  1.0000
  C   C65       1.0  0.20360  0.15170  0.99374  1.0000
  C   C66       1.0  0.29640  0.84830  0.49374  1.0000
  C   C67       1.0  0.79640  0.65170  0.50626  1.0000
  C   C68       1.0  0.70360  0.34830  0.00626  1.0000
  C   C69       1.0  0.79640  0.84830  0.00626  1.0000
  C   C70       1.0  0.70360  0.15170  0.50626  1.0000
  C   C71       1.0  0.20360  0.34830  0.49374  1.0000
  C   C72       1.0  0.29640  0.65170  0.99374  1.0000
  C   C73       1.0  0.28310  0.09120  0.99696  1.0000
  C   C74       1.0  0.21690  0.90880  0.49696  1.0000
  C   C75       1.0  0.71690  0.59120  0.50304  1.0000
  C   C76       1.0  0.78310  0.40880  0.00304  1.0000
  C   C77       1.0  0.71690  0.90880  0.00304  1.0000
  C   C78       1.0  0.78310  0.09120  0.50304  1.0000
  C   C79       1.0  0.28310  0.40880  0.49696  1.0000
  C   C80       1.0  0.21690  0.59120  0.99696  1.0000
  C   C81       1.0  0.21100  0.22580  0.02048  1.0000
  C   C82       1.0  0.28900  0.77420  0.52048  1.0000
  C   C83       1.0  0.78900  0.72580  0.47952  1.0000
  C   C84       1.0  0.71100  0.27420  0.97952  1.0000
  C   C85       1.0  0.78900  0.77420  0.97952  1.0000
  C   C86       1.0  0.71100  0.22580  0.47952  1.0000
  C   C87       1.0  0.21100  0.27420  0.52048  1.0000
  C   C88       1.0  0.28900  0.72580  0.02048  1.0000
  C   C89       1.0  0.29660  0.25240  0.06544  1.0000
  C   C90       1.0  0.20340  0.74760  0.56544  1.0000
  C   C91       1.0  0.70340  0.75240  0.43456  1.0000
  C   C92       1.0  0.79660  0.24760  0.93456  1.0000
  C   C93       1.0  0.70340  0.74760  0.93456  1.0000
  C   C94       1.0  0.79660  0.25240  0.43456  1.0000
  C   C95       1.0  0.29660  0.24760  0.56544  1.0000
  C   C96       1.0  0.20340  0.75240  0.06544  1.0000
  C   C97       1.0  0.13280  0.27520  0.00949  1.0000
  C   C98       1.0  0.36720  0.72480  0.50949  1.0000
  C   C99       1.0  0.86720  0.77520  0.49051  1.0000
  C   C100      1.0  0.63280  0.22480  0.99051  1.0000
  C   C101      1.0  0.86720  0.72480  0.99051  1.0000
  C   C102      1.0  0.63280  0.27520  0.49051  1.0000
  C   C103      1.0  0.13280  0.22480  0.50949  1.0000
  C   C104      1.0  0.36720  0.77520  0.00949  1.0000
  H   H65       1.0  0.13580  0.32490  0.02640  1.0000
  H   H66       1.0  0.36420  0.67510  0.52640  1.0000
  H   H67       1.0  0.86420  0.82490  0.47360  1.0000
  H   H68       1.0  0.63580  0.17510  0.97360  1.0000
  H   H69       1.0  0.86420  0.67510  0.97360  1.0000
  H   H70       1.0  0.63580  0.32490  0.47360  1.0000
  H   H71       1.0  0.13580  0.17510  0.52640  1.0000
  H   H72       1.0  0.36420  0.82490  0.02640  1.0000
  C   C105      1.0  0.05111  0.25105  0.97374  1.0000
  C   C106      1.0  0.44889  0.74895  0.47374  1.0000
  C   C107      1.0  0.94889  0.75105  0.52626  1.0000
  C   C108      1.0  0.55111  0.24895  0.02626  1.0000
  C   C109      1.0  0.94889  0.74895  0.02626  1.0000
  C   C110      1.0  0.55111  0.25105  0.52626  1.0000
  C   C111      1.0  0.05111  0.24895  0.47374  1.0000
  C   C112      1.0  0.44889  0.75105  0.97374  1.0000
  H   H73       1.0  0.99930  0.28490  0.96790  1.0000
  H   H74       1.0  0.50070  0.71510  0.46790  1.0000
  H   H75       1.0  0.00070  0.78490  0.53210  1.0000
  H   H76       1.0  0.49930  0.21510  0.03210  1.0000
  H   H77       1.0  0.00070  0.71510  0.03210  1.0000
  H   H78       1.0  0.49930  0.28490  0.53210  1.0000
  H   H79       1.0  0.99930  0.21510  0.46790  1.0000
  H   H80       1.0  0.50070  0.78490  0.96790  1.0000
