data_image0
_chemical_formula_structural       U8O56C32N8H48
_chemical_formula_sum              "U8 O56 C32 N8 H48"
_cell_length_a       21.976
_cell_length_b       7.117
_cell_length_c       16.251
_cell_angle_alpha    90
_cell_angle_beta     98.97
_cell_angle_gamma    90

_space_group_name_H-M_alt    "P 1"
_space_group_IT_number       1

loop_
  _space_group_symop_operation_xyz
  'x, y, z'

loop_
  _atom_site_type_symbol
  _atom_site_label
  _atom_site_symmetry_multiplicity
  _atom_site_fract_x
  _atom_site_fract_y
  _atom_site_fract_z
  _atom_site_occupancy
  U   U1        1.0  0.36704  0.00941  0.06267  1.0000
  U   U2        1.0  0.86704  0.50941  0.06267  1.0000
  U   U3        1.0  0.63296  0.00941  0.43733  1.0000
  U   U4        1.0  0.13296  0.50941  0.43733  1.0000
  U   U5        1.0  0.63296  0.99059  0.93733  1.0000
  U   U6        1.0  0.13296  0.49059  0.93733  1.0000
  U   U7        1.0  0.36704  0.99059  0.56267  1.0000
  U   U8        1.0  0.86704  0.49059  0.56267  1.0000
  O   O1        1.0  0.39340  0.83560  0.13930  1.0000
  O   O2        1.0  0.89340  0.33560  0.13930  1.0000
  O   O3        1.0  0.60660  0.83560  0.36070  1.0000
  O   O4        1.0  0.10660  0.33560  0.36070  1.0000
  O   O5        1.0  0.60660  0.16440  0.86070  1.0000
  O   O6        1.0  0.10660  0.66440  0.86070  1.0000
  O   O7        1.0  0.39340  0.16440  0.63930  1.0000
  O   O8        1.0  0.89340  0.66440  0.63930  1.0000
  O   O9        1.0  0.34140  0.17390  0.98080  1.0000
  O   O10       1.0  0.84140  0.67390  0.98080  1.0000
  O   O11       1.0  0.65860  0.17390  0.51920  1.0000
  O   O12       1.0  0.15860  0.67390  0.51920  1.0000
  O   O13       1.0  0.65860  0.82610  0.01920  1.0000
  O   O14       1.0  0.15860  0.32610  0.01920  1.0000
  O   O15       1.0  0.34140  0.82610  0.48080  1.0000
  O   O16       1.0  0.84140  0.32610  0.48080  1.0000
  O   O17       1.0  0.47140  0.15760  0.06530  1.0000
  O   O18       1.0  0.97140  0.65760  0.06530  1.0000
  O   O19       1.0  0.52860  0.15760  0.43470  1.0000
  O   O20       1.0  0.02860  0.65760  0.43470  1.0000
  O   O21       1.0  0.52860  0.84240  0.93470  1.0000
  O   O22       1.0  0.02860  0.34240  0.93470  1.0000
  O   O23       1.0  0.47140  0.84240  0.56530  1.0000
  O   O24       1.0  0.97140  0.34240  0.56530  1.0000
  O   O25       1.0  0.43670  0.85360  0.97610  1.0000
  O   O26       1.0  0.93670  0.35360  0.97610  1.0000
  O   O27       1.0  0.56330  0.85360  0.52390  1.0000
  O   O28       1.0  0.06330  0.35360  0.52390  1.0000
  O   O29       1.0  0.56330  0.14640  0.02390  1.0000
  O   O30       1.0  0.06330  0.64640  0.02390  1.0000
  O   O31       1.0  0.43670  0.14640  0.47610  1.0000
  O   O32       1.0  0.93670  0.64640  0.47610  1.0000
  O   O33       1.0  0.26060  0.92270  0.07590  1.0000
  O   O34       1.0  0.76060  0.42270  0.07590  1.0000
  O   O35       1.0  0.73940  0.92270  0.42410  1.0000
  O   O36       1.0  0.23940  0.42270  0.42410  1.0000
  O   O37       1.0  0.73940  0.07730  0.92410  1.0000
  O   O38       1.0  0.23940  0.57730  0.92410  1.0000
  O   O39       1.0  0.26060  0.07730  0.57590  1.0000
  O   O40       1.0  0.76060  0.57730  0.57590  1.0000
  O   O41       1.0  0.31990  0.75760  0.96600  1.0000
  O   O42       1.0  0.81990  0.25760  0.96600  1.0000
  O   O43       1.0  0.68010  0.75760  0.53400  1.0000
  O   O44       1.0  0.18010  0.25760  0.53400  1.0000
  O   O45       1.0  0.68010  0.24240  0.03400  1.0000
  O   O46       1.0  0.18010  0.74240  0.03400  1.0000
  O   O47       1.0  0.31990  0.24240  0.46600  1.0000
  O   O48       1.0  0.81990  0.74240  0.46600  1.0000
  O   O49       1.0  0.39490  0.23490  0.16100  1.0000
  O   O50       1.0  0.89490  0.73490  0.16100  1.0000
  O   O51       1.0  0.60510  0.23490  0.33900  1.0000
  O   O52       1.0  0.10510  0.73490  0.33900  1.0000
  O   O53       1.0  0.60510  0.76510  0.83900  1.0000
  O   O54       1.0  0.10510  0.26510  0.83900  1.0000
  O   O55       1.0  0.39490  0.76510  0.66100  1.0000
  O   O56       1.0  0.89490  0.26510  0.66100  1.0000
  C   C1        1.0  0.51000  0.08740  0.02660  1.0000
  C   C2        1.0  0.01000  0.58740  0.02660  1.0000
  C   C3        1.0  0.49000  0.08740  0.47340  1.0000
  C   C4        1.0  0.99000  0.58740  0.47340  1.0000
  C   C5        1.0  0.49000  0.91260  0.97340  1.0000
  C   C6        1.0  0.99000  0.41260  0.97340  1.0000
  C   C7        1.0  0.51000  0.91260  0.52660  1.0000
  C   C8        1.0  0.01000  0.41260  0.52660  1.0000
  C   C9        1.0  0.23290  0.79760  0.03140  1.0000
  C   C10       1.0  0.73290  0.29760  0.03140  1.0000
  C   C11       1.0  0.76710  0.79760  0.46860  1.0000
  C   C12       1.0  0.26710  0.29760  0.46860  1.0000
  C   C13       1.0  0.76710  0.20240  0.96860  1.0000
  C   C14       1.0  0.26710  0.70240  0.96860  1.0000
  C   C15       1.0  0.23290  0.20240  0.53140  1.0000
  C   C16       1.0  0.73290  0.70240  0.53140  1.0000
  C   C17       1.0  0.30010  0.39010  0.14130  1.0000
  C   C18       1.0  0.80010  0.89010  0.14130  1.0000
  C   C19       1.0  0.69990  0.39010  0.35870  1.0000
  C   C20       1.0  0.19990  0.89010  0.35870  1.0000
  C   C21       1.0  0.69990  0.60990  0.85870  1.0000
  C   C22       1.0  0.19990  0.10990  0.85870  1.0000
  C   C23       1.0  0.30010  0.60990  0.64130  1.0000
  C   C24       1.0  0.80010  0.10990  0.64130  1.0000
  C   C25       1.0  0.32220  0.14440  0.24660  1.0000
  C   C26       1.0  0.82220  0.64440  0.24660  1.0000
  C   C27       1.0  0.67780  0.14440  0.25340  1.0000
  C   C28       1.0  0.17780  0.64440  0.25340  1.0000
  C   C29       1.0  0.67780  0.85560  0.75340  1.0000
  C   C30       1.0  0.17780  0.35560  0.75340  1.0000
  C   C31       1.0  0.32220  0.85560  0.74660  1.0000
  C   C32       1.0  0.82220  0.35560  0.74660  1.0000
  N   N1        1.0  0.33150  0.21330  0.16390  1.0000
  N   N2        1.0  0.83150  0.71330  0.16390  1.0000
  N   N3        1.0  0.66850  0.21330  0.33610  1.0000
  N   N4        1.0  0.16850  0.71330  0.33610  1.0000
  N   N5        1.0  0.66850  0.78670  0.83610  1.0000
  N   N6        1.0  0.16850  0.28670  0.83610  1.0000
  N   N7        1.0  0.33150  0.78670  0.66390  1.0000
  N   N8        1.0  0.83150  0.28670  0.66390  1.0000
  H   H1        1.0  0.32300  0.41700  0.08300  1.0000
  H   H2        1.0  0.82300  0.91700  0.08300  1.0000
  H   H3        1.0  0.67700  0.41700  0.41700  1.0000
  H   H4        1.0  0.17700  0.91700  0.41700  1.0000
  H   H5        1.0  0.67700  0.58300  0.91700  1.0000
  H   H6        1.0  0.17700  0.08300  0.91700  1.0000
  H   H7        1.0  0.32300  0.58300  0.58300  1.0000
  H   H8        1.0  0.82300  0.08300  0.58300  1.0000
  H   H9        1.0  0.25200  0.38000  0.12600  1.0000
  H   H10       1.0  0.75200  0.88000  0.12600  1.0000
  H   H11       1.0  0.74800  0.38000  0.37400  1.0000
  H   H12       1.0  0.24800  0.88000  0.37400  1.0000
  H   H13       1.0  0.74800  0.62000  0.87400  1.0000
  H   H14       1.0  0.24800  0.12000  0.87400  1.0000
  H   H15       1.0  0.25200  0.62000  0.62600  1.0000
  H   H16       1.0  0.75200  0.12000  0.62600  1.0000
  H   H17       1.0  0.31100  0.49800  0.18600  1.0000
  H   H18       1.0  0.81100  0.99800  0.18600  1.0000
  H   H19       1.0  0.68900  0.49800  0.31400  1.0000
  H   H20       1.0  0.18900  0.99800  0.31400  1.0000
  H   H21       1.0  0.68900  0.50200  0.81400  1.0000
  H   H22       1.0  0.18900  0.00200  0.81400  1.0000
  H   H23       1.0  0.31100  0.50200  0.68600  1.0000
  H   H24       1.0  0.81100  0.00200  0.68600  1.0000
  H   H25       1.0  0.32800  0.24600  0.28400  1.0000
  H   H26       1.0  0.82800  0.74600  0.28400  1.0000
  H   H27       1.0  0.67200  0.24600  0.21600  1.0000
  H   H28       1.0  0.17200  0.74600  0.21600  1.0000
  H   H29       1.0  0.67200  0.75400  0.71600  1.0000
  H   H30       1.0  0.17200  0.25400  0.71600  1.0000
  H   H31       1.0  0.32800  0.75400  0.78400  1.0000
  H   H32       1.0  0.82800  0.25400  0.78400  1.0000
  H   H33       1.0  0.27800  0.09000  0.24600  1.0000
  H   H34       1.0  0.77800  0.59000  0.24600  1.0000
  H   H35       1.0  0.72200  0.09000  0.25400  1.0000
  H   H36       1.0  0.22200  0.59000  0.25400  1.0000
  H   H37       1.0  0.72200  0.91000  0.75400  1.0000
  H   H38       1.0  0.22200  0.41000  0.75400  1.0000
  H   H39       1.0  0.27800  0.91000  0.74600  1.0000
  H   H40       1.0  0.77800  0.41000  0.74600  1.0000
  H   H41       1.0  0.35400  0.03800  0.26800  1.0000
  H   H42       1.0  0.85400  0.53800  0.26800  1.0000
  H   H43       1.0  0.64600  0.03800  0.23200  1.0000
  H   H44       1.0  0.14600  0.53800  0.23200  1.0000
  H   H45       1.0  0.64600  0.96200  0.73200  1.0000
  H   H46       1.0  0.14600  0.46200  0.73200  1.0000
  H   H47       1.0  0.35400  0.96200  0.76800  1.0000
  H   H48       1.0  0.85400  0.46200  0.76800  1.0000
