data_image0
_chemical_formula_structural       Ni3Co2N2H2N2H2N2H2N2H2N2H2N2H2N6O24C2H4C2H4C2H4C2H4C2H4C2H4C2H4C2H4C2H4C2H4C2H4C2H4C2H4C2H4C2H4C4H2C2H2C4H2C8H2C2H2C4H2C8H2C2H2C4H2C4
_chemical_formula_sum              "Ni3 Co2 N18 H90 O24 C72"
_cell_length_a       11.4952
_cell_length_b       11.5504
_cell_length_c       21.6426
_cell_angle_alpha    94.351
_cell_angle_beta     91.218
_cell_angle_gamma    113.627

_space_group_name_H-M_alt    "P 1"
_space_group_IT_number       1

loop_
  _space_group_symop_operation_xyz
  'x, y, z'

loop_
  _atom_site_type_symbol
  _atom_site_label
  _atom_site_symmetry_multiplicity
  _atom_site_fract_x
  _atom_site_fract_y
  _atom_site_fract_z
  _atom_site_occupancy
  Ni  Ni1       1.0  0.18614  0.25702  0.75661  1.0000
  Ni  Ni2       1.0  0.81386  0.74298  0.24339  1.0000
  Ni  Ni3       1.0  0.50000  0.00000  0.50000  1.0000
  Co  Co1       1.0  0.91619  0.54514  0.73211  1.0000
  Co  Co2       1.0  0.08381  0.45486  0.26789  1.0000
  N   N1        1.0  0.17160  0.22100  0.84909  1.0000
  N   N2        1.0  0.82840  0.77900  0.15091  1.0000
  H   H1        1.0  0.23600  0.20500  0.86100  1.0000
  H   H2        1.0  0.76400  0.79500  0.13900  1.0000
  N   N3        1.0  0.25690  0.44660  0.79051  1.0000
  N   N4        1.0  0.74310  0.55340  0.20949  1.0000
  H   H3        1.0  0.20600  0.48500  0.78900  1.0000
  H   H4        1.0  0.79400  0.51500  0.21100  1.0000
  N   N5        1.0  0.19460  0.29090  0.66428  1.0000
  N   N6        1.0  0.80540  0.70910  0.33572  1.0000
  H   H5        1.0  0.11400  0.30800  0.65400  1.0000
  H   H6        1.0  0.88600  0.69200  0.34600  1.0000
  N   N7        1.0  0.11570  0.06600  0.72367  1.0000
  N   N8        1.0  0.88430  0.93400  0.27633  1.0000
  H   H7        1.0  0.17800  0.03900  0.72100  1.0000
  H   H8        1.0  0.82200  0.96100  0.27900  1.0000
  N   N9        1.0  0.39930  0.82090  0.45548  1.0000
  N   N10       1.0  0.60070  0.17910  0.54452  1.0000
  H   H9        1.0  0.33200  0.77600  0.48010  1.0000
  H   H10       1.0  0.66800  0.22400  0.51990  1.0000
  N   N11       1.0  0.36650  0.06980  0.47620  1.0000
  N   N12       1.0  0.63350  0.93020  0.52380  1.0000
  H   H11       1.0  0.30000  0.04000  0.50200  1.0000
  H   H12       1.0  0.70000  0.96000  0.49800  1.0000
  N   N13       1.0  0.79630  0.64200  0.73407  1.0000
  N   N14       1.0  0.20370  0.35800  0.26593  1.0000
  N   N15       1.0  0.76770  0.37320  0.75299  1.0000
  N   N16       1.0  0.23230  0.62680  0.24701  1.0000
  N   N17       1.0  0.08990  0.69490  0.71427  1.0000
  N   N18       1.0  0.91010  0.30510  0.28573  1.0000
  O   O1        1.0  0.85650  0.52340  0.63932  1.0000
  O   O2        1.0  0.14350  0.47660  0.36068  1.0000
  O   O3        1.0  0.75400  0.59020  0.57068  1.0000
  O   O4        1.0  0.24600  0.40980  0.42932  1.0000
  O   O5        1.0  0.68020  0.79390  0.88820  1.0000
  O   O6        1.0  0.31980  0.20610  0.11180  1.0000
  O   O7        1.0  0.57920  0.87580  0.82969  1.0000
  O   O8        1.0  0.42080  0.12420  0.17031  1.0000
  O   O9        1.0  0.01090  0.42560  0.73264  1.0000
  O   O10       1.0  0.98910  0.57440  0.26736  1.0000
  O   O11       1.0  0.99230  0.23500  0.75538  1.0000
  O   O12       1.0  0.00770  0.76500  0.24462  1.0000
  O   O13       1.0  0.37690  0.27280  0.75599  1.0000
  O   O14       1.0  0.62310  0.72720  0.24401  1.0000
  O   O15       1.0  0.35790  0.10970  0.81127  1.0000
  O   O16       1.0  0.64210  0.89030  0.18873  1.0000
  O   O17       1.0  0.99470  0.61710  0.82122  1.0000
  O   O18       1.0  0.00530  0.38290  0.17878  1.0000
  O   O19       1.0  0.18380  0.70900  0.87242  1.0000
  O   O20       1.0  0.81620  0.29100  0.12758  1.0000
  O   O21       1.0  0.40980  0.93650  0.58463  1.0000
  O   O22       1.0  0.59020  0.06350  0.41537  1.0000
  O   O23       1.0  0.20540  0.88300  0.55623  1.0000
  O   O24       1.0  0.79460  0.11700  0.44377  1.0000
  C   C1        1.0  0.18600  0.34030  0.88440  1.0000
  C   C2        1.0  0.81400  0.65970  0.11560  1.0000
  H   H13       1.0  0.20990  0.33900  0.92850  1.0000
  H   H14       1.0  0.79010  0.66100  0.07150  1.0000
  H   H15       1.0  0.10460  0.35050  0.88240  1.0000
  H   H16       1.0  0.89540  0.64950  0.11760  1.0000
  C   C3        1.0  0.28790  0.44900  0.85690  1.0000
  C   C4        1.0  0.71210  0.55100  0.14310  1.0000
  H   H17       1.0  0.29500  0.53040  0.87870  1.0000
  H   H18       1.0  0.70500  0.46960  0.12130  1.0000
  H   H19       1.0  0.37080  0.44270  0.86250  1.0000
  H   H20       1.0  0.62920  0.55730  0.13750  1.0000
  C   C5        1.0  0.35880  0.53450  0.75560  1.0000
  C   C6        1.0  0.64120  0.46550  0.24440  1.0000
  H   H21       1.0  0.43510  0.51520  0.75930  1.0000
  H   H22       1.0  0.56490  0.48480  0.24070  1.0000
  H   H23       1.0  0.38200  0.62250  0.77400  1.0000
  H   H24       1.0  0.61800  0.37750  0.22600  1.0000
  C   C7        1.0  0.31790  0.52440  0.68660  1.0000
  C   C8        1.0  0.68210  0.47560  0.31340  1.0000
  H   H25       1.0  0.23420  0.52990  0.68360  1.0000
  H   H26       1.0  0.76580  0.47010  0.31640  1.0000
  H   H27       1.0  0.37980  0.59810  0.66760  1.0000
  H   H28       1.0  0.62020  0.40190  0.33240  1.0000
  C   C9        1.0  0.30770  0.40290  0.64880  1.0000
  C   C10       1.0  0.69230  0.59710  0.35120  1.0000
  H   H29       1.0  0.30180  0.41320  0.60400  1.0000
  H   H30       1.0  0.69820  0.58680  0.39600  1.0000
  H   H31       1.0  0.38550  0.38840  0.65740  1.0000
  H   H32       1.0  0.61450  0.61160  0.34260  1.0000
  C   C11       1.0  0.18290  0.17210  0.62890  1.0000
  C   C12       1.0  0.81710  0.82790  0.37110  1.0000
  H   H33       1.0  0.26510  0.16340  0.63130  1.0000
  H   H34       1.0  0.73490  0.83660  0.36870  1.0000
  H   H35       1.0  0.15910  0.17280  0.58480  1.0000
  H   H36       1.0  0.84090  0.82720  0.41520  1.0000
  C   C13       1.0  0.08240  0.06370  0.65650  1.0000
  C   C14       1.0  0.91760  0.93630  0.34350  1.0000
  H   H37       1.0  0.99940  0.07010  0.65160  1.0000
  H   H38       1.0  0.00060  0.92990  0.34840  1.0000
  H   H39       1.0  0.07480  0.98250  0.63440  1.0000
  H   H40       1.0  0.92520  0.01750  0.36560  1.0000
  C   C15       1.0  0.01110  0.97850  0.75730  1.0000
  C   C16       1.0  0.98890  0.02150  0.24270  1.0000
  H   H41       1.0  0.98890  0.89040  0.73930  1.0000
  H   H42       1.0  0.01110  0.10960  0.26070  1.0000
  H   H43       1.0  0.93520  0.99780  0.75160  1.0000
  H   H44       1.0  0.06480  0.00220  0.24840  1.0000
  C   C17       1.0  0.04560  0.98840  0.82640  1.0000
  C   C18       1.0  0.95440  0.01160  0.17360  1.0000
  H   H45       1.0  0.97980  0.91620  0.84460  1.0000
  H   H46       1.0  0.02020  0.08380  0.15540  1.0000
  H   H47       1.0  0.12710  0.97880  0.83130  1.0000
  H   H48       1.0  0.87290  0.02120  0.16870  1.0000
  C   C19       1.0  0.05870  0.11000  0.86360  1.0000
  C   C20       1.0  0.94130  0.89000  0.13640  1.0000
  H   H49       1.0  0.98170  0.12580  0.85510  1.0000
  H   H50       1.0  0.01830  0.87420  0.14490  1.0000
  H   H51       1.0  0.06400  0.09920  0.90840  1.0000
  H   H52       1.0  0.93600  0.90080  0.09160  1.0000
  C   C21       1.0  0.48990  0.76240  0.44950  1.0000
  C   C22       1.0  0.51010  0.23760  0.55050  1.0000
  H   H53       1.0  0.54470  0.79550  0.41470  1.0000
  H   H54       1.0  0.45530  0.20450  0.58530  1.0000
  H   H55       1.0  0.44400  0.66930  0.44050  1.0000
  H   H56       1.0  0.55600  0.33070  0.55950  1.0000
  C   C23       1.0  0.33200  0.81830  0.39506  1.0000
  C   C24       1.0  0.66800  0.18170  0.60494  1.0000
  H   H57       1.0  0.28280  0.72890  0.37860  1.0000
  H   H58       1.0  0.71720  0.27110  0.62140  1.0000
  H   H59       1.0  0.39590  0.85920  0.36480  1.0000
  H   H60       1.0  0.60410  0.14080  0.63520  1.0000
  C   C25       1.0  0.24270  0.88540  0.40120  1.0000
  C   C26       1.0  0.75730  0.11460  0.59880  1.0000
  H   H61       1.0  0.18780  0.86400  0.36250  1.0000
  H   H62       1.0  0.81220  0.13600  0.63750  1.0000
  H   H63       1.0  0.18680  0.85190  0.43550  1.0000
  H   H64       1.0  0.81320  0.14810  0.56450  1.0000
  C   C27       1.0  0.30670  0.02870  0.41320  1.0000
  C   C28       1.0  0.69330  0.97130  0.58680  1.0000
  H   H65       1.0  0.37230  0.06230  0.38270  1.0000
  H   H66       1.0  0.62770  0.93770  0.61730  1.0000
  H   H67       1.0  0.24280  0.06470  0.40710  1.0000
  H   H68       1.0  0.75720  0.93530  0.59290  1.0000
  C   C29       1.0  0.57130  0.79250  0.50990  1.0000
  C   C30       1.0  0.42870  0.20750  0.49010  1.0000
  H   H69       1.0  0.63610  0.75660  0.50580  1.0000
  H   H70       1.0  0.36390  0.24340  0.49420  1.0000
  H   H71       1.0  0.51720  0.75400  0.54410  1.0000
  H   H72       1.0  0.48280  0.24600  0.45590  1.0000
  C   C31       1.0  0.74840  0.64840  0.67780  1.0000
  C   C32       1.0  0.25160  0.35160  0.32220  1.0000
  C   C33       1.0  0.66890  0.70930  0.66920  1.0000
  C   C34       1.0  0.33110  0.29070  0.33080  1.0000
  H   H73       1.0  0.63590  0.71210  0.62900  1.0000
  H   H74       1.0  0.36410  0.28790  0.37100  1.0000
  C   C35       1.0  0.63870  0.76680  0.72153  1.0000
  C   C36       1.0  0.36130  0.23320  0.27847  1.0000
  H   H75       1.0  0.58680  0.81250  0.71680  1.0000
  H   H76       1.0  0.41320  0.18750  0.28320  1.0000
  C   C37       1.0  0.68190  0.75890  0.77935  1.0000
  C   C38       1.0  0.31810  0.24110  0.22065  1.0000
  C   C39       1.0  0.76300  0.69590  0.78345  1.0000
  C   C40       1.0  0.23700  0.30410  0.21655  1.0000
  H   H77       1.0  0.79600  0.69120  0.82330  1.0000
  H   H78       1.0  0.20400  0.30880  0.17670  1.0000
  C   C41       1.0  0.78840  0.58130  0.62398  1.0000
  C   C42       1.0  0.21160  0.41870  0.37602  1.0000
  C   C43       1.0  0.64550  0.81400  0.83717  1.0000
  C   C44       1.0  0.35450  0.18600  0.16283  1.0000
  C   C45       1.0  0.80930  0.28040  0.75906  1.0000
  C   C46       1.0  0.19070  0.71960  0.24094  1.0000
  C   C47       1.0  0.73040  0.15970  0.77312  1.0000
  C   C48       1.0  0.26960  0.84030  0.22688  1.0000
  H   H79       1.0  0.76220  0.09610  0.77690  1.0000
  H   H80       1.0  0.23780  0.90390  0.22310  1.0000
  C   C49       1.0  0.60310  0.13460  0.78146  1.0000
  C   C50       1.0  0.39690  0.86540  0.21854  1.0000
  H   H81       1.0  0.54690  0.05350  0.79220  1.0000
  H   H82       1.0  0.45310  0.94650  0.20780  1.0000
  C   C51       1.0  0.55830  0.22800  0.77405  1.0000
  C   C52       1.0  0.44170  0.77200  0.22595  1.0000
  C   C53       1.0  0.64470  0.34620  0.75978  1.0000
  C   C54       1.0  0.35530  0.65380  0.24022  1.0000
  H   H83       1.0  0.61480  0.41070  0.75460  1.0000
  H   H84       1.0  0.38520  0.58930  0.24540  1.0000
  C   C55       1.0  0.94860  0.31770  0.74799  1.0000
  C   C56       1.0  0.05140  0.68230  0.25201  1.0000
  C   C57       1.0  0.41860  0.20100  0.78114  1.0000
  C   C58       1.0  0.58140  0.79900  0.21886  1.0000
  C   C59       1.0  0.16890  0.73830  0.76509  1.0000
  C   C60       1.0  0.83110  0.26170  0.23491  1.0000
  C   C61       1.0  0.29370  0.82630  0.76263  1.0000
  C   C62       1.0  0.70630  0.17370  0.23737  1.0000
  H   H85       1.0  0.34900  0.85500  0.79890  1.0000
  H   H86       1.0  0.65100  0.14500  0.20110  1.0000
  C   C63       1.0  0.33530  0.87100  0.70630  1.0000
  C   C64       1.0  0.66470  0.12900  0.29370  1.0000
  H   H87       1.0  0.42080  0.92930  0.70350  1.0000
  H   H88       1.0  0.57920  0.07070  0.29650  1.0000
  C   C65       1.0  0.25380  0.83170  0.65404  1.0000
  C   C66       1.0  0.74620  0.16830  0.34596  1.0000
  C   C67       1.0  0.12980  0.74220  0.66041  1.0000
  C   C68       1.0  0.87020  0.25780  0.33959  1.0000
  H   H89       1.0  0.07190  0.71420  0.62500  1.0000
  H   H90       1.0  0.92810  0.28580  0.37500  1.0000
  C   C69       1.0  0.11210  0.68470  0.82453  1.0000
  C   C70       1.0  0.88790  0.31530  0.17547  1.0000
  C   C71       1.0  0.29180  0.88750  0.59260  1.0000
  C   C72       1.0  0.70820  0.11250  0.40740  1.0000
