data_image0
_chemical_formula_structural       Ni3Zn2N2H2N2H2N2H2N2H2N2H2N2H2N6O24C2H4C2H4C2H4C2H4C2H4C2H4C2H4C2H4C2H4C2H4C2H4C2H4C2H4C2H4C2H4C4H2C2H2C4H2C8H2C2H2C4H2C8H2C2H2C4H2C4
_chemical_formula_sum              "Ni3 Zn2 N18 H90 O24 C72"
_cell_length_a       11.4882
_cell_length_b       11.5521
_cell_length_c       21.6308
_cell_angle_alpha    94.361
_cell_angle_beta     91.317
_cell_angle_gamma    113.584

_space_group_name_H-M_alt    "P 1"
_space_group_IT_number       1

loop_
  _space_group_symop_operation_xyz
  'x, y, z'

loop_
  _atom_site_type_symbol
  _atom_site_label
  _atom_site_symmetry_multiplicity
  _atom_site_fract_x
  _atom_site_fract_y
  _atom_site_fract_z
  _atom_site_occupancy
  Ni  Ni1       1.0  0.81507  0.74524  0.24358  1.0000
  Ni  Ni2       1.0  0.18493  0.25476  0.75642  1.0000
  Ni  Ni3       1.0  0.50000  0.00000  0.50000  1.0000
  Zn  Zn1       1.0  0.08489  0.45614  0.26909  1.0000
  Zn  Zn2       1.0  0.91511  0.54386  0.73091  1.0000
  N   N1        1.0  0.82920  0.78050  0.15113  1.0000
  N   N2        1.0  0.17080  0.21950  0.84887  1.0000
  H   H1        1.0  0.76700  0.80300  0.15000  1.0000
  H   H2        1.0  0.23300  0.19700  0.85000  1.0000
  N   N3        1.0  0.74590  0.55660  0.21017  1.0000
  N   N4        1.0  0.25410  0.44340  0.78983  1.0000
  H   H3        1.0  0.78500  0.51000  0.20100  1.0000
  H   H4        1.0  0.21500  0.49000  0.79900  1.0000
  N   N5        1.0  0.80720  0.71040  0.33697  1.0000
  N   N6        1.0  0.19280  0.28960  0.66303  1.0000
  H   H5        1.0  0.88000  0.70200  0.34000  1.0000
  H   H6        1.0  0.12000  0.29800  0.66000  1.0000
  N   N7        1.0  0.88520  0.93550  0.27610  1.0000
  N   N8        1.0  0.11480  0.06450  0.72390  1.0000
  H   H7        1.0  0.81700  0.95100  0.27100  1.0000
  H   H8        1.0  0.18300  0.04900  0.72900  1.0000
  N   N9        1.0  0.60110  0.17870  0.54499  1.0000
  N   N10       1.0  0.39890  0.82130  0.45501  1.0000
  H   H9        1.0  0.67100  0.23200  0.53200  1.0000
  H   H10       1.0  0.32900  0.76800  0.46800  1.0000
  N   N11       1.0  0.63360  0.93030  0.52362  1.0000
  N   N12       1.0  0.36640  0.06970  0.47638  1.0000
  H   H11       1.0  0.67900  0.94600  0.49090  1.0000
  H   H12       1.0  0.32100  0.05400  0.50910  1.0000
  N   N13       1.0  0.20710  0.36020  0.26684  1.0000
  N   N14       1.0  0.79290  0.63980  0.73316  1.0000
  N   N15       1.0  0.23320  0.63020  0.24743  1.0000
  N   N16       1.0  0.76680  0.36980  0.75257  1.0000
  N   N17       1.0  0.90950  0.30610  0.28601  1.0000
  N   N18       1.0  0.09050  0.69390  0.71399  1.0000
  O   O1        1.0  0.14590  0.47740  0.36322  1.0000
  O   O2        1.0  0.85410  0.52260  0.63678  1.0000
  O   O3        1.0  0.24910  0.40810  0.43019  1.0000
  O   O4        1.0  0.75090  0.59190  0.56981  1.0000
  O   O5        1.0  0.31900  0.20730  0.11202  1.0000
  O   O6        1.0  0.68100  0.79270  0.88798  1.0000
  O   O7        1.0  0.42050  0.12430  0.17049  1.0000
  O   O8        1.0  0.57950  0.87570  0.82951  1.0000
  O   O9        1.0  0.99180  0.57830  0.26995  1.0000
  O   O10       1.0  0.00820  0.42170  0.73005  1.0000
  O   O11       1.0  0.00950  0.76830  0.24461  1.0000
  O   O12       1.0  0.99050  0.23170  0.75539  1.0000
  O   O13       1.0  0.62480  0.72960  0.24409  1.0000
  O   O14       1.0  0.37520  0.27040  0.75591  1.0000
  O   O15       1.0  0.64260  0.89150  0.18904  1.0000
  O   O16       1.0  0.35740  0.10850  0.81096  1.0000
  O   O17       1.0  0.00450  0.38610  0.17872  1.0000
  O   O18       1.0  0.99550  0.61390  0.82128  1.0000
  O   O19       1.0  0.81570  0.29220  0.12851  1.0000
  O   O20       1.0  0.18430  0.70780  0.87149  1.0000
  O   O21       1.0  0.58980  0.06310  0.41460  1.0000
  O   O22       1.0  0.41020  0.93690  0.58540  1.0000
  O   O23       1.0  0.79500  0.11630  0.44363  1.0000
  O   O24       1.0  0.20500  0.88370  0.55637  1.0000
  C   C1        1.0  0.81340  0.66100  0.11640  1.0000
  C   C2        1.0  0.18660  0.33900  0.88360  1.0000
  H   H13       1.0  0.89460  0.65020  0.11860  1.0000
  H   H14       1.0  0.10540  0.34980  0.88140  1.0000
  H   H15       1.0  0.79000  0.66250  0.07220  1.0000
  H   H16       1.0  0.21000  0.33750  0.92780  1.0000
  C   C3        1.0  0.71050  0.55140  0.14340  1.0000
  C   C4        1.0  0.28950  0.44860  0.85660  1.0000
  H   H17       1.0  0.62760  0.55810  0.13840  1.0000
  H   H18       1.0  0.37240  0.44190  0.86160  1.0000
  H   H19       1.0  0.70290  0.46990  0.12160  1.0000
  H   H20       1.0  0.29710  0.53010  0.87840  1.0000
  C   C5        1.0  0.64390  0.46900  0.24660  1.0000
  C   C6        1.0  0.35610  0.53100  0.75340  1.0000
  H   H21       1.0  0.61970  0.38080  0.22830  1.0000
  H   H22       1.0  0.38030  0.61920  0.77170  1.0000
  H   H23       1.0  0.56790  0.48880  0.24310  1.0000
  H   H24       1.0  0.43210  0.51120  0.75690  1.0000
  C   C7        1.0  0.68320  0.47800  0.31400  1.0000
  C   C8        1.0  0.31680  0.52200  0.68600  1.0000
  H   H25       1.0  0.76680  0.47210  0.31710  1.0000
  H   H26       1.0  0.23320  0.52790  0.68290  1.0000
  H   H27       1.0  0.62090  0.40430  0.33270  1.0000
  H   H28       1.0  0.37910  0.59570  0.66730  1.0000
  C   C9        1.0  0.69350  0.59910  0.35180  1.0000
  C   C10       1.0  0.30650  0.40090  0.64820  1.0000
  H   H29       1.0  0.61610  0.61430  0.34290  1.0000
  H   H30       1.0  0.38390  0.38570  0.65710  1.0000
  H   H31       1.0  0.69850  0.58830  0.39660  1.0000
  H   H32       1.0  0.30150  0.41170  0.60340  1.0000
  C   C11       1.0  0.82090  0.83080  0.37180  1.0000
  C   C12       1.0  0.17910  0.16920  0.62820  1.0000
  H   H33       1.0  0.84780  0.83170  0.41570  1.0000
  H   H34       1.0  0.15220  0.16830  0.58430  1.0000
  H   H35       1.0  0.73810  0.83860  0.37080  1.0000
  H   H36       1.0  0.26190  0.16140  0.62920  1.0000
  C   C13       1.0  0.91850  0.94040  0.34310  1.0000
  C   C14       1.0  0.08150  0.05960  0.65690  1.0000
  H   H37       1.0  0.92320  0.02120  0.36450  1.0000
  H   H38       1.0  0.07680  0.97880  0.63550  1.0000
  H   H39       1.0  0.00310  0.93750  0.34840  1.0000
  H   H40       1.0  0.99690  0.06250  0.65160  1.0000
  C   C15       1.0  0.98940  0.02390  0.24220  1.0000
  C   C16       1.0  0.01060  0.97610  0.75780  1.0000
  H   H41       1.0  0.06610  0.00590  0.24810  1.0000
  H   H42       1.0  0.93390  0.99410  0.75190  1.0000
  H   H43       1.0  0.01040  0.11190  0.26000  1.0000
  H   H44       1.0  0.98960  0.88810  0.74000  1.0000
  C   C17       1.0  0.95570  0.01360  0.17380  1.0000
  C   C18       1.0  0.04430  0.98640  0.82620  1.0000
  H   H45       1.0  0.02170  0.08590  0.15590  1.0000
  H   H46       1.0  0.97830  0.91410  0.84410  1.0000
  H   H47       1.0  0.87440  0.02370  0.16890  1.0000
  H   H48       1.0  0.12560  0.97630  0.83110  1.0000
  C   C19       1.0  0.94180  0.89160  0.13520  1.0000
  C   C20       1.0  0.05820  0.10840  0.86480  1.0000
  H   H49       1.0  0.93390  0.90260  0.09060  1.0000
  H   H50       1.0  0.06610  0.09740  0.90940  1.0000
  H   H51       1.0  0.01940  0.87580  0.14250  1.0000
  H   H52       1.0  0.98060  0.12420  0.85750  1.0000
  C   C21       1.0  0.50950  0.23790  0.55090  1.0000
  C   C22       1.0  0.49050  0.76210  0.44910  1.0000
  H   H53       1.0  0.55530  0.33090  0.55990  1.0000
  H   H54       1.0  0.44470  0.66910  0.44010  1.0000
  H   H55       1.0  0.45430  0.20470  0.58550  1.0000
  H   H56       1.0  0.54570  0.79530  0.41450  1.0000
  C   C23       1.0  0.66700  0.18210  0.60430  1.0000
  C   C24       1.0  0.33300  0.81790  0.39570  1.0000
  H   H57       1.0  0.60310  0.14110  0.63440  1.0000
  H   H58       1.0  0.39690  0.85890  0.36560  1.0000
  H   H59       1.0  0.71550  0.27170  0.62070  1.0000
  H   H60       1.0  0.28450  0.72830  0.37930  1.0000
  C   C25       1.0  0.75860  0.11530  0.59880  1.0000
  C   C26       1.0  0.24140  0.88470  0.40120  1.0000
  H   H61       1.0  0.81510  0.14920  0.56470  1.0000
  H   H62       1.0  0.18490  0.85080  0.43530  1.0000
  H   H63       1.0  0.81270  0.13680  0.63780  1.0000
  H   H64       1.0  0.18730  0.86320  0.36220  1.0000
  C   C27       1.0  0.69390  0.97110  0.58650  1.0000
  C   C28       1.0  0.30610  0.02890  0.41350  1.0000
  H   H65       1.0  0.75790  0.93500  0.59230  1.0000
  H   H66       1.0  0.24210  0.06500  0.40770  1.0000
  H   H67       1.0  0.62860  0.93750  0.61710  1.0000
  H   H68       1.0  0.37140  0.06250  0.38290  1.0000
  C   C29       1.0  0.57140  0.79230  0.50990  1.0000
  C   C30       1.0  0.42860  0.20770  0.49010  1.0000
  H   H69       1.0  0.51700  0.75410  0.54400  1.0000
  H   H70       1.0  0.48300  0.24590  0.45600  1.0000
  H   H71       1.0  0.63630  0.75630  0.50620  1.0000
  H   H72       1.0  0.36370  0.24370  0.49380  1.0000
  C   C31       1.0  0.25240  0.35310  0.32204  1.0000
  C   C32       1.0  0.74760  0.64690  0.67796  1.0000
  C   C33       1.0  0.33250  0.29000  0.33140  1.0000
  C   C34       1.0  0.66750  0.71000  0.66860  1.0000
  H   H73       1.0  0.36470  0.28680  0.37180  1.0000
  H   H74       1.0  0.63530  0.71320  0.62820  1.0000
  C   C35       1.0  0.36300  0.23220  0.27890  1.0000
  C   C36       1.0  0.63700  0.76780  0.72110  1.0000
  H   H75       1.0  0.41410  0.18560  0.28330  1.0000
  H   H76       1.0  0.58590  0.81440  0.71670  1.0000
  C   C37       1.0  0.31930  0.24260  0.22119  1.0000
  C   C38       1.0  0.68070  0.75740  0.77881  1.0000
  C   C39       1.0  0.23910  0.30710  0.21666  1.0000
  C   C40       1.0  0.76090  0.69290  0.78334  1.0000
  H   H77       1.0  0.20660  0.31310  0.17680  1.0000
  H   H78       1.0  0.79340  0.68690  0.82320  1.0000
  C   C41       1.0  0.21320  0.41860  0.37670  1.0000
  C   C42       1.0  0.78680  0.58140  0.62330  1.0000
  C   C43       1.0  0.35530  0.18600  0.16320  1.0000
  C   C44       1.0  0.64470  0.81400  0.83680  1.0000
  C   C45       1.0  0.19110  0.72130  0.24117  1.0000
  C   C46       1.0  0.80890  0.27870  0.75883  1.0000
  C   C47       1.0  0.27050  0.84210  0.22681  1.0000
  C   C48       1.0  0.72950  0.15790  0.77319  1.0000
  H   H79       1.0  0.23880  0.90570  0.22290  1.0000
  H   H80       1.0  0.76120  0.09430  0.77710  1.0000
  C   C49       1.0  0.39790  0.86690  0.21838  1.0000
  C   C50       1.0  0.60210  0.13310  0.78162  1.0000
  H   H81       1.0  0.45430  0.94800  0.20790  1.0000
  H   H82       1.0  0.54570  0.05200  0.79210  1.0000
  C   C51       1.0  0.44190  0.77350  0.22534  1.0000
  C   C52       1.0  0.55810  0.22650  0.77466  1.0000
  C   C53       1.0  0.35610  0.65540  0.24016  1.0000
  C   C54       1.0  0.64390  0.34460  0.75984  1.0000
  H   H83       1.0  0.38580  0.59070  0.24530  1.0000
  H   H84       1.0  0.61420  0.40930  0.75470  1.0000
  C   C55       1.0  0.05250  0.68600  0.25260  1.0000
  C   C56       1.0  0.94750  0.31400  0.74740  1.0000
  C   C57       1.0  0.58170  0.80150  0.21830  1.0000
  C   C58       1.0  0.41830  0.19850  0.78170  1.0000
  C   C59       1.0  0.83120  0.26470  0.23614  1.0000
  C   C60       1.0  0.16880  0.73530  0.76386  1.0000
  C   C61       1.0  0.70520  0.17560  0.23710  1.0000
  C   C62       1.0  0.29480  0.82440  0.76290  1.0000
  H   H85       1.0  0.65040  0.14820  0.20050  1.0000
  H   H86       1.0  0.34960  0.85180  0.79950  1.0000
  C   C63       1.0  0.66370  0.12940  0.29310  1.0000
  C   C64       1.0  0.33630  0.87060  0.70690  1.0000
  H   H87       1.0  0.57830  0.07030  0.29550  1.0000
  H   H88       1.0  0.42170  0.92970  0.70450  1.0000
  C   C65       1.0  0.74570  0.16860  0.34601  1.0000
  C   C66       1.0  0.25430  0.83140  0.65399  1.0000
  C   C67       1.0  0.86900  0.25990  0.34061  1.0000
  C   C68       1.0  0.13100  0.74010  0.65939  1.0000
  H   H89       1.0  0.92580  0.29010  0.37650  1.0000
  H   H90       1.0  0.07420  0.70990  0.62350  1.0000
  C   C69       1.0  0.88590  0.31700  0.17554  1.0000
  C   C70       1.0  0.11410  0.68300  0.82446  1.0000
  C   C71       1.0  0.70850  0.11350  0.40801  1.0000
  C   C72       1.0  0.29150  0.88650  0.59199  1.0000
