data_image0
_chemical_formula_structural       Zn5N8H2N2H2N2H2N2H2N2H2N2H2O24C4H2C2H2C4H2C8H2C2H2C4H2C6H2C4H2C2H2C8H4C2H4C2H4C2H4C2H4C2H4C2H4C2H4C2H4C2H4C2H4C2H4C2H4C2H4C2H4
_chemical_formula_sum              "Zn5 N18 H90 O24 C72"
_cell_length_a       11.5056
_cell_length_b       11.6391
_cell_length_c       21.8286
_cell_angle_alpha    91.695
_cell_angle_beta     94.3
_cell_angle_gamma    113.432

_space_group_name_H-M_alt    "P 1"
_space_group_IT_number       1

loop_
  _space_group_symop_operation_xyz
  'x, y, z'

loop_
  _atom_site_type_symbol
  _atom_site_label
  _atom_site_symmetry_multiplicity
  _atom_site_fract_x
  _atom_site_fract_y
  _atom_site_fract_z
  _atom_site_occupancy
  Zn  Zn1       1.0  0.75681  0.19325  0.25587  1.0000
  Zn  Zn2       1.0  0.24319  0.80675  0.74413  1.0000
  Zn  Zn3       1.0  0.50000  0.50000  0.00000  1.0000
  Zn  Zn4       1.0  0.04458  0.91555  0.23015  1.0000
  Zn  Zn5       1.0  0.95542  0.08445  0.76985  1.0000
  N   N1        1.0  0.14390  0.79580  0.23305  1.0000
  N   N2        1.0  0.85610  0.20420  0.76695  1.0000
  N   N3        1.0  0.19400  0.09020  0.21455  1.0000
  N   N4        1.0  0.80600  0.90980  0.78545  1.0000
  N   N5        1.0  0.87050  0.76870  0.25186  1.0000
  N   N6        1.0  0.12950  0.23130  0.74814  1.0000
  N   N7        1.0  0.56210  0.12070  0.22262  1.0000
  N   N8        1.0  0.43790  0.87930  0.77738  1.0000
  H   H1        1.0  0.54200  0.18500  0.22750  1.0000
  H   H2        1.0  0.45800  0.81500  0.77250  1.0000
  N   N9        1.0  0.79080  0.19720  0.16261  1.0000
  N   N10       1.0  0.20920  0.80280  0.83739  1.0000
  H   H3        1.0  0.78700  0.11900  0.15280  1.0000
  H   H4        1.0  0.21300  0.88100  0.84720  1.0000
  N   N11       1.0  0.94900  0.25470  0.28864  1.0000
  N   N12       1.0  0.05100  0.74530  0.71136  1.0000
  H   H5        1.0  0.96700  0.19200  0.27500  1.0000
  H   H6        1.0  0.03300  0.80800  0.72500  1.0000
  N   N13       1.0  0.72310  0.17520  0.34831  1.0000
  N   N14       1.0  0.27690  0.82480  0.65169  1.0000
  H   H7        1.0  0.72000  0.24400  0.36680  1.0000
  H   H8        1.0  0.28000  0.75600  0.63320  1.0000
  N   N15       1.0  0.68290  0.60210  0.04436  1.0000
  N   N16       1.0  0.31710  0.39790  0.95564  1.0000
  H   H9        1.0  0.72800  0.65200  0.01700  1.0000
  H   H10       1.0  0.27200  0.34800  0.98300  1.0000
  N   N17       1.0  0.42930  0.63400  0.02329  1.0000
  N   N18       1.0  0.57070  0.36600  0.97671  1.0000
  H   H11       1.0  0.44500  0.68400  0.99100  1.0000
  H   H12       1.0  0.55500  0.31600  0.00900  1.0000
  O   O1        1.0  0.02670  0.85570  0.13655  1.0000
  O   O2        1.0  0.97330  0.14430  0.86345  1.0000
  O   O3        1.0  0.09430  0.75340  0.07099  1.0000
  O   O4        1.0  0.90570  0.24660  0.92901  1.0000
  O   O5        1.0  0.37080  0.57580  0.32842  1.0000
  O   O6        1.0  0.62920  0.42420  0.67158  1.0000
  O   O7        1.0  0.30930  0.69770  0.38636  1.0000
  O   O8        1.0  0.69070  0.30230  0.61364  1.0000
  O   O9        1.0  0.11340  0.99520  0.32057  1.0000
  O   O10       1.0  0.88660  0.00480  0.67943  1.0000
  O   O11       1.0  0.20710  0.18070  0.37153  1.0000
  O   O12       1.0  0.79290  0.81930  0.62847  1.0000
  O   O13       1.0  0.43600  0.40810  0.08920  1.0000
  O   O14       1.0  0.56400  0.59190  0.91080  1.0000
  O   O15       1.0  0.38290  0.20830  0.05848  1.0000
  O   O16       1.0  0.61710  0.79170  0.94152  1.0000
  O   O17       1.0  0.92010  0.00600  0.22745  1.0000
  O   O18       1.0  0.07990  0.99400  0.77255  1.0000
  O   O19       1.0  0.72950  0.98780  0.25193  1.0000
  O   O20       1.0  0.27050  0.01220  0.74807  1.0000
  O   O21       1.0  0.61420  0.36760  0.31375  1.0000
  O   O22       1.0  0.38580  0.63240  0.68625  1.0000
  O   O23       1.0  0.77450  0.38610  0.25680  1.0000
  O   O24       1.0  0.22550  0.61390  0.74320  1.0000
  C   C1        1.0  0.14910  0.74680  0.17679  1.0000
  C   C2        1.0  0.85090  0.25320  0.82321  1.0000
  C   C3        1.0  0.20960  0.66750  0.16900  1.0000
  C   C4        1.0  0.79040  0.33250  0.83100  1.0000
  H   H13       1.0  0.21200  0.63400  0.12910  1.0000
  H   H14       1.0  0.78800  0.36600  0.87090  1.0000
  C   C5        1.0  0.26760  0.63720  0.22082  1.0000
  C   C6        1.0  0.73240  0.36280  0.77918  1.0000
  H   H15       1.0  0.31120  0.58360  0.21630  1.0000
  H   H16       1.0  0.68880  0.41640  0.78370  1.0000
  C   C7        1.0  0.26170  0.68460  0.27840  1.0000
  C   C8        1.0  0.73830  0.31540  0.72160  1.0000
  C   C9        1.0  0.19770  0.76500  0.28233  1.0000
  C   C10       1.0  0.80230  0.23500  0.71767  1.0000
  H   H17       1.0  0.19270  0.79860  0.32180  1.0000
  H   H18       1.0  0.80730  0.20140  0.67820  1.0000
  C   C11       1.0  0.08450  0.78830  0.12328  1.0000
  C   C12       1.0  0.91550  0.21170  0.87672  1.0000
  C   C13       1.0  0.31850  0.65110  0.33624  1.0000
  C   C14       1.0  0.68150  0.34890  0.66376  1.0000
  C   C15       1.0  0.23630  0.16820  0.26569  1.0000
  C   C16       1.0  0.76370  0.83180  0.73431  1.0000
  C   C17       1.0  0.32380  0.29010  0.26432  1.0000
  C   C18       1.0  0.67620  0.70990  0.73568  1.0000
  H   H19       1.0  0.35180  0.34410  0.30080  1.0000
  H   H20       1.0  0.64820  0.65590  0.69920  1.0000
  C   C19       1.0  0.37020  0.33260  0.20874  1.0000
  C   C20       1.0  0.62980  0.66740  0.79126  1.0000
  H   H21       1.0  0.42950  0.41680  0.20690  1.0000
  H   H22       1.0  0.57050  0.58320  0.79310  1.0000
  C   C21       1.0  0.33060  0.25300  0.15601  1.0000
  C   C22       1.0  0.66940  0.74700  0.84399  1.0000
  C   C23       1.0  0.24160  0.13150  0.16116  1.0000
  C   C24       1.0  0.75840  0.86850  0.83884  1.0000
  H   H23       1.0  0.21320  0.07530  0.12550  1.0000
  H   H24       1.0  0.78680  0.92470  0.87450  1.0000
  C   C25       1.0  0.18130  0.11070  0.32476  1.0000
  C   C26       1.0  0.81870  0.88930  0.67524  1.0000
  C   C27       1.0  0.38700  0.29370  0.09556  1.0000
  C   C28       1.0  0.61300  0.70630  0.90444  1.0000
  C   C29       1.0  0.84610  0.64860  0.25980  1.0000
  C   C30       1.0  0.15390  0.35140  0.74020  1.0000
  H   H25       1.0  0.91170  0.61970  0.25540  1.0000
  H   H26       1.0  0.08830  0.38030  0.74460  1.0000
  C   C31       1.0  0.72690  0.56330  0.27442  1.0000
  C   C32       1.0  0.27310  0.43670  0.72558  1.0000
  C   C33       1.0  0.63340  0.60780  0.28143  1.0000
  C   C34       1.0  0.36660  0.39220  0.71857  1.0000
  H   H27       1.0  0.55290  0.55350  0.29310  1.0000
  H   H28       1.0  0.44710  0.44650  0.70690  1.0000
  C   C35       1.0  0.65740  0.73140  0.27137  1.0000
  C   C36       1.0  0.34260  0.26860  0.72863  1.0000
  H   H29       1.0  0.59290  0.76230  0.27430  1.0000
  H   H30       1.0  0.40710  0.23770  0.72570  1.0000
  C   C37       1.0  0.77770  0.80970  0.25696  1.0000
  C   C38       1.0  0.22230  0.19030  0.74304  1.0000
  C   C39       1.0  0.81070  0.94590  0.24460  1.0000
  C   C40       1.0  0.18930  0.05410  0.75540  1.0000
  C   C41       1.0  0.70330  0.42780  0.28294  1.0000
  C   C42       1.0  0.29670  0.57220  0.71706  1.0000
  C   C43       1.0  0.55880  0.08510  0.15710  1.0000
  C   C44       1.0  0.44120  0.91490  0.84290  1.0000
  H   H31       1.0  0.47700  0.07680  0.13530  1.0000
  H   H32       1.0  0.52300  0.92320  0.86470  1.0000
  H   H33       1.0  0.56500  0.00280  0.15300  1.0000
  H   H34       1.0  0.43500  0.99720  0.84700  1.0000
  C   C45       1.0  0.66920  0.18430  0.12820  1.0000
  C   C46       1.0  0.33080  0.81570  0.87180  1.0000
  H   H35       1.0  0.66810  0.15870  0.08440  1.0000
  H   H36       1.0  0.33190  0.84130  0.91560  1.0000
  H   H37       1.0  0.66080  0.26570  0.13010  1.0000
  H   H38       1.0  0.33920  0.73430  0.86990  1.0000
  C   C47       1.0  0.90260  0.30930  0.14790  1.0000
  C   C48       1.0  0.09740  0.69070  0.85210  1.0000
  H   H39       1.0  0.88750  0.38590  0.15680  1.0000
  H   H40       1.0  0.11250  0.61410  0.84320  1.0000
  H   H41       1.0  0.91360  0.30380  0.10350  1.0000
  H   H42       1.0  0.08640  0.69620  0.89650  1.0000
  C   C49       1.0  0.02280  0.31830  0.18560  1.0000
  C   C50       1.0  0.97720  0.68170  0.81440  1.0000
  H   H43       1.0  0.09690  0.37850  0.16680  1.0000
  H   H44       1.0  0.90310  0.62150  0.83320  1.0000
  H   H45       1.0  0.02750  0.23530  0.18210  1.0000
  H   H46       1.0  0.97250  0.76470  0.81790  1.0000
  C   C51       1.0  0.03590  0.35860  0.25380  1.0000
  C   C52       1.0  0.96410  0.64140  0.74620  1.0000
  H   H47       1.0  0.12500  0.38250  0.27110  1.0000
  H   H48       1.0  0.87500  0.61750  0.72890  1.0000
  H   H49       1.0  0.01510  0.43290  0.25860  1.0000
  H   H50       1.0  0.98490  0.56710  0.74140  1.0000
  C   C53       1.0  0.95330  0.28880  0.35570  1.0000
  C   C54       1.0  0.04670  0.71120  0.64430  1.0000
  H   H51       1.0  0.94610  0.37040  0.36100  1.0000
  H   H52       1.0  0.05390  0.62960  0.63900  1.0000
  H   H53       1.0  0.03520  0.29660  0.37720  1.0000
  H   H54       1.0  0.96480  0.70340  0.62280  1.0000
  C   C55       1.0  0.84410  0.18740  0.38230  1.0000
  C   C56       1.0  0.15590  0.81260  0.61770  1.0000
  H   H55       1.0  0.85370  0.10670  0.37870  1.0000
  H   H56       1.0  0.14630  0.89330  0.62130  1.0000
  H   H57       1.0  0.84400  0.20930  0.42640  1.0000
  H   H58       1.0  0.15600  0.79070  0.57360  1.0000
  C   C57       1.0  0.61030  0.06100  0.36240  1.0000
  C   C58       1.0  0.38970  0.93900  0.63760  1.0000
  H   H59       1.0  0.60030  0.06420  0.40700  1.0000
  H   H60       1.0  0.39970  0.93580  0.59300  1.0000
  H   H61       1.0  0.62520  0.98480  0.35220  1.0000
  H   H62       1.0  0.37480  0.01520  0.64780  1.0000
  C   C59       1.0  0.48920  0.05300  0.32620  1.0000
  C   C60       1.0  0.51080  0.94700  0.67380  1.0000
  H   H63       1.0  0.48400  0.13560  0.33100  1.0000
  H   H64       1.0  0.51600  0.86440  0.66900  1.0000
  H   H65       1.0  0.41580  0.99120  0.34470  1.0000
  H   H66       1.0  0.58420  0.00880  0.65530  1.0000
  C   C61       1.0  0.47550  0.01580  0.25650  1.0000
  C   C62       1.0  0.52450  0.98420  0.74350  1.0000
  H   H67       1.0  0.49580  0.94140  0.25050  1.0000
  H   H68       1.0  0.50420  0.05860  0.74950  1.0000
  H   H69       1.0  0.38640  0.99290  0.23960  1.0000
  H   H70       1.0  0.61360  0.00710  0.76040  1.0000
  C   C63       1.0  0.70930  0.42860  0.99056  1.0000
  C   C64       1.0  0.29070  0.57140  0.00944  1.0000
  H   H71       1.0  0.74710  0.48170  0.95670  1.0000
  H   H72       1.0  0.25290  0.51830  0.04330  1.0000
  H   H73       1.0  0.74590  0.36490  0.99420  1.0000
  H   H74       1.0  0.25410  0.63510  0.00580  1.0000
  C   C65       1.0  0.74070  0.50910  0.05039  1.0000
  C   C66       1.0  0.25930  0.49090  0.94961  1.0000
  H   H75       1.0  0.70670  0.45570  0.08470  1.0000
  H   H76       1.0  0.29330  0.54430  0.91530  1.0000
  H   H77       1.0  0.83410  0.55290  0.05930  1.0000
  H   H78       1.0  0.16590  0.44710  0.94070  1.0000
  C   C67       1.0  0.68490  0.66950  0.10355  1.0000
  C   C68       1.0  0.31510  0.33050  0.89645  1.0000
  H   H79       1.0  0.77440  0.71820  0.12010  1.0000
  H   H80       1.0  0.22560  0.28180  0.87990  1.0000
  H   H81       1.0  0.64370  0.60720  0.13350  1.0000
  H   H82       1.0  0.35630  0.39280  0.86650  1.0000
  C   C69       1.0  0.61770  0.75760  0.09708  1.0000
  C   C70       1.0  0.38230  0.24240  0.90292  1.0000
  H   H83       1.0  0.65090  0.81100  0.06260  1.0000
  H   H84       1.0  0.34910  0.18900  0.93740  1.0000
  H   H85       1.0  0.64050  0.81360  0.13510  1.0000
  H   H86       1.0  0.35950  0.18640  0.86490  1.0000
  C   C71       1.0  0.47310  0.69630  0.08571  1.0000
  C   C72       1.0  0.52690  0.30370  0.91429  1.0000
  H   H87       1.0  0.43920  0.63350  0.11650  1.0000
  H   H88       1.0  0.56080  0.36650  0.88350  1.0000
  H   H89       1.0  0.43860  0.76100  0.09130  1.0000
  H   H90       1.0  0.56140  0.23900  0.90870  1.0000
