data_image0
_chemical_formula_structural       Zn3Ni2N8H2N2H2N2H2N2H2N2H2N2H2O24C4H2C2H2C4H2C8H2C2H2C4H2C6H2C4H2C2H2C8H4C2H4C2H4C2H4C2H4C2H4C2H4C2H4C2H4C2H4C2H4C2H4C2H4C2H4C2H4
_chemical_formula_sum              "Zn3 Ni2 N18 H90 O24 C72"
_cell_length_a       11.5109
_cell_length_b       11.5916
_cell_length_c       21.717
_cell_angle_alpha    91.17
_cell_angle_beta     94.449
_cell_angle_gamma    113.834

_space_group_name_H-M_alt    "P 1"
_space_group_IT_number       1

loop_
  _space_group_symop_operation_xyz
  'x, y, z'

loop_
  _atom_site_type_symbol
  _atom_site_label
  _atom_site_symmetry_multiplicity
  _atom_site_fract_x
  _atom_site_fract_y
  _atom_site_fract_z
  _atom_site_occupancy
  Zn  Zn1       1.0  0.76525  0.19317  0.25591  1.0000
  Zn  Zn2       1.0  0.23475  0.80683  0.74409  1.0000
  Zn  Zn3       1.0  0.50000  0.50000  0.00000  1.0000
  Ni  Ni1       1.0  0.04968  0.91640  0.23313  1.0000
  Ni  Ni2       1.0  0.95032  0.08360  0.76687  1.0000
  N   N1        1.0  0.14780  0.80300  0.23392  1.0000
  N   N2        1.0  0.85220  0.19700  0.76608  1.0000
  N   N3        1.0  0.19790  0.08470  0.21640  1.0000
  N   N4        1.0  0.80210  0.91530  0.78360  1.0000
  N   N5        1.0  0.88100  0.77200  0.25390  1.0000
  N   N6        1.0  0.11900  0.22800  0.74610  1.0000
  N   N7        1.0  0.57200  0.12000  0.22195  1.0000
  N   N8        1.0  0.42800  0.88000  0.77805  1.0000
  H   H1        1.0  0.55500  0.18800  0.22680  1.0000
  H   H2        1.0  0.44500  0.81200  0.77320  1.0000
  N   N9        1.0  0.80060  0.19940  0.16271  1.0000
  N   N10       1.0  0.19940  0.80060  0.83729  1.0000
  H   H3        1.0  0.81200  0.12900  0.15570  1.0000
  H   H4        1.0  0.18800  0.87100  0.84430  1.0000
  N   N11       1.0  0.95690  0.25830  0.29023  1.0000
  N   N12       1.0  0.04310  0.74170  0.70977  1.0000
  H   H5        1.0  0.98400  0.19300  0.28600  1.0000
  H   H6        1.0  0.01600  0.80700  0.71400  1.0000
  N   N13       1.0  0.72880  0.17510  0.34874  1.0000
  N   N14       1.0  0.27120  0.82490  0.65126  1.0000
  H   H7        1.0  0.71900  0.24400  0.36200  1.0000
  H   H8        1.0  0.28100  0.75600  0.63800  1.0000
  N   N15       1.0  0.68270  0.60200  0.04467  1.0000
  N   N16       1.0  0.31730  0.39800  0.95533  1.0000
  H   H9        1.0  0.73200  0.66400  0.02300  1.0000
  H   H10       1.0  0.26800  0.33600  0.97700  1.0000
  N   N17       1.0  0.42920  0.63310  0.02383  1.0000
  N   N18       1.0  0.57080  0.36690  0.97617  1.0000
  H   H11       1.0  0.45700  0.69600  0.99740  1.0000
  H   H12       1.0  0.54300  0.30400  0.00260  1.0000
  O   O1        1.0  0.01970  0.85780  0.14077  1.0000
  O   O2        1.0  0.98030  0.14220  0.85923  1.0000
  O   O3        1.0  0.08860  0.76040  0.07131  1.0000
  O   O4        1.0  0.91140  0.23960  0.92869  1.0000
  O   O5        1.0  0.37630  0.58040  0.32686  1.0000
  O   O6        1.0  0.62370  0.41960  0.67314  1.0000
  O   O7        1.0  0.30570  0.69140  0.38636  1.0000
  O   O8        1.0  0.69430  0.30860  0.61364  1.0000
  O   O9        1.0  0.11280  0.99110  0.32231  1.0000
  O   O10       1.0  0.88720  0.00890  0.67769  1.0000
  O   O11       1.0  0.20800  0.17890  0.37381  1.0000
  O   O12       1.0  0.79200  0.82110  0.62619  1.0000
  O   O13       1.0  0.43700  0.40630  0.08830  1.0000
  O   O14       1.0  0.56300  0.59370  0.91170  1.0000
  O   O15       1.0  0.38390  0.20470  0.05828  1.0000
  O   O16       1.0  0.61610  0.79530  0.94172  1.0000
  O   O17       1.0  0.93290  0.01090  0.23108  1.0000
  O   O18       1.0  0.06710  0.98910  0.76892  1.0000
  O   O19       1.0  0.74050  0.99170  0.25353  1.0000
  O   O20       1.0  0.25950  0.00830  0.74647  1.0000
  O   O21       1.0  0.61850  0.36420  0.31165  1.0000
  O   O22       1.0  0.38150  0.63580  0.68835  1.0000
  O   O23       1.0  0.78240  0.38610  0.25655  1.0000
  O   O24       1.0  0.21760  0.61390  0.74345  1.0000
  C   C1        1.0  0.15020  0.75510  0.17761  1.0000
  C   C2        1.0  0.84980  0.24490  0.82239  1.0000
  C   C3        1.0  0.21120  0.67630  0.16833  1.0000
  C   C4        1.0  0.78880  0.32370  0.83167  1.0000
  H   H13       1.0  0.21290  0.64490  0.12780  1.0000
  H   H14       1.0  0.78710  0.35510  0.87220  1.0000
  C   C5        1.0  0.27000  0.64350  0.21893  1.0000
  C   C6        1.0  0.73000  0.35650  0.78107  1.0000
  H   H15       1.0  0.31330  0.59000  0.21350  1.0000
  H   H16       1.0  0.68670  0.41000  0.78650  1.0000
  C   C7        1.0  0.26480  0.68990  0.27778  1.0000
  C   C8        1.0  0.73520  0.31010  0.72222  1.0000
  C   C9        1.0  0.20300  0.77070  0.28308  1.0000
  C   C10       1.0  0.79700  0.22930  0.71692  1.0000
  H   H17       1.0  0.19990  0.80380  0.32300  1.0000
  H   H18       1.0  0.80010  0.19620  0.67700  1.0000
  C   C11       1.0  0.08060  0.79380  0.12468  1.0000
  C   C12       1.0  0.91940  0.20620  0.87532  1.0000
  C   C13       1.0  0.32150  0.65150  0.33490  1.0000
  C   C14       1.0  0.67850  0.34850  0.66510  1.0000
  C   C15       1.0  0.23940  0.16460  0.26724  1.0000
  C   C16       1.0  0.76060  0.83540  0.73276  1.0000
  C   C17       1.0  0.32720  0.28870  0.26492  1.0000
  C   C18       1.0  0.67280  0.71130  0.73508  1.0000
  H   H19       1.0  0.35570  0.34350  0.30120  1.0000
  H   H20       1.0  0.64430  0.65650  0.69880  1.0000
  C   C19       1.0  0.37260  0.33100  0.20873  1.0000
  C   C20       1.0  0.62740  0.66900  0.79127  1.0000
  H   H21       1.0  0.43070  0.41630  0.20590  1.0000
  H   H22       1.0  0.56930  0.58370  0.79410  1.0000
  C   C21       1.0  0.33300  0.24870  0.15658  1.0000
  C   C22       1.0  0.66700  0.75130  0.84342  1.0000
  C   C23       1.0  0.24430  0.12630  0.16263  1.0000
  C   C24       1.0  0.75570  0.87370  0.83737  1.0000
  H   H23       1.0  0.21530  0.06960  0.12700  1.0000
  H   H24       1.0  0.78470  0.93040  0.87300  1.0000
  C   C25       1.0  0.18390  0.10870  0.32641  1.0000
  C   C26       1.0  0.81610  0.89130  0.67359  1.0000
  C   C27       1.0  0.38810  0.29000  0.09555  1.0000
  C   C28       1.0  0.61190  0.71000  0.90445  1.0000
  C   C29       1.0  0.85490  0.64950  0.26099  1.0000
  C   C30       1.0  0.14510  0.35050  0.73901  1.0000
  H   H25       1.0  0.92020  0.62050  0.25630  1.0000
  H   H26       1.0  0.07980  0.37950  0.74370  1.0000
  C   C31       1.0  0.73560  0.56320  0.27492  1.0000
  C   C32       1.0  0.26440  0.43680  0.72508  1.0000
  C   C33       1.0  0.64150  0.60670  0.28139  1.0000
  C   C34       1.0  0.35850  0.39330  0.71861  1.0000
  H   H27       1.0  0.56000  0.55070  0.29190  1.0000
  H   H28       1.0  0.44000  0.44930  0.70810  1.0000
  C   C35       1.0  0.66650  0.73240  0.27246  1.0000
  C   C36       1.0  0.33350  0.26760  0.72754  1.0000
  H   H29       1.0  0.60210  0.76320  0.27580  1.0000
  H   H30       1.0  0.39790  0.23680  0.72420  1.0000
  C   C37       1.0  0.78740  0.81180  0.25862  1.0000
  C   C38       1.0  0.21260  0.18820  0.74138  1.0000
  C   C39       1.0  0.82290  0.95010  0.24705  1.0000
  C   C40       1.0  0.17710  0.04990  0.75295  1.0000
  C   C41       1.0  0.70970  0.42530  0.28159  1.0000
  C   C42       1.0  0.29030  0.57470  0.71841  1.0000
  C   C43       1.0  0.56880  0.08540  0.15605  1.0000
  C   C44       1.0  0.43120  0.91460  0.84395  1.0000
  H   H31       1.0  0.48730  0.07770  0.13390  1.0000
  H   H32       1.0  0.51270  0.92230  0.86610  1.0000
  H   H33       1.0  0.57470  0.00280  0.15170  1.0000
  H   H34       1.0  0.42530  0.99720  0.84830  1.0000
  C   C45       1.0  0.67960  0.18610  0.12837  1.0000
  C   C46       1.0  0.32040  0.81390  0.87163  1.0000
  H   H35       1.0  0.67930  0.16230  0.08430  1.0000
  H   H36       1.0  0.32070  0.83770  0.91570  1.0000
  H   H37       1.0  0.67100  0.26760  0.13070  1.0000
  H   H38       1.0  0.32900  0.73240  0.86930  1.0000
  C   C47       1.0  0.91340  0.31200  0.14840  1.0000
  C   C48       1.0  0.08660  0.68800  0.85160  1.0000
  H   H39       1.0  0.89830  0.38890  0.15650  1.0000
  H   H40       1.0  0.10170  0.61110  0.84350  1.0000
  H   H41       1.0  0.92550  0.30650  0.10390  1.0000
  H   H42       1.0  0.07450  0.69350  0.89610  1.0000
  C   C49       1.0  0.03350  0.32260  0.18690  1.0000
  C   C50       1.0  0.96650  0.67740  0.81310  1.0000
  H   H43       1.0  0.03940  0.23980  0.18360  1.0000
  H   H44       1.0  0.96060  0.76020  0.81640  1.0000
  H   H45       1.0  0.10790  0.38470  0.16840  1.0000
  H   H46       1.0  0.89210  0.61530  0.83160  1.0000
  C   C51       1.0  0.04450  0.36130  0.25490  1.0000
  C   C52       1.0  0.95550  0.63870  0.74510  1.0000
  H   H47       1.0  0.13340  0.38510  0.27280  1.0000
  H   H48       1.0  0.86660  0.61490  0.72720  1.0000
  H   H49       1.0  0.02450  0.43640  0.25920  1.0000
  H   H50       1.0  0.97550  0.56360  0.74080  1.0000
  C   C53       1.0  0.96030  0.29050  0.35600  1.0000
  C   C54       1.0  0.03970  0.70950  0.64400  1.0000
  H   H51       1.0  0.95440  0.37300  0.36120  1.0000
  H   H52       1.0  0.04560  0.62700  0.63880  1.0000
  H   H53       1.0  0.04190  0.29770  0.37790  1.0000
  H   H54       1.0  0.95810  0.70230  0.62210  1.0000
  C   C55       1.0  0.84930  0.18850  0.38338  1.0000
  C   C56       1.0  0.15070  0.81150  0.61662  1.0000
  H   H55       1.0  0.85850  0.10730  0.38090  1.0000
  H   H56       1.0  0.14150  0.89270  0.61910  1.0000
  H   H57       1.0  0.84890  0.21160  0.42750  1.0000
  H   H58       1.0  0.15110  0.78840  0.57250  1.0000
  C   C57       1.0  0.61600  0.06080  0.36251  1.0000
  C   C58       1.0  0.38400  0.93920  0.63749  1.0000
  H   H59       1.0  0.60450  0.06430  0.40710  1.0000
  H   H60       1.0  0.39550  0.93570  0.59290  1.0000
  H   H61       1.0  0.63180  0.98460  0.35340  1.0000
  H   H62       1.0  0.36820  0.01540  0.64660  1.0000
  C   C59       1.0  0.49480  0.05010  0.32487  1.0000
  C   C60       1.0  0.50520  0.94990  0.67513  1.0000
  H   H63       1.0  0.48740  0.13190  0.32950  1.0000
  H   H64       1.0  0.51260  0.86810  0.67050  1.0000
  H   H65       1.0  0.42110  0.98580  0.34290  1.0000
  H   H66       1.0  0.57890  0.01420  0.65710  1.0000
  C   C61       1.0  0.48460  0.01530  0.25615  1.0000
  C   C62       1.0  0.51540  0.98470  0.74385  1.0000
  H   H67       1.0  0.50480  0.94060  0.25070  1.0000
  H   H68       1.0  0.49520  0.05940  0.74930  1.0000
  H   H69       1.0  0.39580  0.99200  0.23830  1.0000
  H   H70       1.0  0.60420  0.00800  0.76170  1.0000
  C   C63       1.0  0.71030  0.43020  0.99024  1.0000
  C   C64       1.0  0.28970  0.56980  0.00976  1.0000
  H   H71       1.0  0.74860  0.48360  0.95600  1.0000
  H   H72       1.0  0.25140  0.51640  0.04400  1.0000
  H   H73       1.0  0.74650  0.36620  0.99440  1.0000
  H   H74       1.0  0.25350  0.63380  0.00560  1.0000
  C   C65       1.0  0.74140  0.51150  0.05022  1.0000
  C   C66       1.0  0.25860  0.48850  0.94978  1.0000
  H   H75       1.0  0.70870  0.45730  0.08500  1.0000
  H   H76       1.0  0.29130  0.54270  0.91500  1.0000
  H   H77       1.0  0.83500  0.55720  0.05880  1.0000
  H   H78       1.0  0.16500  0.44280  0.94120  1.0000
  C   C67       1.0  0.68570  0.66810  0.10452  1.0000
  C   C68       1.0  0.31430  0.33190  0.89548  1.0000
  H   H79       1.0  0.77560  0.71730  0.12090  1.0000
  H   H80       1.0  0.22440  0.28270  0.87910  1.0000
  H   H81       1.0  0.64480  0.60460  0.13460  1.0000
  H   H82       1.0  0.35520  0.39540  0.86540  1.0000
  C   C69       1.0  0.61810  0.75660  0.09859  1.0000
  C   C70       1.0  0.38190  0.24340  0.90141  1.0000
  H   H83       1.0  0.65190  0.81220  0.06440  1.0000
  H   H84       1.0  0.34810  0.18780  0.93560  1.0000
  H   H85       1.0  0.64040  0.81110  0.13710  1.0000
  H   H86       1.0  0.35960  0.18890  0.86290  1.0000
  C   C71       1.0  0.47220  0.69340  0.08661  1.0000
  C   C72       1.0  0.52780  0.30660  0.91339  1.0000
  H   H87       1.0  0.43800  0.62890  0.11720  1.0000
  H   H88       1.0  0.56200  0.37110  0.88280  1.0000
  H   H89       1.0  0.43730  0.75780  0.09250  1.0000
  H   H90       1.0  0.56270  0.24220  0.90750  1.0000
