data_image0
_chemical_formula_structural       Ni5N2H2N2H2N2H2N2H2N2H2N2H2N6O24C2H4C2H4C2H4C2H4C2H4C2H4C2H4C2H4C2H4C2H4C2H4C2H4C2H4C2H4C2H4C4H2C2H2C4H2C8H2C2H2C4H2C8H2C2H2C4H2C4
_chemical_formula_sum              "Ni5 N18 H90 O24 C72"
_cell_length_a       11.4505
_cell_length_b       11.5123
_cell_length_c       21.6191
_cell_angle_alpha    94.207
_cell_angle_beta     91.531
_cell_angle_gamma    113.612

_space_group_name_H-M_alt    "P 1"
_space_group_IT_number       1

loop_
  _space_group_symop_operation_xyz
  'x, y, z'

loop_
  _atom_site_type_symbol
  _atom_site_label
  _atom_site_symmetry_multiplicity
  _atom_site_fract_x
  _atom_site_fract_y
  _atom_site_fract_z
  _atom_site_occupancy
  Ni  Ni1       1.0  0.80769  0.73524  0.24176  1.0000
  Ni  Ni2       1.0  0.19231  0.26476  0.75824  1.0000
  Ni  Ni3       1.0  0.50000  0.00000  0.50000  1.0000
  Ni  Ni4       1.0  0.08174  0.45178  0.26858  1.0000
  Ni  Ni5       1.0  0.91826  0.54822  0.73142  1.0000
  N   N1        1.0  0.82430  0.76930  0.14912  1.0000
  N   N2        1.0  0.17570  0.23070  0.85088  1.0000
  H   H1        1.0  0.76100  0.78500  0.13500  1.0000
  H   H2        1.0  0.23900  0.21500  0.86500  1.0000
  N   N3        1.0  0.73900  0.54490  0.21000  1.0000
  N   N4        1.0  0.26100  0.45510  0.79000  1.0000
  H   H3        1.0  0.80200  0.52600  0.21200  1.0000
  H   H4        1.0  0.19800  0.47400  0.78800  1.0000
  N   N5        1.0  0.79660  0.70280  0.33498  1.0000
  N   N6        1.0  0.20340  0.29720  0.66502  1.0000
  H   H5        1.0  0.86000  0.67500  0.33400  1.0000
  H   H6        1.0  0.14000  0.32500  0.66600  1.0000
  N   N7        1.0  0.87860  0.92660  0.27387  1.0000
  N   N8        1.0  0.12140  0.07340  0.72613  1.0000
  H   H7        1.0  0.80900  0.93800  0.26800  1.0000
  H   H8        1.0  0.19100  0.06200  0.73200  1.0000
  N   N9        1.0  0.60280  0.17880  0.54525  1.0000
  N   N10       1.0  0.39720  0.82120  0.45475  1.0000
  H   H9        1.0  0.66400  0.21600  0.52300  1.0000
  H   H10       1.0  0.33600  0.78400  0.47700  1.0000
  N   N11       1.0  0.63220  0.92860  0.52428  1.0000
  N   N12       1.0  0.36780  0.07140  0.47572  1.0000
  H   H11       1.0  0.70100  0.95700  0.50440  1.0000
  H   H12       1.0  0.29900  0.04300  0.49560  1.0000
  N   N13       1.0  0.19660  0.35350  0.26650  1.0000
  N   N14       1.0  0.80340  0.64650  0.73350  1.0000
  N   N15       1.0  0.22600  0.61900  0.24553  1.0000
  N   N16       1.0  0.77400  0.38100  0.75447  1.0000
  N   N17       1.0  0.91210  0.30240  0.28564  1.0000
  N   N18       1.0  0.08790  0.69760  0.71436  1.0000
  O   O1        1.0  0.14450  0.48240  0.36062  1.0000
  O   O2        1.0  0.85550  0.51760  0.63938  1.0000
  O   O3        1.0  0.24680  0.41490  0.42947  1.0000
  O   O4        1.0  0.75320  0.58510  0.57053  1.0000
  O   O5        1.0  0.30850  0.19830  0.11262  1.0000
  O   O6        1.0  0.69150  0.80170  0.88738  1.0000
  O   O7        1.0  0.41650  0.12140  0.17201  1.0000
  O   O8        1.0  0.58350  0.87860  0.82799  1.0000
  O   O9        1.0  0.98610  0.56870  0.27118  1.0000
  O   O10       1.0  0.01390  0.43130  0.72882  1.0000
  O   O11       1.0  0.00120  0.75700  0.24502  1.0000
  O   O12       1.0  0.99880  0.24300  0.75498  1.0000
  O   O13       1.0  0.61610  0.71850  0.24050  1.0000
  O   O14       1.0  0.38390  0.28150  0.75950  1.0000
  O   O15       1.0  0.63510  0.88220  0.18593  1.0000
  O   O16       1.0  0.36490  0.11780  0.81407  1.0000
  O   O17       1.0  0.00430  0.38980  0.17929  1.0000
  O   O18       1.0  0.99570  0.61020  0.82071  1.0000
  O   O19       1.0  0.81620  0.28660  0.12739  1.0000
  O   O20       1.0  0.18380  0.71340  0.87261  1.0000
  O   O21       1.0  0.59250  0.06410  0.41573  1.0000
  O   O22       1.0  0.40750  0.93590  0.58427  1.0000
  O   O23       1.0  0.79640  0.11340  0.44414  1.0000
  O   O24       1.0  0.20360  0.88660  0.55586  1.0000
  C   C1        1.0  0.80770  0.64830  0.11500  1.0000
  C   C2        1.0  0.19230  0.35170  0.88500  1.0000
  H   H13       1.0  0.88930  0.63780  0.11700  1.0000
  H   H14       1.0  0.11070  0.36220  0.88300  1.0000
  H   H15       1.0  0.78290  0.64860  0.07080  1.0000
  H   H16       1.0  0.21710  0.35140  0.92920  1.0000
  C   C3        1.0  0.70590  0.53910  0.14280  1.0000
  C   C4        1.0  0.29410  0.46090  0.85720  1.0000
  H   H17       1.0  0.62220  0.54440  0.13680  1.0000
  H   H18       1.0  0.37780  0.45560  0.86320  1.0000
  H   H19       1.0  0.69950  0.45730  0.12170  1.0000
  H   H20       1.0  0.30050  0.54270  0.87830  1.0000
  C   C5        1.0  0.63490  0.45950  0.24500  1.0000
  C   C6        1.0  0.36510  0.54050  0.75500  1.0000
  H   H21       1.0  0.60950  0.37050  0.22730  1.0000
  H   H22       1.0  0.39050  0.62950  0.77270  1.0000
  H   H23       1.0  0.55980  0.48110  0.24060  1.0000
  H   H24       1.0  0.44020  0.51890  0.75940  1.0000
  C   C7        1.0  0.67440  0.47020  0.31330  1.0000
  C   C8        1.0  0.32560  0.52980  0.68670  1.0000
  H   H25       1.0  0.75840  0.46490  0.31700  1.0000
  H   H26       1.0  0.24160  0.53510  0.68300  1.0000
  H   H27       1.0  0.61200  0.39640  0.33220  1.0000
  H   H28       1.0  0.38800  0.60360  0.66780  1.0000
  C   C9        1.0  0.68380  0.59150  0.35010  1.0000
  C   C10       1.0  0.31620  0.40850  0.64990  1.0000
  H   H29       1.0  0.60570  0.60580  0.34090  1.0000
  H   H30       1.0  0.39430  0.39420  0.65910  1.0000
  H   H31       1.0  0.68930  0.58180  0.39510  1.0000
  H   H32       1.0  0.31070  0.41820  0.60490  1.0000
  C   C11       1.0  0.80930  0.82490  0.36780  1.0000
  C   C12       1.0  0.19070  0.17510  0.63220  1.0000
  H   H33       1.0  0.83160  0.82640  0.41250  1.0000
  H   H34       1.0  0.16840  0.17360  0.58750  1.0000
  H   H35       1.0  0.72690  0.83370  0.36390  1.0000
  H   H36       1.0  0.27310  0.16630  0.63610  1.0000
  C   C13       1.0  0.91070  0.93340  0.34070  1.0000
  C   C14       1.0  0.08930  0.06660  0.65930  1.0000
  H   H37       1.0  0.91630  0.01520  0.36150  1.0000
  H   H38       1.0  0.08370  0.98480  0.63850  1.0000
  H   H39       1.0  0.99450  0.92850  0.34720  1.0000
  H   H40       1.0  0.00550  0.07150  0.65280  1.0000
  C   C15       1.0  0.98310  0.01430  0.23950  1.0000
  C   C16       1.0  0.01690  0.98570  0.76050  1.0000
  H   H41       1.0  0.06000  0.99650  0.24610  1.0000
  H   H42       1.0  0.94000  0.00350  0.75390  1.0000
  H   H43       1.0  0.00420  0.10290  0.25680  1.0000
  H   H44       1.0  0.99580  0.89710  0.74320  1.0000
  C   C17       1.0  0.95100  0.00350  0.17060  1.0000
  C   C18       1.0  0.04900  0.99650  0.82940  1.0000
  H   H45       1.0  0.01830  0.07510  0.15250  1.0000
  H   H46       1.0  0.98170  0.92490  0.84750  1.0000
  H   H47       1.0  0.86970  0.01380  0.16450  1.0000
  H   H48       1.0  0.13030  0.98620  0.83550  1.0000
  C   C19       1.0  0.93770  0.88070  0.13440  1.0000
  C   C20       1.0  0.06230  0.11930  0.86560  1.0000
  H   H49       1.0  0.93240  0.89030  0.08940  1.0000
  H   H50       1.0  0.06760  0.10970  0.91060  1.0000
  H   H51       1.0  0.01520  0.86510  0.14340  1.0000
  H   H52       1.0  0.98480  0.13490  0.85660  1.0000
  C   C21       1.0  0.51220  0.24060  0.55061  1.0000
  C   C22       1.0  0.48780  0.75940  0.44939  1.0000
  H   H53       1.0  0.55970  0.33390  0.55890  1.0000
  H   H54       1.0  0.44030  0.66610  0.44110  1.0000
  H   H55       1.0  0.45730  0.20920  0.58560  1.0000
  H   H56       1.0  0.54270  0.79080  0.41440  1.0000
  C   C23       1.0  0.66800  0.18040  0.60573  1.0000
  C   C24       1.0  0.33200  0.81960  0.39427  1.0000
  H   H57       1.0  0.60300  0.13930  0.63550  1.0000
  H   H58       1.0  0.39700  0.86070  0.36450  1.0000
  H   H59       1.0  0.71760  0.26990  0.62250  1.0000
  H   H60       1.0  0.28240  0.73010  0.37750  1.0000
  C   C25       1.0  0.75730  0.11220  0.60030  1.0000
  C   C26       1.0  0.24270  0.88780  0.39970  1.0000
  H   H61       1.0  0.81440  0.14650  0.56650  1.0000
  H   H62       1.0  0.18560  0.85350  0.43350  1.0000
  H   H63       1.0  0.81150  0.13310  0.63940  1.0000
  H   H64       1.0  0.18850  0.86690  0.36060  1.0000
  C   C27       1.0  0.69400  0.96850  0.58770  1.0000
  C   C28       1.0  0.30600  0.03150  0.41230  1.0000
  H   H65       1.0  0.75900  0.93300  0.59300  1.0000
  H   H66       1.0  0.24100  0.06700  0.40700  1.0000
  H   H67       1.0  0.62910  0.93350  0.61840  1.0000
  H   H68       1.0  0.37090  0.06650  0.38160  1.0000
  C   C29       1.0  0.56930  0.78980  0.50950  1.0000
  C   C30       1.0  0.43070  0.21020  0.49050  1.0000
  H   H69       1.0  0.51520  0.75050  0.54350  1.0000
  H   H70       1.0  0.48480  0.24950  0.45650  1.0000
  H   H71       1.0  0.63460  0.75410  0.50530  1.0000
  H   H72       1.0  0.36540  0.24590  0.49470  1.0000
  C   C31       1.0  0.24620  0.35020  0.32245  1.0000
  C   C32       1.0  0.75380  0.64980  0.67755  1.0000
  C   C33       1.0  0.32650  0.28910  0.33154  1.0000
  C   C34       1.0  0.67350  0.71090  0.66846  1.0000
  H   H73       1.0  0.36010  0.28730  0.37190  1.0000
  H   H74       1.0  0.63990  0.71270  0.62810  1.0000
  C   C35       1.0  0.35670  0.23000  0.27924  1.0000
  C   C36       1.0  0.64330  0.77000  0.72076  1.0000
  H   H75       1.0  0.41060  0.18600  0.28390  1.0000
  H   H76       1.0  0.58940  0.81400  0.71610  1.0000
  C   C37       1.0  0.30900  0.23560  0.22193  1.0000
  C   C38       1.0  0.69100  0.76440  0.77807  1.0000
  C   C39       1.0  0.22830  0.29830  0.21633  1.0000
  C   C40       1.0  0.77170  0.70170  0.78367  1.0000
  H   H77       1.0  0.19480  0.30240  0.17630  1.0000
  H   H78       1.0  0.80520  0.69760  0.82370  1.0000
  C   C41       1.0  0.20980  0.42080  0.37614  1.0000
  C   C42       1.0  0.79020  0.57920  0.62386  1.0000
  C   C43       1.0  0.34600  0.18160  0.16537  1.0000
  C   C44       1.0  0.65400  0.81840  0.83463  1.0000
  C   C45       1.0  0.18460  0.71240  0.24035  1.0000
  C   C46       1.0  0.81540  0.28760  0.75965  1.0000
  C   C47       1.0  0.26280  0.83230  0.22576  1.0000
  C   C48       1.0  0.73720  0.16770  0.77424  1.0000
  H   H79       1.0  0.23060  0.89580  0.22170  1.0000
  H   H80       1.0  0.76940  0.10420  0.77830  1.0000
  C   C49       1.0  0.38930  0.85740  0.21716  1.0000
  C   C50       1.0  0.61070  0.14260  0.78284  1.0000
  H   H81       1.0  0.44520  0.93920  0.20690  1.0000
  H   H82       1.0  0.55480  0.06080  0.79310  1.0000
  C   C51       1.0  0.43520  0.76410  0.22335  1.0000
  C   C52       1.0  0.56480  0.23590  0.77665  1.0000
  C   C53       1.0  0.34900  0.64530  0.23846  1.0000
  C   C54       1.0  0.65100  0.35470  0.76154  1.0000
  H   H83       1.0  0.37930  0.58080  0.24390  1.0000
  H   H84       1.0  0.62070  0.41920  0.75610  1.0000
  C   C55       1.0  0.04550  0.67650  0.25336  1.0000
  C   C56       1.0  0.95450  0.32350  0.74664  1.0000
  C   C57       1.0  0.57440  0.79110  0.21540  1.0000
  C   C58       1.0  0.42560  0.20890  0.78460  1.0000
  C   C59       1.0  0.83220  0.25980  0.23455  1.0000
  C   C60       1.0  0.16780  0.74020  0.76545  1.0000
  C   C61       1.0  0.70800  0.17070  0.23768  1.0000
  C   C62       1.0  0.29200  0.82930  0.76232  1.0000
  H   H85       1.0  0.65210  0.14110  0.20130  1.0000
  H   H86       1.0  0.34790  0.85890  0.79870  1.0000
  C   C63       1.0  0.66580  0.12510  0.29393  1.0000
  C   C64       1.0  0.33420  0.87490  0.70607  1.0000
  H   H87       1.0  0.58040  0.06560  0.29680  1.0000
  H   H88       1.0  0.41960  0.93440  0.70320  1.0000
  C   C65       1.0  0.74960  0.16700  0.34586  1.0000
  C   C66       1.0  0.25040  0.83300  0.65414  1.0000
  C   C67       1.0  0.87280  0.25710  0.33998  1.0000
  C   C68       1.0  0.12720  0.74290  0.66002  1.0000
  H   H89       1.0  0.93060  0.28730  0.37570  1.0000
  H   H90       1.0  0.06940  0.71270  0.62430  1.0000
  C   C69       1.0  0.88820  0.31570  0.17513  1.0000
  C   C70       1.0  0.11180  0.68430  0.82487  1.0000
  C   C71       1.0  0.71020  0.11220  0.40787  1.0000
  C   C72       1.0  0.28980  0.88780  0.59213  1.0000
