data_image0
_chemical_formula_structural       Fe2O14H4O2H4N2C6H2C6H2C4
_chemical_formula_sum              "Fe2 O16 H12 N2 C16"
_cell_length_a       7.3534
_cell_length_b       8.89
_cell_length_c       11.073
_cell_angle_alpha    74.723
_cell_angle_beta     74.541
_cell_angle_gamma    79.333

_space_group_name_H-M_alt    "P 1"
_space_group_IT_number       1

loop_
  _space_group_symop_operation_xyz
  'x, y, z'

loop_
  _atom_site_type_symbol
  _atom_site_label
  _atom_site_symmetry_multiplicity
  _atom_site_fract_x
  _atom_site_fract_y
  _atom_site_fract_z
  _atom_site_occupancy
  Fe  Fe1       1.0  0.20694  0.35913  0.67657  1.0000
  Fe  Fe2       1.0  0.79306  0.64087  0.32343  1.0000
  O   O1        1.0  0.21020  0.22480  0.87640  1.0000
  O   O2        1.0  0.78980  0.77520  0.12360  1.0000
  O   O3        1.0  0.23180  0.98230  0.00030  1.0000
  O   O4        1.0  0.76820  0.01770  0.99970  1.0000
  O   O5        1.0  0.12130  0.55490  0.78700  1.0000
  O   O6        1.0  0.87870  0.44510  0.21300  1.0000
  O   O7        1.0  0.22820  0.60720  0.57930  1.0000
  O   O8        1.0  0.77180  0.39280  0.42070  1.0000
  O   O9        1.0  0.26210  0.19300  0.34420  1.0000
  O   O10       1.0  0.73790  0.80700  0.65580  1.0000
  O   O11       1.0  0.24590  0.34980  0.47450  1.0000
  O   O12       1.0  0.75410  0.65020  0.52550  1.0000
  O   O13       1.0  0.91010  0.38370  0.69120  1.0000
  O   O14       1.0  0.08990  0.61630  0.30880  1.0000
  H   H1        1.0  0.86170  0.45910  0.63630  1.0000
  H   H2        1.0  0.13830  0.54090  0.36370  1.0000
  H   H3        1.0  0.85020  0.29860  0.69110  1.0000
  H   H4        1.0  0.14980  0.70140  0.30890  1.0000
  O   O15       1.0  0.50650  0.34570  0.65980  1.0000
  O   O16       1.0  0.49350  0.65430  0.34020  1.0000
  H   H5        1.0  0.55540  0.25370  0.69640  1.0000
  H   H6        1.0  0.44460  0.74630  0.30360  1.0000
  H   H7        1.0  0.56610  0.36610  0.57490  1.0000
  H   H8        1.0  0.43390  0.63390  0.42510  1.0000
  N   N1        1.0  0.21390  0.12330  0.67750  1.0000
  N   N2        1.0  0.78610  0.87670  0.32250  1.0000
  C   C1        1.0  0.21140  0.07780  0.89940  1.0000
  C   C2        1.0  0.78860  0.92220  0.10060  1.0000
  C   C3        1.0  0.19760  0.01570  0.78830  1.0000
  C   C4        1.0  0.80240  0.98430  0.21170  1.0000
  C   C5        1.0  0.17840  0.86210  0.79490  1.0000
  C   C6        1.0  0.82160  0.13790  0.20510  1.0000
  H   H9        1.0  0.16230  0.78940  0.87340  1.0000
  H   H10       1.0  0.83770  0.21060  0.12660  1.0000
  C   C7        1.0  0.18350  0.81790  0.68310  1.0000
  C   C8        1.0  0.81650  0.18210  0.31690  1.0000
  C   C9        1.0  0.17490  0.65110  0.68340  1.0000
  C   C10       1.0  0.82510  0.34890  0.31660  1.0000
  C   C11       1.0  0.20660  0.93050  0.56730  1.0000
  C   C12       1.0  0.79340  0.06950  0.43270  1.0000
  H   H11       1.0  0.21300  0.90340  0.49060  1.0000
  H   H12       1.0  0.78700  0.09660  0.50940  1.0000
  C   C13       1.0  0.21980  0.08290  0.56870  1.0000
  C   C14       1.0  0.78020  0.91710  0.43130  1.0000
  C   C15       1.0  0.24420  0.21840  0.45220  1.0000
  C   C16       1.0  0.75580  0.78160  0.54780  1.0000
