data_image0
_chemical_formula_structural       Co2O14H4O2H4N2C6H2C6H2C4
_chemical_formula_sum              "Co2 O16 H12 N2 C16"
_cell_length_a       7.328
_cell_length_b       8.876
_cell_length_c       11.052
_cell_angle_alpha    74.652
_cell_angle_beta     74.734
_cell_angle_gamma    79.607

_space_group_name_H-M_alt    "P 1"
_space_group_IT_number       1

loop_
  _space_group_symop_operation_xyz
  'x, y, z'

loop_
  _atom_site_type_symbol
  _atom_site_label
  _atom_site_symmetry_multiplicity
  _atom_site_fract_x
  _atom_site_fract_y
  _atom_site_fract_z
  _atom_site_occupancy
  Co  Co1       1.0  0.79341  0.64102  0.82349  1.0000
  Co  Co2       1.0  0.20659  0.35898  0.17651  1.0000
  O   O1        1.0  0.75420  0.65060  0.02550  1.0000
  O   O2        1.0  0.24580  0.34940  0.97450  1.0000
  O   O3        1.0  0.73740  0.80730  0.15650  1.0000
  O   O4        1.0  0.26260  0.19270  0.84350  1.0000
  O   O5        1.0  0.79000  0.77530  0.62340  1.0000
  O   O6        1.0  0.21000  0.22470  0.37660  1.0000
  O   O7        1.0  0.76850  0.01810  0.49990  1.0000
  O   O8        1.0  0.23150  0.98190  0.50010  1.0000
  O   O9        1.0  0.77150  0.39310  0.92060  1.0000
  O   O10       1.0  0.22850  0.60690  0.07940  1.0000
  O   O11       1.0  0.87890  0.44540  0.71320  1.0000
  O   O12       1.0  0.12110  0.55460  0.28680  1.0000
  O   O13       1.0  0.49390  0.65450  0.84060  1.0000
  O   O14       1.0  0.50610  0.34550  0.15940  1.0000
  H   H1        1.0  0.42910  0.73920  0.82370  1.0000
  H   H2        1.0  0.57090  0.26080  0.17630  1.0000
  H   H3        1.0  0.41590  0.63330  0.93220  1.0000
  H   H4        1.0  0.58410  0.36670  0.06780  1.0000
  O   O15       1.0  0.09010  0.61630  0.80920  1.0000
  O   O16       1.0  0.90990  0.38370  0.19080  1.0000
  H   H5        1.0  0.13560  0.53840  0.85900  1.0000
  H   H6        1.0  0.86440  0.46160  0.14100  1.0000
  H   H7        1.0  0.13860  0.69630  0.80390  1.0000
  H   H8        1.0  0.86140  0.30370  0.19610  1.0000
  N   N1        1.0  0.78610  0.87640  0.82230  1.0000
  N   N2        1.0  0.21390  0.12360  0.17770  1.0000
  C   C1        1.0  0.75640  0.78170  0.04840  1.0000
  C   C2        1.0  0.24360  0.21830  0.95160  1.0000
  C   C3        1.0  0.78060  0.91740  0.93050  1.0000
  C   C4        1.0  0.21940  0.08260  0.06950  1.0000
  C   C5        1.0  0.79300  0.06990  0.93270  1.0000
  C   C6        1.0  0.20700  0.93010  0.06730  1.0000
  H   H9        1.0  0.78550  0.09710  0.00970  1.0000
  H   H10       1.0  0.21450  0.90290  0.99030  1.0000
  C   C7        1.0  0.81690  0.18160  0.81700  1.0000
  C   C8        1.0  0.18310  0.81840  0.18300  1.0000
  C   C9        1.0  0.82560  0.34940  0.81640  1.0000
  C   C10       1.0  0.17440  0.65060  0.18360  1.0000
  C   C11       1.0  0.82190  0.13810  0.70560  1.0000
  C   C12       1.0  0.17810  0.86190  0.29440  1.0000
  H   H11       1.0  0.83760  0.21140  0.62710  1.0000
  H   H12       1.0  0.16240  0.78860  0.37290  1.0000
  C   C13       1.0  0.80320  0.98430  0.71200  1.0000
  C   C14       1.0  0.19680  0.01570  0.28800  1.0000
  C   C15       1.0  0.78830  0.92240  0.60060  1.0000
  C   C16       1.0  0.21170  0.07760  0.39940  1.0000
