data_image0
_chemical_formula_structural       In8S12O88H16C16
_chemical_formula_sum              "In8 S12 O88 H16 C16"
_cell_length_a       13.8931
_cell_length_b       14.6792
_cell_length_c       15.2418
_cell_angle_alpha    90
_cell_angle_beta     111.153
_cell_angle_gamma    90

_space_group_name_H-M_alt    "P 1"
_space_group_IT_number       1

loop_
  _space_group_symop_operation_xyz
  'x, y, z'

loop_
  _atom_site_type_symbol
  _atom_site_label
  _atom_site_symmetry_multiplicity
  _atom_site_fract_x
  _atom_site_fract_y
  _atom_site_fract_z
  _atom_site_occupancy
  In  In1       1.0  0.31974  0.58673  0.36279  1.0000
  In  In2       1.0  0.18026  0.58673  0.63721  1.0000
  In  In3       1.0  0.81974  0.08673  0.86279  1.0000
  In  In4       1.0  0.68026  0.08673  0.13721  1.0000
  In  In5       1.0  0.68026  0.41327  0.63721  1.0000
  In  In6       1.0  0.81974  0.41327  0.36279  1.0000
  In  In7       1.0  0.18026  0.91327  0.13721  1.0000
  In  In8       1.0  0.31974  0.91327  0.86279  1.0000
  S   S1        1.0  0.25000  0.72972  0.50000  1.0000
  S   S2        1.0  0.75000  0.22972  0.00000  1.0000
  S   S3        1.0  0.75000  0.27028  0.50000  1.0000
  S   S4        1.0  0.25000  0.77028  0.00000  1.0000
  S   S5        1.0  0.40707  0.46929  0.22129  1.0000
  S   S6        1.0  0.09293  0.46929  0.77871  1.0000
  S   S7        1.0  0.90707  0.96929  0.72129  1.0000
  S   S8        1.0  0.59293  0.96929  0.27871  1.0000
  S   S9        1.0  0.59293  0.53071  0.77871  1.0000
  S   S10       1.0  0.90707  0.53071  0.22129  1.0000
  S   S11       1.0  0.09293  0.03071  0.27871  1.0000
  S   S12       1.0  0.40707  0.03071  0.72129  1.0000
  O   O1        1.0  0.32620  0.66890  0.48050  1.0000
  O   O2        1.0  0.17380  0.66890  0.51950  1.0000
  O   O3        1.0  0.82620  0.16890  0.98050  1.0000
  O   O4        1.0  0.67380  0.16890  0.01950  1.0000
  O   O5        1.0  0.67380  0.33110  0.51950  1.0000
  O   O6        1.0  0.82620  0.33110  0.48050  1.0000
  O   O7        1.0  0.17380  0.83110  0.01950  1.0000
  O   O8        1.0  0.32620  0.83110  0.98050  1.0000
  O   O9        1.0  0.30550  0.78490  0.58150  1.0000
  O   O10       1.0  0.19450  0.78490  0.41850  1.0000
  O   O11       1.0  0.80550  0.28490  0.08150  1.0000
  O   O12       1.0  0.69450  0.28490  0.91850  1.0000
  O   O13       1.0  0.69450  0.21510  0.41850  1.0000
  O   O14       1.0  0.80550  0.21510  0.58150  1.0000
  O   O15       1.0  0.19450  0.71510  0.91850  1.0000
  O   O16       1.0  0.30550  0.71510  0.08150  1.0000
  O   O17       1.0  0.32120  0.50720  0.24800  1.0000
  O   O18       1.0  0.17880  0.50720  0.75200  1.0000
  O   O19       1.0  0.82120  0.00720  0.74800  1.0000
  O   O20       1.0  0.67880  0.00720  0.25200  1.0000
  O   O21       1.0  0.67880  0.49280  0.75200  1.0000
  O   O22       1.0  0.82120  0.49280  0.24800  1.0000
  O   O23       1.0  0.17880  0.99280  0.25200  1.0000
  O   O24       1.0  0.32120  0.99280  0.74800  1.0000
  O   O25       1.0  0.36300  0.39990  0.15000  1.0000
  O   O26       1.0  0.13700  0.39990  0.85000  1.0000
  O   O27       1.0  0.86300  0.89990  0.65000  1.0000
  O   O28       1.0  0.63700  0.89990  0.35000  1.0000
  O   O29       1.0  0.63700  0.60010  0.85000  1.0000
  O   O30       1.0  0.86300  0.60010  0.15000  1.0000
  O   O31       1.0  0.13700  0.10010  0.35000  1.0000
  O   O32       1.0  0.36300  0.10010  0.65000  1.0000
  O   O33       1.0  0.45370  0.54350  0.18680  1.0000
  O   O34       1.0  0.04630  0.54350  0.81320  1.0000
  O   O35       1.0  0.95370  0.04350  0.68680  1.0000
  O   O36       1.0  0.54630  0.04350  0.31320  1.0000
  O   O37       1.0  0.54630  0.45650  0.81320  1.0000
  O   O38       1.0  0.95370  0.45650  0.18680  1.0000
  O   O39       1.0  0.04630  0.95650  0.31320  1.0000
  O   O40       1.0  0.45370  0.95650  0.68680  1.0000
  O   O41       1.0  0.48480  0.42890  0.30670  1.0000
  O   O42       1.0  0.01520  0.42890  0.69330  1.0000
  O   O43       1.0  0.98480  0.92890  0.80670  1.0000
  O   O44       1.0  0.51520  0.92890  0.19330  1.0000
  O   O45       1.0  0.51520  0.57110  0.69330  1.0000
  O   O46       1.0  0.98480  0.57110  0.30670  1.0000
  O   O47       1.0  0.01520  0.07110  0.19330  1.0000
  O   O48       1.0  0.48480  0.07110  0.80670  1.0000
  O   O49       1.0  0.36990  0.47170  0.46600  1.0000
  O   O50       1.0  0.13010  0.47170  0.53400  1.0000
  O   O51       1.0  0.86990  0.97170  0.96600  1.0000
  O   O52       1.0  0.63010  0.97170  0.03400  1.0000
  O   O53       1.0  0.63010  0.52830  0.53400  1.0000
  O   O54       1.0  0.86990  0.52830  0.46600  1.0000
  O   O55       1.0  0.13010  0.02830  0.03400  1.0000
  O   O56       1.0  0.36990  0.02830  0.96600  1.0000
  O   O57       1.0  0.50700  0.40450  0.56970  1.0000
  O   O58       1.0  0.99300  0.40450  0.43030  1.0000
  O   O59       1.0  0.00700  0.90450  0.06970  1.0000
  O   O60       1.0  0.49300  0.90450  0.93030  1.0000
  O   O61       1.0  0.49300  0.59550  0.43030  1.0000
  O   O62       1.0  0.00700  0.59550  0.56970  1.0000
  O   O63       1.0  0.99300  0.09550  0.93030  1.0000
  O   O64       1.0  0.50700  0.09550  0.06970  1.0000
  O   O65       1.0  0.18180  0.65320  0.25930  1.0000
  O   O66       1.0  0.31820  0.65320  0.74070  1.0000
  O   O67       1.0  0.68180  0.15320  0.75930  1.0000
  O   O68       1.0  0.81820  0.15320  0.24070  1.0000
  O   O69       1.0  0.81820  0.34680  0.74070  1.0000
  O   O70       1.0  0.68180  0.34680  0.25930  1.0000
  O   O71       1.0  0.31820  0.84680  0.24070  1.0000
  O   O72       1.0  0.18180  0.84680  0.75930  1.0000
  O   O73       1.0  0.12520  0.78320  0.18220  1.0000
  O   O74       1.0  0.37480  0.78320  0.81780  1.0000
  O   O75       1.0  0.62520  0.28320  0.68220  1.0000
  O   O76       1.0  0.87480  0.28320  0.31780  1.0000
  O   O77       1.0  0.87480  0.21680  0.81780  1.0000
  O   O78       1.0  0.62520  0.21680  0.18220  1.0000
  O   O79       1.0  0.37480  0.71680  0.31780  1.0000
  O   O80       1.0  0.12520  0.71680  0.68220  1.0000
  O   O81       1.0  0.18040  0.50950  0.35950  1.0000
  O   O82       1.0  0.31960  0.50950  0.64050  1.0000
  O   O83       1.0  0.68040  0.00950  0.85950  1.0000
  O   O84       1.0  0.81960  0.00950  0.14050  1.0000
  O   O85       1.0  0.81960  0.49050  0.64050  1.0000
  O   O86       1.0  0.68040  0.49050  0.35950  1.0000
  O   O87       1.0  0.31960  0.99050  0.14050  1.0000
  O   O88       1.0  0.18040  0.99050  0.85950  1.0000
  H   H1        1.0  0.18470  0.49650  0.41620  1.0000
  H   H2        1.0  0.31530  0.49650  0.58380  1.0000
  H   H3        1.0  0.68470  0.99650  0.91620  1.0000
  H   H4        1.0  0.81530  0.99650  0.08380  1.0000
  H   H5        1.0  0.81530  0.50350  0.58380  1.0000
  H   H6        1.0  0.68470  0.50350  0.41620  1.0000
  H   H7        1.0  0.31530  0.00350  0.08380  1.0000
  H   H8        1.0  0.18470  0.00350  0.91620  1.0000
  H   H9        1.0  0.17480  0.45910  0.32850  1.0000
  H   H10       1.0  0.32520  0.45910  0.67150  1.0000
  H   H11       1.0  0.67480  0.95910  0.82850  1.0000
  H   H12       1.0  0.82520  0.95910  0.17150  1.0000
  H   H13       1.0  0.82520  0.54090  0.67150  1.0000
  H   H14       1.0  0.67480  0.54090  0.32850  1.0000
  H   H15       1.0  0.32520  0.04090  0.17150  1.0000
  H   H16       1.0  0.17480  0.04090  0.82850  1.0000
  C   C1        1.0  0.46510  0.46430  0.51020  1.0000
  C   C2        1.0  0.03490  0.46430  0.48980  1.0000
  C   C3        1.0  0.96510  0.96430  0.01020  1.0000
  C   C4        1.0  0.53490  0.96430  0.98980  1.0000
  C   C5        1.0  0.53490  0.53570  0.48980  1.0000
  C   C6        1.0  0.96510  0.53570  0.51020  1.0000
  C   C7        1.0  0.03490  0.03570  0.98980  1.0000
  C   C8        1.0  0.46510  0.03570  0.01020  1.0000
  C   C9        1.0  0.19480  0.73180  0.23300  1.0000
  C   C10       1.0  0.30520  0.73180  0.76700  1.0000
  C   C11       1.0  0.69480  0.23180  0.73300  1.0000
  C   C12       1.0  0.80520  0.23180  0.26700  1.0000
  C   C13       1.0  0.80520  0.26820  0.76700  1.0000
  C   C14       1.0  0.69480  0.26820  0.23300  1.0000
  C   C15       1.0  0.30520  0.76820  0.26700  1.0000
  C   C16       1.0  0.19480  0.76820  0.73300  1.0000
