data_image0
_chemical_formula_structural       Mn4S4O32C8
_chemical_formula_sum              "Mn4 S4 O32 C8"
_cell_length_a       9.8603
_cell_length_b       12.6525
_cell_length_c       10.0837
_cell_angle_alpha    90
_cell_angle_beta     113.002
_cell_angle_gamma    90

_space_group_name_H-M_alt    "P 1"
_space_group_IT_number       1

loop_
  _space_group_symop_operation_xyz
  'x, y, z'

loop_
  _atom_site_type_symbol
  _atom_site_label
  _atom_site_symmetry_multiplicity
  _atom_site_fract_x
  _atom_site_fract_y
  _atom_site_fract_z
  _atom_site_occupancy
  Mn  Mn1       1.0  0.74593  0.89115  0.48846  1.0000
  Mn  Mn2       1.0  0.75407  0.39115  0.01154  1.0000
  Mn  Mn3       1.0  0.25407  0.10885  0.51154  1.0000
  Mn  Mn4       1.0  0.24593  0.60885  0.98846  1.0000
  S   S1        1.0  0.53473  0.77077  0.18104  1.0000
  S   S2        1.0  0.96527  0.27077  0.31896  1.0000
  S   S3        1.0  0.46527  0.22923  0.81896  1.0000
  S   S4        1.0  0.03473  0.72923  0.68104  1.0000
  O   O1        1.0  0.58301  0.78534  0.33764  1.0000
  O   O2        1.0  0.91699  0.28534  0.16236  1.0000
  O   O3        1.0  0.41699  0.21466  0.66236  1.0000
  O   O4        1.0  0.08301  0.71466  0.83764  1.0000
  O   O5        1.0  0.62856  0.69179  0.15162  1.0000
  O   O6        1.0  0.87144  0.19179  0.34838  1.0000
  O   O7        1.0  0.37144  0.30821  0.84838  1.0000
  O   O8        1.0  0.12856  0.80821  0.65162  1.0000
  O   O9        1.0  0.54907  0.87182  0.11270  1.0000
  O   O10       1.0  0.95093  0.37182  0.38730  1.0000
  O   O11       1.0  0.45093  0.12818  0.88730  1.0000
  O   O12       1.0  0.04907  0.62818  0.61270  1.0000
  O   O13       1.0  0.37852  0.73914  0.11948  1.0000
  O   O14       1.0  0.12148  0.23914  0.38052  1.0000
  O   O15       1.0  0.62148  0.26086  0.88052  1.0000
  O   O16       1.0  0.87852  0.76086  0.61948  1.0000
  O   O17       1.0  0.87529  0.92122  0.36247  1.0000
  O   O18       1.0  0.62471  0.42122  0.13753  1.0000
  O   O19       1.0  0.12471  0.07878  0.63753  1.0000
  O   O20       1.0  0.37529  0.57878  0.86247  1.0000
  O   O21       1.0  0.08556  0.99591  0.37720  1.0000
  O   O22       1.0  0.41444  0.49591  0.12280  1.0000
  O   O23       1.0  0.91444  0.00409  0.62280  1.0000
  O   O24       1.0  0.58556  0.50409  0.87720  1.0000
  O   O25       1.0  0.61316  0.90264  0.61187  1.0000
  O   O26       1.0  0.88684  0.40264  0.88813  1.0000
  O   O27       1.0  0.38684  0.09736  0.38813  1.0000
  O   O28       1.0  0.11316  0.59736  0.11187  1.0000
  O   O29       1.0  0.40860  0.97514  0.61470  1.0000
  O   O30       1.0  0.09140  0.47514  0.88530  1.0000
  O   O31       1.0  0.59140  0.02486  0.38530  1.0000
  O   O32       1.0  0.90860  0.52486  0.11470  1.0000
  C   C1        1.0  0.98910  0.97595  0.42510  1.0000
  C   C2        1.0  0.51090  0.47595  0.07490  1.0000
  C   C3        1.0  0.01090  0.02405  0.57490  1.0000
  C   C4        1.0  0.48910  0.52405  0.92510  1.0000
  C   C5        1.0  0.50600  0.96471  0.56560  1.0000
  C   C6        1.0  0.99400  0.46471  0.93440  1.0000
  C   C7        1.0  0.49400  0.03529  0.43440  1.0000
  C   C8        1.0  0.00600  0.53529  0.06560  1.0000
