data_image0
_chemical_formula_structural       Cr2Mn2O26H4O2H4C12
_chemical_formula_sum              "Cr2 Mn2 O28 H8 C12"
_cell_length_a       8.789
_cell_length_b       11.529
_cell_length_c       14.498
_cell_angle_alpha    89.1
_cell_angle_beta     82.215
_cell_angle_gamma    70.869

_space_group_name_H-M_alt    "P 1"
_space_group_IT_number       1

loop_
  _space_group_symop_operation_xyz
  'x, y, z'

loop_
  _atom_site_type_symbol
  _atom_site_label
  _atom_site_symmetry_multiplicity
  _atom_site_fract_x
  _atom_site_fract_y
  _atom_site_fract_z
  _atom_site_occupancy
  Cr  Cr1       1.0  0.43506  0.24726  0.64424  1.0000
  Cr  Cr2       1.0  0.56494  0.75274  0.35576  1.0000
  Mn  Mn1       1.0  0.35420  0.77260  0.72924  1.0000
  Mn  Mn2       1.0  0.64580  0.22740  0.27076  1.0000
  O   O1        1.0  0.22650  0.32730  0.71966  1.0000
  O   O2        1.0  0.77350  0.67270  0.28034  1.0000
  O   O3        1.0  0.45690  0.41190  0.65201  1.0000
  O   O4        1.0  0.54310  0.58810  0.34799  1.0000
  O   O5        1.0  0.34180  0.28580  0.52620  1.0000
  O   O6        1.0  0.65820  0.71420  0.47380  1.0000
  O   O7        1.0  0.64260  0.18250  0.55898  1.0000
  O   O8        1.0  0.35740  0.81750  0.44102  1.0000
  O   O9        1.0  0.40140  0.08500  0.65222  1.0000
  O   O10       1.0  0.59860  0.91500  0.34778  1.0000
  O   O11       1.0  0.53200  0.19460  0.75810  1.0000
  O   O12       1.0  0.46800  0.80540  0.24190  1.0000
  O   O13       1.0  0.09510  0.49810  0.80430  1.0000
  O   O14       1.0  0.90490  0.50190  0.19570  1.0000
  O   O15       1.0  0.31560  0.60000  0.71260  1.0000
  O   O16       1.0  0.68440  0.40000  0.28740  1.0000
  O   O17       1.0  0.42200  0.28180  0.37326  1.0000
  O   O18       1.0  0.57800  0.71820  0.62674  1.0000
  O   O19       1.0  0.73570  0.16970  0.40632  1.0000
  O   O20       1.0  0.26430  0.83030  0.59368  1.0000
  O   O21       1.0  0.40490  0.93950  0.75704  1.0000
  O   O22       1.0  0.59510  0.06050  0.24296  1.0000
  O   O23       1.0  0.50750  0.07320  0.87592  1.0000
  O   O24       1.0  0.49250  0.92680  0.12408  1.0000
  O   O25       1.0  0.12100  0.85390  0.80670  1.0000
  O   O26       1.0  0.87900  0.14610  0.19330  1.0000
  H   H1        1.0  0.05200  0.82200  0.81400  1.0000
  H   H2        1.0  0.94800  0.17800  0.18600  1.0000
  H   H3        1.0  0.08100  0.92560  0.80000  1.0000
  H   H4        1.0  0.91900  0.07440  0.20000  1.0000
  O   O27       1.0  0.48360  0.69240  0.84133  1.0000
  O   O28       1.0  0.51640  0.30760  0.15867  1.0000
  H   H5        1.0  0.56800  0.63800  0.82300  1.0000
  H   H6        1.0  0.43200  0.36200  0.17700  1.0000
  H   H7        1.0  0.51500  0.74000  0.87200  1.0000
  H   H8        1.0  0.48500  0.26000  0.12800  1.0000
  C   C1        1.0  0.20540  0.43810  0.74690  1.0000
  C   C2        1.0  0.79460  0.56190  0.25310  1.0000
  C   C3        1.0  0.33570  0.49000  0.70070  1.0000
  C   C4        1.0  0.66430  0.51000  0.29930  1.0000
  C   C5        1.0  0.44840  0.26090  0.45460  1.0000
  C   C6        1.0  0.55160  0.73910  0.54540  1.0000
  C   C7        1.0  0.62460  0.19930  0.47350  1.0000
  C   C8        1.0  0.37540  0.80070  0.52650  1.0000
  C   C9        1.0  0.42760  0.03430  0.73000  1.0000
  C   C10       1.0  0.57240  0.96570  0.27000  1.0000
  C   C11       1.0  0.49420  0.10490  0.79580  1.0000
  C   C12       1.0  0.50580  0.89510  0.20420  1.0000
