data_image0
_chemical_formula_structural       U4C4N4O4C4H4N4O4C4H8N8C4H8O4N4C4H8O4C4H8N4O4C4O4C4O4C4O4C4H8C4H8C4H4C8H8C4H8C4H8C4H8C4H4C8H8C4H8U4O8N16O4N4O4N4O16C4H4C8H8C4H8C4H8C4H8C16H8C4H8C4H4C8H8C4H8C4H8C4H8C4H4C8H8C4H8
_chemical_formula_sum              "U8 C168 N48 O64 H216"
_cell_length_a       16.8743
_cell_length_b       15.6576
_cell_length_c       26.3284
_cell_angle_alpha    90
_cell_angle_beta     91.021
_cell_angle_gamma    90

_space_group_name_H-M_alt    "P 1"
_space_group_IT_number       1

loop_
  _space_group_symop_operation_xyz
  'x, y, z'

loop_
  _atom_site_type_symbol
  _atom_site_label
  _atom_site_symmetry_multiplicity
  _atom_site_fract_x
  _atom_site_fract_y
  _atom_site_fract_z
  _atom_site_occupancy
  U   U1        1.0  0.10822  0.22945  0.77449  1.0000
  U   U2        1.0  0.39178  0.72945  0.72551  1.0000
  U   U3        1.0  0.89178  0.77055  0.22551  1.0000
  U   U4        1.0  0.60822  0.27055  0.27449  1.0000
  C   C1        1.0  0.25810  0.25940  0.73130  1.0000
  C   C2        1.0  0.24190  0.75940  0.76870  1.0000
  C   C3        1.0  0.74190  0.74060  0.26870  1.0000
  C   C4        1.0  0.75810  0.24060  0.23130  1.0000
  N   N1        1.0  0.47580  0.32320  0.65350  1.0000
  N   N2        1.0  0.02420  0.82320  0.84650  1.0000
  N   N3        1.0  0.52420  0.67680  0.34650  1.0000
  N   N4        1.0  0.97580  0.17680  0.15350  1.0000
  O   O1        1.0  0.11840  0.32090  0.81240  1.0000
  O   O2        1.0  0.38160  0.82090  0.68760  1.0000
  O   O3        1.0  0.88160  0.67910  0.18760  1.0000
  O   O4        1.0  0.61840  0.17910  0.31240  1.0000
  C   C5        1.0  0.33570  0.26680  0.70420  1.0000
  C   C6        1.0  0.16430  0.76680  0.79580  1.0000
  C   C7        1.0  0.66430  0.73320  0.29580  1.0000
  C   C8        1.0  0.83570  0.23320  0.20420  1.0000
  H   H1        1.0  0.35290  0.20580  0.70220  1.0000
  H   H2        1.0  0.14710  0.70580  0.79780  1.0000
  H   H3        1.0  0.64710  0.79420  0.29780  1.0000
  H   H4        1.0  0.85290  0.29420  0.20220  1.0000
  N   N5        1.0  0.74630  0.36240  0.65310  1.0000
  N   N6        1.0  0.75370  0.86240  0.84690  1.0000
  N   N7        1.0  0.25370  0.63760  0.34690  1.0000
  N   N8        1.0  0.24630  0.13760  0.15310  1.0000
  O   O5        1.0  0.09990  0.13780  0.73760  1.0000
  O   O6        1.0  0.40010  0.63780  0.76240  1.0000
  O   O7        1.0  0.90010  0.86220  0.26240  1.0000
  O   O8        1.0  0.59990  0.36220  0.23760  1.0000
  C   C9        1.0  0.40270  0.30640  0.73240  1.0000
  C   C10       1.0  0.09730  0.80640  0.76760  1.0000
  C   C11       1.0  0.59730  0.69360  0.26760  1.0000
  C   C12       1.0  0.90270  0.19360  0.23240  1.0000
  H   H5        1.0  0.38770  0.36610  0.74020  1.0000
  H   H6        1.0  0.11230  0.86610  0.75980  1.0000
  H   H7        1.0  0.61230  0.63390  0.25980  1.0000
  H   H8        1.0  0.88770  0.13390  0.24020  1.0000
  H   H9        1.0  0.40880  0.27620  0.76520  1.0000
  H   H10       1.0  0.09120  0.77620  0.73480  1.0000
  H   H11       1.0  0.59120  0.72380  0.23480  1.0000
  H   H12       1.0  0.90880  0.22380  0.26520  1.0000
  N   N9        1.0  0.60080  0.38070  0.50360  1.0000
  N   N10       1.0  0.89920  0.88070  0.99640  1.0000
  N   N11       1.0  0.39920  0.61930  0.49640  1.0000
  N   N12       1.0  0.10080  0.11930  0.00360  1.0000
  N   N13       1.0  0.53720  0.34850  0.57740  1.0000
  N   N14       1.0  0.96280  0.84850  0.92260  1.0000
  N   N15       1.0  0.46280  0.65150  0.42260  1.0000
  N   N16       1.0  0.03720  0.15150  0.07740  1.0000
  C   C13       1.0  0.47890  0.30810  0.70890  1.0000
  C   C14       1.0  0.02110  0.80810  0.79110  1.0000
  C   C15       1.0  0.52110  0.69190  0.29110  1.0000
  C   C16       1.0  0.97890  0.19190  0.20890  1.0000
  H   H13       1.0  0.50580  0.25290  0.71540  1.0000
  H   H14       1.0  0.99420  0.75290  0.78460  1.0000
  H   H15       1.0  0.49420  0.74710  0.28460  1.0000
  H   H16       1.0  0.00580  0.24710  0.21540  1.0000
  H   H17       1.0  0.51140  0.35350  0.72510  1.0000
  H   H18       1.0  0.98860  0.85350  0.77490  1.0000
  H   H19       1.0  0.48860  0.64650  0.27490  1.0000
  H   H20       1.0  0.01140  0.14650  0.22510  1.0000
  O   O9        1.0  0.19590  0.29330  0.71190  1.0000
  O   O10       1.0  0.30410  0.79330  0.78810  1.0000
  O   O11       1.0  0.80410  0.70670  0.28810  1.0000
  O   O12       1.0  0.69590  0.20670  0.21190  1.0000
  N   N17       1.0  0.61070  0.34520  0.65530  1.0000
  N   N18       1.0  0.88930  0.84520  0.84470  1.0000
  N   N19       1.0  0.38930  0.65480  0.34470  1.0000
  N   N20       1.0  0.11070  0.15480  0.15530  1.0000
  C   C17       1.0  0.33210  0.29120  0.65080  1.0000
  C   C18       1.0  0.16790  0.79120  0.84920  1.0000
  C   C19       1.0  0.66790  0.70880  0.34920  1.0000
  C   C20       1.0  0.83210  0.20880  0.15080  1.0000
  H   H21       1.0  0.31070  0.35000  0.64850  1.0000
  H   H22       1.0  0.18930  0.85000  0.85150  1.0000
  H   H23       1.0  0.68930  0.65000  0.35150  1.0000
  H   H24       1.0  0.81070  0.15000  0.14850  1.0000
  H   H25       1.0  0.29380  0.25310  0.63310  1.0000
  H   H26       1.0  0.20620  0.75310  0.86690  1.0000
  H   H27       1.0  0.70620  0.74690  0.36690  1.0000
  H   H28       1.0  0.79380  0.24690  0.13310  1.0000
  O   O13       1.0  0.25400  0.21760  0.77210  1.0000
  O   O14       1.0  0.24600  0.71760  0.72790  1.0000
  O   O15       1.0  0.74600  0.78240  0.22790  1.0000
  O   O16       1.0  0.75400  0.28240  0.27210  1.0000
  C   C21       1.0  0.40710  0.28870  0.62320  1.0000
  C   C22       1.0  0.09290  0.78870  0.87680  1.0000
  C   C23       1.0  0.59290  0.71130  0.37680  1.0000
  C   C24       1.0  0.90710  0.21130  0.12320  1.0000
  H   H29       1.0  0.40100  0.32230  0.59150  1.0000
  H   H30       1.0  0.09900  0.82230  0.90850  1.0000
  H   H31       1.0  0.59900  0.67770  0.40850  1.0000
  H   H32       1.0  0.90100  0.17770  0.09150  1.0000
  H   H33       1.0  0.41850  0.22890  0.61360  1.0000
  H   H34       1.0  0.08150  0.72890  0.88640  1.0000
  H   H35       1.0  0.58150  0.77110  0.38640  1.0000
  H   H36       1.0  0.91850  0.27110  0.11360  1.0000
  N   N21       1.0  0.67630  0.37430  0.57750  1.0000
  N   N22       1.0  0.82370  0.87430  0.92250  1.0000
  N   N23       1.0  0.32370  0.62570  0.42250  1.0000
  N   N24       1.0  0.17630  0.12570  0.07750  1.0000
  O   O17       1.0  0.96360  0.24850  0.76440  1.0000
  O   O18       1.0  0.53640  0.74850  0.73560  1.0000
  O   O19       1.0  0.03640  0.75150  0.23560  1.0000
  O   O20       1.0  0.46360  0.25150  0.26440  1.0000
  C   C25       1.0  0.54250  0.33860  0.62770  1.0000
  C   C26       1.0  0.95750  0.83860  0.87230  1.0000
  C   C27       1.0  0.45750  0.66140  0.37230  1.0000
  C   C28       1.0  0.04250  0.16140  0.12770  1.0000
  O   O21       1.0  0.03720  0.31670  0.71000  1.0000
  O   O22       1.0  0.46280  0.81670  0.79000  1.0000
  O   O23       1.0  0.96280  0.68330  0.29000  1.0000
  O   O24       1.0  0.53720  0.18330  0.21000  1.0000
  C   C29       1.0  0.67460  0.36160  0.62810  1.0000
  C   C30       1.0  0.82540  0.86160  0.87190  1.0000
  C   C31       1.0  0.32540  0.63840  0.37190  1.0000
  C   C32       1.0  0.17460  0.13840  0.12810  1.0000
  O   O25       1.0  0.53000  0.34370  0.34090  1.0000
  O   O26       1.0  0.97000  0.84370  0.15910  1.0000
  O   O27       1.0  0.47000  0.65630  0.65910  1.0000
  O   O28       1.0  0.03000  0.15630  0.84090  1.0000
  C   C33       1.0  0.60420  0.36750  0.55510  1.0000
  C   C34       1.0  0.89580  0.86750  0.94490  1.0000
  C   C35       1.0  0.39580  0.63250  0.44490  1.0000
  C   C36       1.0  0.10420  0.13250  0.05510  1.0000
  O   O29       1.0  0.65920  0.36550  0.34540  1.0000
  O   O30       1.0  0.84080  0.86550  0.15460  1.0000
  O   O31       1.0  0.34080  0.63450  0.65460  1.0000
  O   O32       1.0  0.15920  0.13450  0.84540  1.0000
  C   C37       1.0  0.53030  0.35970  0.47310  1.0000
  C   C38       1.0  0.96970  0.85970  0.02690  1.0000
  C   C39       1.0  0.46970  0.64030  0.52690  1.0000
  C   C40       1.0  0.03030  0.14030  0.97310  1.0000
  H   H37       1.0  0.48510  0.35090  0.49600  1.0000
  H   H38       1.0  0.01490  0.85090  0.00400  1.0000
  H   H39       1.0  0.51490  0.64910  0.50400  1.0000
  H   H40       1.0  0.98510  0.14910  0.99600  1.0000
  H   H41       1.0  0.53960  0.30530  0.45490  1.0000
  H   H42       1.0  0.96040  0.80530  0.04510  1.0000
  H   H43       1.0  0.46040  0.69470  0.54510  1.0000
  H   H44       1.0  0.03960  0.19470  0.95490  1.0000
  C   C41       1.0  0.50930  0.42570  0.43610  1.0000
  C   C42       1.0  0.99070  0.92570  0.06390  1.0000
  C   C43       1.0  0.49070  0.57430  0.56390  1.0000
  C   C44       1.0  0.00930  0.07430  0.93610  1.0000
  H   H45       1.0  0.49240  0.47770  0.45440  1.0000
  H   H46       1.0  0.00760  0.97770  0.04560  1.0000
  H   H47       1.0  0.50760  0.52230  0.54560  1.0000
  H   H48       1.0  0.99240  0.02230  0.95440  1.0000
  H   H49       1.0  0.46390  0.40570  0.41490  1.0000
  H   H50       1.0  0.03610  0.90570  0.08510  1.0000
  H   H51       1.0  0.53610  0.59430  0.58510  1.0000
  H   H52       1.0  0.96390  0.09430  0.91490  1.0000
  C   C45       1.0  0.57800  0.44800  0.40190  1.0000
  C   C46       1.0  0.92200  0.94800  0.09810  1.0000
  C   C47       1.0  0.42200  0.55200  0.59810  1.0000
  C   C48       1.0  0.07800  0.05200  0.90190  1.0000
  H   H53       1.0  0.56360  0.50190  0.38350  1.0000
  H   H54       1.0  0.93640  0.00190  0.11650  1.0000
  H   H55       1.0  0.43640  0.49810  0.61650  1.0000
  H   H56       1.0  0.06360  0.99810  0.88350  1.0000
  C   C49       1.0  0.59170  0.37970  0.36180  1.0000
  C   C50       1.0  0.90830  0.87970  0.13820  1.0000
  C   C51       1.0  0.40830  0.62030  0.63820  1.0000
  C   C52       1.0  0.09170  0.12030  0.86180  1.0000
  C   C53       1.0  0.65180  0.46700  0.43490  1.0000
  C   C54       1.0  0.84820  0.96700  0.06510  1.0000
  C   C55       1.0  0.34820  0.53300  0.56510  1.0000
  C   C56       1.0  0.15180  0.03300  0.93490  1.0000
  H   H57       1.0  0.69800  0.47420  0.41270  1.0000
  H   H58       1.0  0.80200  0.97420  0.08730  1.0000
  H   H59       1.0  0.30200  0.52580  0.58730  1.0000
  H   H60       1.0  0.19800  0.02580  0.91270  1.0000
  H   H61       1.0  0.64380  0.52160  0.45320  1.0000
  H   H62       1.0  0.85620  0.02160  0.04680  1.0000
  H   H63       1.0  0.35620  0.47840  0.54680  1.0000
  H   H64       1.0  0.14380  0.97840  0.95320  1.0000
  C   C57       1.0  0.66930  0.39960  0.47210  1.0000
  C   C58       1.0  0.83070  0.89960  0.02790  1.0000
  C   C59       1.0  0.33070  0.60040  0.52790  1.0000
  C   C60       1.0  0.16930  0.10040  0.97210  1.0000
  H   H65       1.0  0.68520  0.34710  0.45400  1.0000
  H   H66       1.0  0.81480  0.84710  0.04600  1.0000
  H   H67       1.0  0.31480  0.65290  0.54600  1.0000
  H   H68       1.0  0.18520  0.15290  0.95400  1.0000
  H   H69       1.0  0.71430  0.41770  0.49420  1.0000
  H   H70       1.0  0.78570  0.91770  0.00580  1.0000
  H   H71       1.0  0.28570  0.58230  0.50580  1.0000
  H   H72       1.0  0.21430  0.08230  0.99420  1.0000
  C   C61       1.0  0.82080  0.31580  0.72920  1.0000
  C   C62       1.0  0.67920  0.81580  0.77080  1.0000
  C   C63       1.0  0.17920  0.68420  0.27080  1.0000
  C   C64       1.0  0.32080  0.18420  0.22920  1.0000
  H   H73       1.0  0.82390  0.32360  0.76650  1.0000
  H   H74       1.0  0.67610  0.82360  0.73350  1.0000
  H   H75       1.0  0.17610  0.67640  0.23350  1.0000
  H   H76       1.0  0.32390  0.17640  0.26650  1.0000
  H   H77       1.0  0.81440  0.25400  0.72230  1.0000
  H   H78       1.0  0.68560  0.75400  0.77770  1.0000
  H   H79       1.0  0.18560  0.74600  0.27770  1.0000
  H   H80       1.0  0.31440  0.24600  0.22230  1.0000
  C   C65       1.0  0.74810  0.36320  0.70830  1.0000
  C   C66       1.0  0.75190  0.86320  0.79170  1.0000
  C   C67       1.0  0.25190  0.63680  0.29170  1.0000
  C   C68       1.0  0.24810  0.13680  0.20830  1.0000
  H   H81       1.0  0.69950  0.33580  0.72100  1.0000
  H   H82       1.0  0.80050  0.83580  0.77900  1.0000
  H   H83       1.0  0.30050  0.66420  0.27900  1.0000
  H   H84       1.0  0.19950  0.16420  0.22100  1.0000
  H   H85       1.0  0.74920  0.42300  0.72050  1.0000
  H   H86       1.0  0.75080  0.92300  0.77950  1.0000
  H   H87       1.0  0.25080  0.57700  0.27950  1.0000
  H   H88       1.0  0.24920  0.07700  0.22050  1.0000
  C   C69       1.0  0.89690  0.34590  0.70640  1.0000
  C   C70       1.0  0.60310  0.84590  0.79360  1.0000
  C   C71       1.0  0.10310  0.65410  0.29360  1.0000
  C   C72       1.0  0.39690  0.15410  0.20640  1.0000
  H   H89       1.0  0.90250  0.40780  0.71520  1.0000
  H   H90       1.0  0.59750  0.90780  0.78480  1.0000
  H   H91       1.0  0.09750  0.59220  0.28480  1.0000
  H   H92       1.0  0.40250  0.09220  0.21520  1.0000
  C   C73       1.0  0.96880  0.30130  0.72820  1.0000
  C   C74       1.0  0.53120  0.80130  0.77180  1.0000
  C   C75       1.0  0.03120  0.69870  0.27180  1.0000
  C   C76       1.0  0.46880  0.19870  0.22820  1.0000
  C   C77       1.0  0.81810  0.39130  0.62800  1.0000
  C   C78       1.0  0.68190  0.89130  0.87200  1.0000
  C   C79       1.0  0.18190  0.60870  0.37200  1.0000
  C   C80       1.0  0.31810  0.10870  0.12800  1.0000
  H   H93       1.0  0.82610  0.45310  0.63430  1.0000
  H   H94       1.0  0.67390  0.95310  0.86570  1.0000
  H   H95       1.0  0.17390  0.54690  0.36570  1.0000
  H   H96       1.0  0.32610  0.04690  0.13430  1.0000
  H   H97       1.0  0.81250  0.38240  0.59090  1.0000
  H   H98       1.0  0.68750  0.88240  0.90910  1.0000
  H   H99       1.0  0.18750  0.61760  0.40910  1.0000
  H   H100      1.0  0.31250  0.11760  0.09090  1.0000
  C   C81       1.0  0.89030  0.34060  0.64880  1.0000
  C   C82       1.0  0.60970  0.84060  0.85120  1.0000
  C   C83       1.0  0.10970  0.65940  0.35120  1.0000
  C   C84       1.0  0.39030  0.15940  0.14880  1.0000
  H   H101      1.0  0.88510  0.28000  0.63860  1.0000
  H   H102      1.0  0.61490  0.78000  0.86140  1.0000
  H   H103      1.0  0.11490  0.72000  0.36140  1.0000
  H   H104      1.0  0.38510  0.22000  0.13860  1.0000
  H   H105      1.0  0.93930  0.36350  0.63380  1.0000
  H   H106      1.0  0.56070  0.86350  0.86620  1.0000
  H   H107      1.0  0.06070  0.63650  0.36620  1.0000
  H   H108      1.0  0.43930  0.13650  0.13380  1.0000
  U   U5        1.0  0.13649  0.26634  0.34505  1.0000
  U   U6        1.0  0.36351  0.76634  0.15495  1.0000
  U   U7        1.0  0.86351  0.73366  0.65495  1.0000
  U   U8        1.0  0.63649  0.23366  0.84505  1.0000
  O   O33       1.0  0.14540  0.36060  0.38100  1.0000
  O   O34       1.0  0.35460  0.86060  0.11900  1.0000
  O   O35       1.0  0.85460  0.63940  0.61900  1.0000
  O   O36       1.0  0.64540  0.13940  0.88100  1.0000
  O   O37       1.0  0.12700  0.17030  0.30910  1.0000
  O   O38       1.0  0.37300  0.67030  0.19090  1.0000
  O   O39       1.0  0.87300  0.82970  0.69090  1.0000
  O   O40       1.0  0.62700  0.32970  0.80910  1.0000
  N   N25       1.0  0.64250  0.12010  0.61520  1.0000
  N   N26       1.0  0.85750  0.62010  0.88480  1.0000
  N   N27       1.0  0.35750  0.87990  0.38480  1.0000
  N   N28       1.0  0.14250  0.37990  0.11520  1.0000
  N   N29       1.0  0.76810  0.18420  0.46640  1.0000
  N   N30       1.0  0.73190  0.68420  0.03360  1.0000
  N   N31       1.0  0.23190  0.81580  0.53360  1.0000
  N   N32       1.0  0.26810  0.31580  0.96640  1.0000
  N   N33       1.0  0.49740  0.13080  0.46530  1.0000
  N   N34       1.0  0.00260  0.63080  0.03470  1.0000
  N   N35       1.0  0.50260  0.86920  0.53470  1.0000
  N   N36       1.0  0.99740  0.36920  0.96530  1.0000
  N   N37       1.0  0.56760  0.12590  0.54210  1.0000
  N   N38       1.0  0.93240  0.62590  0.95790  1.0000
  N   N39       1.0  0.43240  0.87410  0.45790  1.0000
  N   N40       1.0  0.06760  0.37410  0.04210  1.0000
  O   O41       1.0  0.58430  0.14640  0.77380  1.0000
  O   O42       1.0  0.91570  0.64640  0.72620  1.0000
  O   O43       1.0  0.41570  0.85360  0.22620  1.0000
  O   O44       1.0  0.08430  0.35360  0.27380  1.0000
  N   N41       1.0  0.70710  0.15350  0.54130  1.0000
  N   N42       1.0  0.79290  0.65350  0.95870  1.0000
  N   N43       1.0  0.29290  0.84650  0.45870  1.0000
  N   N44       1.0  0.20710  0.34650  0.04130  1.0000
  O   O45       1.0  0.71430  0.15890  0.77790  1.0000
  O   O46       1.0  0.78570  0.65890  0.72210  1.0000
  O   O47       1.0  0.28570  0.84110  0.22210  1.0000
  O   O48       1.0  0.21430  0.34110  0.27790  1.0000
  N   N45       1.0  0.63220  0.15450  0.46440  1.0000
  N   N46       1.0  0.86780  0.65450  0.03560  1.0000
  N   N47       1.0  0.36780  0.84550  0.53560  1.0000
  N   N48       1.0  0.13220  0.34550  0.96440  1.0000
  O   O49       1.0  0.04780  0.21050  0.40980  1.0000
  O   O50       1.0  0.45220  0.71050  0.09020  1.0000
  O   O51       1.0  0.95220  0.78950  0.59020  1.0000
  O   O52       1.0  0.54780  0.28950  0.90980  1.0000
  O   O53       1.0  0.99220  0.27810  0.34650  1.0000
  O   O54       1.0  0.50780  0.77810  0.15350  1.0000
  O   O55       1.0  0.00780  0.72190  0.65350  1.0000
  O   O56       1.0  0.49220  0.22190  0.84650  1.0000
  O   O57       1.0  0.28150  0.24360  0.35340  1.0000
  O   O58       1.0  0.21850  0.74360  0.14660  1.0000
  O   O59       1.0  0.71850  0.75640  0.64660  1.0000
  O   O60       1.0  0.78150  0.25640  0.85340  1.0000
  O   O61       1.0  0.20920  0.18270  0.41070  1.0000
  O   O62       1.0  0.29080  0.68270  0.08930  1.0000
  O   O63       1.0  0.79080  0.81730  0.58930  1.0000
  O   O64       1.0  0.70920  0.31730  0.91070  1.0000
  C   C85       1.0  0.66040  0.05700  0.71700  1.0000
  C   C86       1.0  0.83960  0.55700  0.78300  1.0000
  C   C87       1.0  0.33960  0.94300  0.28300  1.0000
  C   C88       1.0  0.16040  0.44300  0.21700  1.0000
  H   H109      1.0  0.67020  0.00200  0.73540  1.0000
  H   H110      1.0  0.82980  0.50200  0.76460  1.0000
  H   H111      1.0  0.32980  0.99800  0.26460  1.0000
  H   H112      1.0  0.17020  0.49800  0.23540  1.0000
  C   C89       1.0  0.65120  0.12440  0.75740  1.0000
  C   C90       1.0  0.84880  0.62440  0.74260  1.0000
  C   C91       1.0  0.34880  0.87560  0.24260  1.0000
  C   C92       1.0  0.15120  0.37560  0.25740  1.0000
  C   C93       1.0  0.58390  0.04400  0.68540  1.0000
  C   C94       1.0  0.91610  0.54400  0.81460  1.0000
  C   C95       1.0  0.41610  0.95600  0.31460  1.0000
  C   C96       1.0  0.08390  0.45600  0.18540  1.0000
  H   H113      1.0  0.58540  0.98720  0.66900  1.0000
  H   H114      1.0  0.91460  0.48720  0.83100  1.0000
  H   H115      1.0  0.41460  0.01280  0.33100  1.0000
  H   H116      1.0  0.08540  0.51280  0.16900  1.0000
  H   H117      1.0  0.53800  0.04500  0.70830  1.0000
  H   H118      1.0  0.96200  0.54500  0.79170  1.0000
  H   H119      1.0  0.46200  0.95500  0.29170  1.0000
  H   H120      1.0  0.03800  0.45500  0.20830  1.0000
  C   C97       1.0  0.57270  0.11100  0.64540  1.0000
  C   C98       1.0  0.92730  0.61100  0.85460  1.0000
  C   C99       1.0  0.42730  0.88900  0.35460  1.0000
  C   C100      1.0  0.07270  0.38900  0.14540  1.0000
  H   H121      1.0  0.52710  0.09540  0.62310  1.0000
  H   H122      1.0  0.97290  0.59540  0.87690  1.0000
  H   H123      1.0  0.47290  0.90460  0.37690  1.0000
  H   H124      1.0  0.02710  0.40460  0.12310  1.0000
  H   H125      1.0  0.56060  0.16630  0.66180  1.0000
  H   H126      1.0  0.93940  0.66630  0.83820  1.0000
  H   H127      1.0  0.43940  0.83370  0.33820  1.0000
  H   H128      1.0  0.06060  0.33370  0.16180  1.0000
  C   C101      1.0  0.71350  0.13950  0.64540  1.0000
  C   C102      1.0  0.78650  0.63950  0.85460  1.0000
  C   C103      1.0  0.28650  0.86050  0.35460  1.0000
  C   C104      1.0  0.21350  0.36050  0.14540  1.0000
  H   H129      1.0  0.70620  0.19420  0.66360  1.0000
  H   H130      1.0  0.79380  0.69420  0.83640  1.0000
  H   H131      1.0  0.29380  0.80580  0.33640  1.0000
  H   H132      1.0  0.20620  0.30580  0.16360  1.0000
  H   H133      1.0  0.75940  0.14580  0.62280  1.0000
  H   H134      1.0  0.74060  0.64580  0.87720  1.0000
  H   H135      1.0  0.24060  0.85420  0.37720  1.0000
  H   H136      1.0  0.25940  0.35420  0.12280  1.0000
  C   C105      1.0  0.72930  0.06930  0.68290  1.0000
  C   C106      1.0  0.77070  0.56930  0.81710  1.0000
  C   C107      1.0  0.27070  0.93070  0.31710  1.0000
  C   C108      1.0  0.22930  0.43070  0.18290  1.0000
  H   H137      1.0  0.73980  0.01540  0.66450  1.0000
  H   H138      1.0  0.76020  0.51540  0.83550  1.0000
  H   H139      1.0  0.26020  0.98460  0.33550  1.0000
  H   H140      1.0  0.23980  0.48460  0.16450  1.0000
  H   H141      1.0  0.77700  0.08340  0.70370  1.0000
  H   H142      1.0  0.72300  0.58340  0.79630  1.0000
  H   H143      1.0  0.22300  0.91660  0.29630  1.0000
  H   H144      1.0  0.27700  0.41660  0.20370  1.0000
  C   C109      1.0  0.63830  0.13470  0.56460  1.0000
  C   C110      1.0  0.86170  0.63470  0.93540  1.0000
  C   C111      1.0  0.36170  0.86530  0.43540  1.0000
  C   C112      1.0  0.13830  0.36530  0.06460  1.0000
  C   C113      1.0  0.69940  0.16430  0.49160  1.0000
  C   C114      1.0  0.80060  0.66430  0.00840  1.0000
  C   C115      1.0  0.30060  0.83570  0.50840  1.0000
  C   C116      1.0  0.19940  0.33570  0.99160  1.0000
  C   C117      1.0  0.56920  0.13610  0.49150  1.0000
  C   C118      1.0  0.93080  0.63610  0.00850  1.0000
  C   C119      1.0  0.43080  0.86390  0.50850  1.0000
  C   C120      1.0  0.06920  0.36390  0.99150  1.0000
  C   C121      1.0  0.42570  0.10610  0.49110  1.0000
  C   C122      1.0  0.07430  0.60610  0.00890  1.0000
  C   C123      1.0  0.57430  0.89390  0.50890  1.0000
  C   C124      1.0  0.92570  0.39390  0.99110  1.0000
  H   H145      1.0  0.43230  0.11610  0.52810  1.0000
  H   H146      1.0  0.06770  0.61610  0.97190  1.0000
  H   H147      1.0  0.56770  0.88390  0.47190  1.0000
  H   H148      1.0  0.93230  0.38390  0.02810  1.0000
  H   H149      1.0  0.41540  0.04450  0.48570  1.0000
  H   H150      1.0  0.08460  0.54450  0.01430  1.0000
  H   H151      1.0  0.58460  0.95550  0.51430  1.0000
  H   H152      1.0  0.91540  0.45550  0.98570  1.0000
  C   C125      1.0  0.35540  0.15850  0.47050  1.0000
  C   C126      1.0  0.14460  0.65850  0.02950  1.0000
  C   C127      1.0  0.64460  0.84150  0.52950  1.0000
  C   C128      1.0  0.85540  0.34150  0.97050  1.0000
  H   H153      1.0  0.30610  0.13950  0.48690  1.0000
  H   H154      1.0  0.19390  0.63950  0.01310  1.0000
  H   H155      1.0  0.69390  0.86050  0.51310  1.0000
  H   H156      1.0  0.80610  0.36050  0.98690  1.0000
  H   H157      1.0  0.36370  0.21960  0.47870  1.0000
  H   H158      1.0  0.13630  0.71960  0.02130  1.0000
  H   H159      1.0  0.63630  0.78040  0.52130  1.0000
  H   H160      1.0  0.86370  0.28040  0.97870  1.0000
  C   C129      1.0  0.34730  0.14760  0.41330  1.0000
  C   C130      1.0  0.15270  0.64760  0.08670  1.0000
  C   C131      1.0  0.65270  0.85240  0.58670  1.0000
  C   C132      1.0  0.84730  0.35240  0.91330  1.0000
  H   H161      1.0  0.34000  0.08530  0.40640  1.0000
  H   H162      1.0  0.16000  0.58530  0.09360  1.0000
  H   H163      1.0  0.66000  0.91470  0.59360  1.0000
  H   H164      1.0  0.84000  0.41470  0.90640  1.0000
  C   C133      1.0  0.27560  0.19360  0.39120  1.0000
  C   C134      1.0  0.22440  0.69360  0.10880  1.0000
  C   C135      1.0  0.72440  0.80640  0.60880  1.0000
  C   C136      1.0  0.77560  0.30640  0.89120  1.0000
  C   C137      1.0  0.42390  0.17460  0.38880  1.0000
  C   C138      1.0  0.07610  0.67460  0.11120  1.0000
  C   C139      1.0  0.57610  0.82540  0.61120  1.0000
  C   C140      1.0  0.92390  0.32540  0.88880  1.0000
  H   H165      1.0  0.43220  0.23650  0.39420  1.0000
  H   H166      1.0  0.06780  0.73650  0.10580  1.0000
  H   H167      1.0  0.56780  0.76350  0.60580  1.0000
  H   H168      1.0  0.93220  0.26350  0.89420  1.0000
  H   H169      1.0  0.42000  0.16420  0.35180  1.0000
  H   H170      1.0  0.08000  0.66420  0.14820  1.0000
  H   H171      1.0  0.58000  0.83580  0.64820  1.0000
  H   H172      1.0  0.92000  0.33580  0.85180  1.0000
  C   C141      1.0  0.49450  0.12560  0.41090  1.0000
  C   C142      1.0  0.00550  0.62560  0.08910  1.0000
  C   C143      1.0  0.50550  0.87440  0.58910  1.0000
  C   C144      1.0  0.99450  0.37440  0.91090  1.0000
  H   H173      1.0  0.49080  0.06500  0.40050  1.0000
  H   H174      1.0  0.00920  0.56500  0.09950  1.0000
  H   H175      1.0  0.50920  0.93500  0.59950  1.0000
  H   H176      1.0  0.99080  0.43500  0.90050  1.0000
  H   H177      1.0  0.54410  0.14940  0.39710  1.0000
  H   H178      1.0  0.95590  0.64940  0.10290  1.0000
  H   H179      1.0  0.45590  0.85060  0.60290  1.0000
  H   H180      1.0  0.04410  0.35060  0.89710  1.0000
  C   C145      1.0  0.76420  0.20150  0.41220  1.0000
  C   C146      1.0  0.73580  0.70150  0.08780  1.0000
  C   C147      1.0  0.23580  0.79850  0.58780  1.0000
  C   C148      1.0  0.26420  0.29850  0.91220  1.0000
  H   H181      1.0  0.74260  0.25960  0.40680  1.0000
  H   H182      1.0  0.75740  0.75960  0.09320  1.0000
  H   H183      1.0  0.25740  0.74040  0.59320  1.0000
  H   H184      1.0  0.24260  0.24040  0.90680  1.0000
  H   H185      1.0  0.72700  0.16050  0.39590  1.0000
  H   H186      1.0  0.77300  0.66050  0.10410  1.0000
  H   H187      1.0  0.27300  0.83950  0.60410  1.0000
  H   H188      1.0  0.22700  0.33950  0.89590  1.0000
  C   C149      1.0  0.84240  0.19510  0.38730  1.0000
  C   C150      1.0  0.65760  0.69510  0.11270  1.0000
  C   C151      1.0  0.15760  0.80490  0.61270  1.0000
  C   C152      1.0  0.34240  0.30490  0.88730  1.0000
  H   H189      1.0  0.83720  0.21670  0.35210  1.0000
  H   H190      1.0  0.66280  0.71670  0.14790  1.0000
  H   H191      1.0  0.16280  0.78330  0.64790  1.0000
  H   H192      1.0  0.33720  0.28330  0.85210  1.0000
  H   H193      1.0  0.85800  0.13420  0.38560  1.0000
  H   H194      1.0  0.64200  0.63420  0.11440  1.0000
  H   H195      1.0  0.14200  0.86580  0.61440  1.0000
  H   H196      1.0  0.35800  0.36580  0.88560  1.0000
  C   C153      1.0  0.90760  0.24500  0.41510  1.0000
  C   C154      1.0  0.59240  0.74500  0.08490  1.0000
  C   C155      1.0  0.09240  0.75500  0.58490  1.0000
  C   C156      1.0  0.40760  0.25500  0.91510  1.0000
  H   H197      1.0  0.88960  0.30580  0.41640  1.0000
  H   H198      1.0  0.61040  0.80580  0.08360  1.0000
  H   H199      1.0  0.11040  0.69420  0.58360  1.0000
  H   H200      1.0  0.38960  0.19420  0.91640  1.0000
  C   C157      1.0  0.98630  0.24480  0.38890  1.0000
  C   C158      1.0  0.51370  0.74480  0.11110  1.0000
  C   C159      1.0  0.01370  0.75520  0.61110  1.0000
  C   C160      1.0  0.48630  0.25520  0.88890  1.0000
  C   C161      1.0  0.91150  0.21340  0.46960  1.0000
  C   C162      1.0  0.58850  0.71340  0.03040  1.0000
  C   C163      1.0  0.08850  0.78660  0.53040  1.0000
  C   C164      1.0  0.41150  0.28660  0.96960  1.0000
  H   H201      1.0  0.92580  0.15210  0.47000  1.0000
  H   H202      1.0  0.57420  0.65210  0.03000  1.0000
  H   H203      1.0  0.07420  0.84790  0.53000  1.0000
  H   H204      1.0  0.42580  0.34790  0.97000  1.0000
  H   H205      1.0  0.95330  0.24510  0.48860  1.0000
  H   H206      1.0  0.54670  0.74510  0.01140  1.0000
  H   H207      1.0  0.04670  0.75490  0.51140  1.0000
  H   H208      1.0  0.45330  0.25490  0.98860  1.0000
  C   C165      1.0  0.83310  0.22530  0.49560  1.0000
  C   C166      1.0  0.66690  0.72530  0.00440  1.0000
  C   C167      1.0  0.16690  0.77470  0.50440  1.0000
  C   C168      1.0  0.33310  0.27470  0.99560  1.0000
  H   H209      1.0  0.83630  0.20020  0.53010  1.0000
  H   H210      1.0  0.66370  0.70020  0.96990  1.0000
  H   H211      1.0  0.16370  0.79980  0.46990  1.0000
  H   H212      1.0  0.33630  0.29980  0.03010  1.0000
  H   H213      1.0  0.82190  0.28700  0.49910  1.0000
  H   H214      1.0  0.67810  0.78700  0.00090  1.0000
  H   H215      1.0  0.17810  0.71300  0.50090  1.0000
  H   H216      1.0  0.32190  0.21300  0.99910  1.0000
