data_image0
_chemical_formula_structural       U2C2O2N2O2C2H2N2O2C2H4N2O2C2H4N2O2C2H4N2O2C2H4N2C2H2O2C2H4O2C2H4C4H4C2H4C2H4C2H4C2H2C4H4C2H4C6
_chemical_formula_sum              "U2 C42 O16 N12 H54"
_cell_length_a       9.0539
_cell_length_b       11.6661
_cell_length_c       14.8682
_cell_angle_alpha    100.76
_cell_angle_beta     100.772
_cell_angle_gamma    99.577

_space_group_name_H-M_alt    "P 1"
_space_group_IT_number       1

loop_
  _space_group_symop_operation_xyz
  'x, y, z'

loop_
  _atom_site_type_symbol
  _atom_site_label
  _atom_site_symmetry_multiplicity
  _atom_site_fract_x
  _atom_site_fract_y
  _atom_site_fract_z
  _atom_site_occupancy
  U   U1        1.0  0.60687  0.87209  0.22058  1.0000
  U   U2        1.0  0.39313  0.12791  0.77942  1.0000
  C   C1        1.0  0.46400  0.03720  0.32090  1.0000
  C   C2        1.0  0.53600  0.96280  0.67910  1.0000
  O   O1        1.0  0.51240  0.75460  0.26295  1.0000
  O   O2        1.0  0.48760  0.24540  0.73705  1.0000
  N   N1        1.0  0.32450  0.34440  0.46560  1.0000
  N   N2        1.0  0.67550  0.65560  0.53440  1.0000
  O   O3        1.0  0.70080  0.98800  0.17660  1.0000
  O   O4        1.0  0.29920  0.01200  0.82340  1.0000
  C   C3        1.0  0.38380  0.12320  0.37210  1.0000
  C   C4        1.0  0.61620  0.87680  0.62790  1.0000
  H   H1        1.0  0.28200  0.07610  0.37410  1.0000
  H   H2        1.0  0.71800  0.92390  0.62590  1.0000
  N   N3        1.0  0.28880  0.59800  0.73560  1.0000
  N   N4        1.0  0.71120  0.40200  0.26440  1.0000
  O   O5        1.0  0.58260  0.72650  0.07006  1.0000
  O   O6        1.0  0.41740  0.27350  0.92994  1.0000
  C   C5        1.0  0.46570  0.18150  0.47290  1.0000
  C   C6        1.0  0.53430  0.81850  0.52710  1.0000
  H   H3        1.0  0.48380  0.11890  0.50780  1.0000
  H   H4        1.0  0.51620  0.88110  0.49220  1.0000
  H   H5        1.0  0.56690  0.23010  0.47400  1.0000
  H   H6        1.0  0.43310  0.76990  0.52600  1.0000
  N   N5        1.0  0.11120  0.67380  0.44660  1.0000
  N   N6        1.0  0.88880  0.32620  0.55340  1.0000
  O   O7        1.0  0.39540  0.81980  0.08105  1.0000
  O   O8        1.0  0.60460  0.18020  0.91895  1.0000
  C   C7        1.0  0.37310  0.25980  0.52060  1.0000
  C   C8        1.0  0.62690  0.74020  0.47940  1.0000
  H   H7        1.0  0.28110  0.20890  0.53040  1.0000
  H   H8        1.0  0.71890  0.79110  0.46960  1.0000
  H   H9        1.0  0.43570  0.30450  0.58310  1.0000
  H   H10       1.0  0.56430  0.69550  0.41690  1.0000
  N   N7        1.0  0.21990  0.50970  0.45460  1.0000
  N   N8        1.0  0.78010  0.49030  0.54540  1.0000
  O   O9        1.0  0.83760  0.90970  0.34800  1.0000
  O   O10       1.0  0.16240  0.09030  0.65200  1.0000
  C   C9        1.0  0.35050  0.21880  0.31930  1.0000
  C   C10       1.0  0.64950  0.78120  0.68070  1.0000
  H   H11       1.0  0.44820  0.27130  0.31900  1.0000
  H   H12       1.0  0.55180  0.72870  0.68100  1.0000
  H   H13       1.0  0.29690  0.18110  0.25330  1.0000
  H   H14       1.0  0.70310  0.81890  0.74670  1.0000
  N   N9        1.0  0.31310  0.47070  0.60320  1.0000
  N   N10       1.0  0.68690  0.52930  0.39680  1.0000
  O   O11       1.0  0.83280  0.78280  0.21918  1.0000
  O   O12       1.0  0.16720  0.21720  0.78082  1.0000
  C   C11       1.0  0.25130  0.29140  0.36610  1.0000
  C   C12       1.0  0.74870  0.70860  0.63390  1.0000
  H   H15       1.0  0.23300  0.35560  0.33300  1.0000
  H   H16       1.0  0.76700  0.64440  0.66700  1.0000
  H   H17       1.0  0.15050  0.23960  0.36160  1.0000
  H   H18       1.0  0.84950  0.76040  0.63840  1.0000
  N   N11       1.0  0.19300  0.63710  0.59260  1.0000
  N   N12       1.0  0.80700  0.36290  0.40740  1.0000
  C   C13       1.0  0.36210  0.67460  0.93800  1.0000
  C   C14       1.0  0.63790  0.32540  0.06200  1.0000
  H   H19       1.0  0.26380  0.62850  0.94610  1.0000
  H   H20       1.0  0.73620  0.37150  0.05390  1.0000
  O   O13       1.0  0.39980  0.98220  0.23707  1.0000
  O   O14       1.0  0.60020  0.01780  0.76293  1.0000
  C   C15       1.0  0.44170  0.58540  0.88820  1.0000
  C   C16       1.0  0.55830  0.41460  0.11180  1.0000
  H   H21       1.0  0.46720  0.52900  0.92790  1.0000
  H   H22       1.0  0.53280  0.47100  0.07210  1.0000
  H   H23       1.0  0.53860  0.62800  0.87740  1.0000
  H   H24       1.0  0.46140  0.37200  0.12260  1.0000
  O   O15       1.0  0.58970  0.01720  0.36012  1.0000
  O   O16       1.0  0.41030  0.98280  0.63988  1.0000
  C   C17       1.0  0.33660  0.51700  0.79460  1.0000
  C   C18       1.0  0.66340  0.48300  0.20540  1.0000
  H   H25       1.0  0.39110  0.46200  0.76110  1.0000
  H   H26       1.0  0.60890  0.53800  0.23890  1.0000
  H   H27       1.0  0.24440  0.46840  0.80620  1.0000
  H   H28       1.0  0.75560  0.53160  0.19380  1.0000
  C   C19       1.0  0.45260  0.74250  0.03410  1.0000
  C   C20       1.0  0.54740  0.25750  0.96590  1.0000
  C   C21       1.0  0.31990  0.75890  0.87520  1.0000
  C   C22       1.0  0.68010  0.24110  0.12480  1.0000
  H   H29       1.0  0.26610  0.81600  0.90690  1.0000
  H   H30       1.0  0.73390  0.18400  0.09310  1.0000
  H   H31       1.0  0.41490  0.80510  0.86480  1.0000
  H   H32       1.0  0.58510  0.19490  0.13520  1.0000
  C   C23       1.0  0.21740  0.69090  0.78120  1.0000
  C   C24       1.0  0.78260  0.30910  0.21880  1.0000
  H   H33       1.0  0.11680  0.65340  0.79070  1.0000
  H   H34       1.0  0.88320  0.34660  0.20930  1.0000
  H   H35       1.0  0.19930  0.74700  0.73990  1.0000
  H   H36       1.0  0.80070  0.25300  0.26010  1.0000
  C   C25       1.0  0.07410  0.78680  0.48850  1.0000
  C   C26       1.0  0.92590  0.21320  0.51150  1.0000
  H   H37       1.0  0.12400  0.81070  0.55620  1.0000
  H   H38       1.0  0.87600  0.18930  0.44380  1.0000
  H   H39       1.0  0.96150  0.77630  0.48210  1.0000
  H   H40       1.0  0.03850  0.22370  0.51790  1.0000
  C   C27       1.0  0.12960  0.88410  0.43950  1.0000
  C   C28       1.0  0.87040  0.11590  0.56050  1.0000
  H   H41       1.0  0.09220  0.95660  0.46270  1.0000
  H   H42       1.0  0.90780  0.04340  0.53730  1.0000
  H   H43       1.0  0.24340  0.90450  0.45590  1.0000
  H   H44       1.0  0.75660  0.09550  0.54410  1.0000
  C   C29       1.0  0.07480  0.84670  0.33340  1.0000
  C   C30       1.0  0.92520  0.15330  0.66660  1.0000
  H   H45       1.0  0.13310  0.90820  0.30730  1.0000
  H   H46       1.0  0.86690  0.09180  0.69270  1.0000
  C   C31       1.0  0.90560  0.84510  0.29930  1.0000
  C   C32       1.0  0.09440  0.15490  0.70070  1.0000
  C   C33       1.0  0.11650  0.72830  0.29560  1.0000
  C   C34       1.0  0.88350  0.27170  0.70440  1.0000
  H   H47       1.0  0.07260  0.70200  0.22710  1.0000
  H   H48       1.0  0.92740  0.29800  0.77290  1.0000
  H   H49       1.0  0.22960  0.73860  0.30620  1.0000
  H   H50       1.0  0.77040  0.26140  0.69380  1.0000
  C   C35       1.0  0.05390  0.63500  0.34480  1.0000
  C   C36       1.0  0.94610  0.36500  0.65520  1.0000
  H   H51       1.0  0.94020  0.62010  0.32960  1.0000
  H   H52       1.0  0.05980  0.37990  0.67040  1.0000
  H   H53       1.0  0.08490  0.55930  0.32190  1.0000
  H   H54       1.0  0.91510  0.44070  0.67810  1.0000
  C   C37       1.0  0.17620  0.60650  0.50020  1.0000
  C   C38       1.0  0.82380  0.39350  0.49980  1.0000
  C   C39       1.0  0.28520  0.44350  0.50950  1.0000
  C   C40       1.0  0.71480  0.55650  0.49050  1.0000
  C   C41       1.0  0.26450  0.56840  0.64140  1.0000
  C   C42       1.0  0.73550  0.43160  0.35860  1.0000
