data_image0
_chemical_formula_structural       U2O2C2N2C2H4O2N4O2C2N2C2O2C2H4O2N2O2C2H2N2O2C2H4C4H4O2C2H2C2H4C2H4C2H4C2H4C2H4C2H4C2H2C2H4C6H4
_chemical_formula_sum              "U2 O16 C42 N12 H54"
_cell_length_a       14.85
_cell_length_b       15.1481
_cell_length_c       9.081
_cell_angle_alpha    90
_cell_angle_beta     105.51
_cell_angle_gamma    90

_space_group_name_H-M_alt    "P 1"
_space_group_IT_number       1

loop_
  _space_group_symop_operation_xyz
  'x, y, z'

loop_
  _atom_site_type_symbol
  _atom_site_label
  _atom_site_symmetry_multiplicity
  _atom_site_fract_x
  _atom_site_fract_y
  _atom_site_fract_z
  _atom_site_occupancy
  U   U1        1.0  0.79352  0.22113  0.62562  1.0000
  U   U2        1.0  0.79352  0.77887  0.12562  1.0000
  O   O1        1.0  0.76230  0.36550  0.49860  1.0000
  O   O2        1.0  0.76230  0.63450  0.99860  1.0000
  C   C1        1.0  0.50020  0.74550  0.49990  1.0000
  C   C2        1.0  0.50020  0.25450  0.99990  1.0000
  N   N1        1.0  0.38850  0.61950  0.35580  1.0000
  N   N2        1.0  0.38850  0.38050  0.85580  1.0000
  C   C3        1.0  0.23320  0.73470  0.54600  1.0000
  C   C4        1.0  0.23320  0.26530  0.04600  1.0000
  H   H1        1.0  0.27850  0.78250  0.58610  1.0000
  H   H2        1.0  0.27850  0.21750  0.08610  1.0000
  H   H3        1.0  0.22050  0.70320  0.63360  1.0000
  H   H4        1.0  0.22050  0.29680  0.13360  1.0000
  O   O3        1.0  0.80420  0.06870  0.72400  1.0000
  O   O4        1.0  0.80420  0.93130  0.22400  1.0000
  N   N3        1.0  0.50760  0.57190  0.25510  1.0000
  N   N4        1.0  0.50760  0.42810  0.75510  1.0000
  N   N5        1.0  0.53700  0.68930  0.41820  1.0000
  N   N6        1.0  0.53700  0.31070  0.91820  1.0000
  O   O5        1.0  0.66790  0.11160  0.58680  1.0000
  O   O6        1.0  0.66790  0.88840  0.08680  1.0000
  C   C5        1.0  0.47550  0.62890  0.34470  1.0000
  C   C6        1.0  0.47550  0.37110  0.84470  1.0000
  N   N7        1.0  0.41470  0.74640  0.51600  1.0000
  N   N8        1.0  0.41470  0.25360  0.01600  1.0000
  C   C7        1.0  0.36190  0.67880  0.44120  1.0000
  C   C8        1.0  0.36190  0.32120  0.94120  1.0000
  O   O7        1.0  0.64530  0.27560  0.45870  1.0000
  O   O8        1.0  0.64530  0.72440  0.95870  1.0000
  C   C9        1.0  0.12010  0.63690  0.28950  1.0000
  C   C10       1.0  0.12010  0.36310  0.78950  1.0000
  H   H5        1.0  0.07740  0.58630  0.25600  1.0000
  H   H6        1.0  0.07740  0.41370  0.75600  1.0000
  H   H7        1.0  0.12980  0.66570  0.19710  1.0000
  H   H8        1.0  0.12980  0.33430  0.69710  1.0000
  O   O9        1.0  0.76300  0.26130  0.79110  1.0000
  O   O10       1.0  0.76300  0.73870  0.29110  1.0000
  N   N9        1.0  0.56050  0.81250  0.57130  1.0000
  N   N10       1.0  0.56050  0.18750  0.07130  1.0000
  O   O11       1.0  0.95330  0.81160  0.29190  1.0000
  O   O12       1.0  0.95330  0.18840  0.79190  1.0000
  C   C11       1.0  0.07590  0.70140  0.37420  1.0000
  C   C12       1.0  0.07590  0.29860  0.87420  1.0000
  H   H9        1.0  0.06310  0.66740  0.46080  1.0000
  H   H10       1.0  0.06310  0.33260  0.96080  1.0000
  N   N11       1.0  0.27290  0.67320  0.45570  1.0000
  N   N12       1.0  0.27290  0.32680  0.95570  1.0000
  O   O13       1.0  0.92890  0.68170  0.18850  1.0000
  O   O14       1.0  0.92890  0.31830  0.68850  1.0000
  C   C13       1.0  0.14400  0.77350  0.44780  1.0000
  C   C14       1.0  0.14400  0.22650  0.94780  1.0000
  H   H11       1.0  0.15810  0.81080  0.36720  1.0000
  H   H12       1.0  0.15810  0.18920  0.86720  1.0000
  H   H13       1.0  0.11510  0.81150  0.51130  1.0000
  H   H14       1.0  0.11510  0.18850  0.01130  1.0000
  C   C15       1.0  0.67950  0.34910  0.43410  1.0000
  C   C16       1.0  0.67950  0.65090  0.93410  1.0000
  C   C17       1.0  0.21110  0.60400  0.38500  1.0000
  C   C18       1.0  0.21110  0.39600  0.88500  1.0000
  H   H15       1.0  0.19980  0.56500  0.46590  1.0000
  H   H16       1.0  0.19980  0.43500  0.96590  1.0000
  H   H17       1.0  0.24160  0.56830  0.32100  1.0000
  H   H18       1.0  0.24160  0.43170  0.82100  1.0000
  O   O15       1.0  0.82640  0.18050  0.46600  1.0000
  O   O16       1.0  0.82640  0.81950  0.96600  1.0000
  C   C19       1.0  0.62310  0.41510  0.32180  1.0000
  C   C20       1.0  0.62310  0.58490  0.82180  1.0000
  H   H19       1.0  0.62870  0.39840  0.21800  1.0000
  H   H20       1.0  0.62870  0.60160  0.71800  1.0000
  C   C21       1.0  0.66210  0.50910  0.35520  1.0000
  C   C22       1.0  0.66210  0.49090  0.85520  1.0000
  H   H21       1.0  0.66340  0.52530  0.46140  1.0000
  H   H22       1.0  0.66340  0.47470  0.96140  1.0000
  H   H23       1.0  0.72700  0.51070  0.34620  1.0000
  H   H24       1.0  0.72700  0.48930  0.84620  1.0000
  C   C23       1.0  0.60510  0.57450  0.24890  1.0000
  C   C24       1.0  0.60510  0.42550  0.74890  1.0000
  H   H25       1.0  0.63080  0.63440  0.27630  1.0000
  H   H26       1.0  0.63080  0.36560  0.77630  1.0000
  H   H27       1.0  0.60810  0.56160  0.14340  1.0000
  H   H28       1.0  0.60810  0.43840  0.64340  1.0000
  C   C25       1.0  0.46390  0.48480  0.20990  1.0000
  C   C26       1.0  0.46390  0.51520  0.70990  1.0000
  H   H29       1.0  0.46350  0.47180  0.10290  1.0000
  H   H30       1.0  0.46350  0.52820  0.60290  1.0000
  H   H31       1.0  0.39840  0.48570  0.21620  1.0000
  H   H32       1.0  0.39840  0.51430  0.71620  1.0000
  C   C27       1.0  0.66030  0.80620  0.58430  1.0000
  C   C28       1.0  0.66030  0.19380  0.08430  1.0000
  H   H33       1.0  0.67110  0.76700  0.50350  1.0000
  H   H34       1.0  0.67110  0.23300  0.00350  1.0000
  H   H35       1.0  0.69330  0.78100  0.68490  1.0000
  H   H36       1.0  0.69330  0.21900  0.18490  1.0000
  C   C29       1.0  0.69840  0.90030  0.56730  1.0000
  C   C30       1.0  0.69840  0.09970  0.06730  1.0000
  H   H37       1.0  0.76680  0.89740  0.58190  1.0000
  H   H38       1.0  0.76680  0.10260  0.08190  1.0000
  H   H39       1.0  0.66950  0.92270  0.46290  1.0000
  H   H40       1.0  0.66950  0.07730  0.96290  1.0000
  C   C31       1.0  0.51840  0.41270  0.31560  1.0000
  C   C32       1.0  0.51840  0.58730  0.81560  1.0000
  H   H41       1.0  0.49240  0.35420  0.27850  1.0000
  H   H42       1.0  0.49240  0.64580  0.77850  1.0000
  H   H43       1.0  0.51110  0.42120  0.41990  1.0000
  H   H44       1.0  0.51110  0.57880  0.91990  1.0000
  C   C33       1.0  0.67730  0.96260  0.68200  1.0000
  C   C34       1.0  0.67730  0.03740  0.18200  1.0000
  H   H45       1.0  0.70900  0.93980  0.78630  1.0000
  H   H46       1.0  0.70900  0.06020  0.28630  1.0000
  C   C35       1.0  0.57260  0.96410  0.66540  1.0000
  C   C36       1.0  0.57260  0.03590  0.16540  1.0000
  H   H47       1.0  0.53980  0.98850  0.56420  1.0000
  H   H48       1.0  0.53980  0.01150  0.06420  1.0000
  H   H49       1.0  0.55930  0.00280  0.74480  1.0000
  H   H50       1.0  0.55930  0.99720  0.24480  1.0000
  C   C37       1.0  0.71810  0.05190  0.66510  1.0000
  C   C38       1.0  0.71810  0.94810  0.16510  1.0000
  C   C39       1.0  0.98230  0.73440  0.28160  1.0000
  C   C40       1.0  0.98230  0.26560  0.78160  1.0000
  C   C41       1.0  0.53600  0.87060  0.68140  1.0000
  C   C42       1.0  0.53600  0.12940  0.18140  1.0000
  H   H51       1.0  0.56390  0.84830  0.78620  1.0000
  H   H52       1.0  0.56390  0.15170  0.28620  1.0000
  H   H53       1.0  0.46730  0.87210  0.66350  1.0000
  H   H54       1.0  0.46730  0.12790  0.16350  1.0000
