data_image0
_chemical_formula_structural       Co8P4H4P4H4O12H4O12H4O32C16
_chemical_formula_sum              "Co8 P8 H16 O56 C16"
_cell_length_a       15.3007
_cell_length_b       8.2832
_cell_length_c       16.2601
_cell_angle_alpha    90
_cell_angle_beta     113.487
_cell_angle_gamma    90

_space_group_name_H-M_alt    "P 1"
_space_group_IT_number       1

loop_
  _space_group_symop_operation_xyz
  'x, y, z'

loop_
  _atom_site_type_symbol
  _atom_site_label
  _atom_site_symmetry_multiplicity
  _atom_site_fract_x
  _atom_site_fract_y
  _atom_site_fract_z
  _atom_site_occupancy
  Co  Co1       1.0  0.66798  0.56621  0.64856  1.0000
  Co  Co2       1.0  0.33202  0.06621  0.85144  1.0000
  Co  Co3       1.0  0.33202  0.43379  0.35144  1.0000
  Co  Co4       1.0  0.66798  0.93379  0.14856  1.0000
  Co  Co5       1.0  0.83255  0.01135  0.84509  1.0000
  Co  Co6       1.0  0.16745  0.51135  0.65491  1.0000
  Co  Co7       1.0  0.16745  0.98865  0.15491  1.0000
  Co  Co8       1.0  0.83255  0.48865  0.34509  1.0000
  P   P1        1.0  0.87869  0.69808  0.73568  1.0000
  P   P2        1.0  0.12131  0.19808  0.76432  1.0000
  P   P3        1.0  0.12131  0.30192  0.26432  1.0000
  P   P4        1.0  0.87869  0.80192  0.23568  1.0000
  H   H1        1.0  0.91310  0.57060  0.76790  1.0000
  H   H2        1.0  0.08690  0.07060  0.73210  1.0000
  H   H3        1.0  0.08690  0.42940  0.23210  1.0000
  H   H4        1.0  0.91310  0.92940  0.26790  1.0000
  P   P5        1.0  0.61444  0.89063  0.74422  1.0000
  P   P6        1.0  0.38556  0.39063  0.75578  1.0000
  P   P7        1.0  0.38556  0.10937  0.25578  1.0000
  P   P8        1.0  0.61444  0.60937  0.24422  1.0000
  H   H5        1.0  0.58670  0.02350  0.70720  1.0000
  H   H6        1.0  0.41330  0.52350  0.79280  1.0000
  H   H7        1.0  0.41330  0.97650  0.29280  1.0000
  H   H8        1.0  0.58670  0.47650  0.20720  1.0000
  O   O1        1.0  0.78899  0.68140  0.65125  1.0000
  O   O2        1.0  0.21101  0.18140  0.84875  1.0000
  O   O3        1.0  0.21101  0.31860  0.34875  1.0000
  O   O4        1.0  0.78899  0.81860  0.15125  1.0000
  O   O5        1.0  0.87495  0.79990  0.80984  1.0000
  O   O6        1.0  0.12505  0.29990  0.69016  1.0000
  O   O7        1.0  0.12505  0.20010  0.19016  1.0000
  O   O8        1.0  0.87495  0.70010  0.30984  1.0000
  O   O9        1.0  0.96242  0.76190  0.71160  1.0000
  O   O10       1.0  0.03758  0.26190  0.78840  1.0000
  O   O11       1.0  0.03758  0.23810  0.28840  1.0000
  O   O12       1.0  0.96242  0.73810  0.21160  1.0000
  H   H9        1.0  0.97330  0.70480  0.67320  1.0000
  H   H10       1.0  0.02670  0.20480  0.82680  1.0000
  H   H11       1.0  0.02670  0.29520  0.32680  1.0000
  H   H12       1.0  0.97330  0.79520  0.17320  1.0000
  O   O13       1.0  0.62140  0.77920  0.67506  1.0000
  O   O14       1.0  0.37860  0.27920  0.82494  1.0000
  O   O15       1.0  0.37860  0.22080  0.32494  1.0000
  O   O16       1.0  0.62140  0.72080  0.17506  1.0000
  O   O17       1.0  0.70235  0.91490  0.82970  1.0000
  O   O18       1.0  0.29765  0.41490  0.67030  1.0000
  O   O19       1.0  0.29765  0.08510  0.17030  1.0000
  O   O20       1.0  0.70235  0.58510  0.32970  1.0000
  O   O21       1.0  0.52855  0.83190  0.76602  1.0000
  O   O22       1.0  0.47145  0.33190  0.73398  1.0000
  O   O23       1.0  0.47145  0.16810  0.23398  1.0000
  O   O24       1.0  0.52855  0.66810  0.26602  1.0000
  H   H13       1.0  0.52130  0.87760  0.80970  1.0000
  H   H14       1.0  0.47870  0.37760  0.69030  1.0000
  H   H15       1.0  0.47870  0.12240  0.19030  1.0000
  H   H16       1.0  0.52130  0.62240  0.30970  1.0000
  O   O25       1.0  0.73360  0.33980  0.63875  1.0000
  O   O26       1.0  0.26640  0.83980  0.86125  1.0000
  O   O27       1.0  0.26640  0.66020  0.36125  1.0000
  O   O28       1.0  0.73360  0.16020  0.13875  1.0000
  O   O29       1.0  0.71340  0.46870  0.77965  1.0000
  O   O30       1.0  0.28660  0.96870  0.72035  1.0000
  O   O31       1.0  0.28660  0.53130  0.22035  1.0000
  O   O32       1.0  0.71340  0.03130  0.27965  1.0000
  O   O33       1.0  0.77820  0.24690  0.86042  1.0000
  O   O34       1.0  0.22180  0.74690  0.63958  1.0000
  O   O35       1.0  0.22180  0.75310  0.13958  1.0000
  O   O36       1.0  0.77820  0.25310  0.36042  1.0000
  O   O37       1.0  0.79682  0.11700  0.71818  1.0000
  O   O38       1.0  0.20318  0.61700  0.78182  1.0000
  O   O39       1.0  0.20318  0.88300  0.28182  1.0000
  O   O40       1.0  0.79682  0.38300  0.21818  1.0000
  O   O41       1.0  0.60725  0.58330  0.50720  1.0000
  O   O42       1.0  0.39275  0.08330  0.99280  1.0000
  O   O43       1.0  0.39275  0.41670  0.49280  1.0000
  O   O44       1.0  0.60725  0.91670  0.00720  1.0000
  O   O45       1.0  0.47092  0.54440  0.38726  1.0000
  O   O46       1.0  0.52908  0.04440  0.11274  1.0000
  O   O47       1.0  0.52908  0.45560  0.61274  1.0000
  O   O48       1.0  0.47092  0.95560  0.88726  1.0000
  O   O49       1.0  0.88316  0.95590  0.98405  1.0000
  O   O50       1.0  0.11684  0.45590  0.51595  1.0000
  O   O51       1.0  0.11684  0.04410  0.01595  1.0000
  O   O52       1.0  0.88316  0.54410  0.48405  1.0000
  O   O53       1.0  0.01999  0.90650  0.10199  1.0000
  O   O54       1.0  0.98001  0.40650  0.39801  1.0000
  O   O55       1.0  0.98001  0.09350  0.89801  1.0000
  O   O56       1.0  0.01999  0.59350  0.60199  1.0000
  C   C1        1.0  0.76151  0.25510  0.70881  1.0000
  C   C2        1.0  0.23849  0.75510  0.79119  1.0000
  C   C3        1.0  0.23849  0.74490  0.29119  1.0000
  C   C4        1.0  0.76151  0.24490  0.20881  1.0000
  C   C5        1.0  0.74914  0.33040  0.79018  1.0000
  C   C6        1.0  0.25086  0.83040  0.70982  1.0000
  C   C7        1.0  0.25086  0.66960  0.20982  1.0000
  C   C8        1.0  0.74914  0.16960  0.29018  1.0000
  C   C9        1.0  0.52305  0.53680  0.46971  1.0000
  C   C10       1.0  0.47695  0.03680  0.03029  1.0000
  C   C11       1.0  0.47695  0.46320  0.53029  1.0000
  C   C12       1.0  0.52305  0.96320  0.96971  1.0000
  C   C13       1.0  0.97157  0.96090  0.02467  1.0000
  C   C14       1.0  0.02843  0.46090  0.47533  1.0000
  C   C15       1.0  0.02843  0.03910  0.97533  1.0000
  C   C16       1.0  0.97157  0.53910  0.52467  1.0000
