data_image0
_chemical_formula_structural       Co4P4O4H4O8H4O24C12
_chemical_formula_sum              "Co4 P4 O36 H8 C12"
_cell_length_a       5.8605
_cell_length_b       13.6144
_cell_length_c       19.3605
_cell_angle_alpha    90
_cell_angle_beta     105.582
_cell_angle_gamma    90

_space_group_name_H-M_alt    "P 1"
_space_group_IT_number       1

loop_
  _space_group_symop_operation_xyz
  'x, y, z'

loop_
  _atom_site_type_symbol
  _atom_site_label
  _atom_site_symmetry_multiplicity
  _atom_site_fract_x
  _atom_site_fract_y
  _atom_site_fract_z
  _atom_site_occupancy
  Co  Co1       1.0  0.54610  0.85521  0.90921  1.0000
  Co  Co2       1.0  0.45390  0.35521  0.59079  1.0000
  Co  Co3       1.0  0.45390  0.14479  0.09079  1.0000
  Co  Co4       1.0  0.54610  0.64479  0.40921  1.0000
  P   P1        1.0  0.45620  0.62617  0.93334  1.0000
  P   P2        1.0  0.54380  0.12617  0.56666  1.0000
  P   P3        1.0  0.54380  0.37383  0.06666  1.0000
  P   P4        1.0  0.45620  0.87383  0.43334  1.0000
  O   O1        1.0  0.62390  0.70860  0.93130  1.0000
  O   O2        1.0  0.37610  0.20860  0.56870  1.0000
  O   O3        1.0  0.37610  0.29140  0.06870  1.0000
  O   O4        1.0  0.62390  0.79140  0.43130  1.0000
  H   H1        1.0  0.26030  0.64040  0.88110  1.0000
  H   H2        1.0  0.73970  0.14040  0.61890  1.0000
  H   H3        1.0  0.73970  0.35960  0.11890  1.0000
  H   H4        1.0  0.26030  0.85960  0.38110  1.0000
  O   O5        1.0  0.37360  0.61970  0.99990  1.0000
  O   O6        1.0  0.62640  0.11970  0.50010  1.0000
  O   O7        1.0  0.62640  0.38030  0.00010  1.0000
  O   O8        1.0  0.37360  0.88030  0.49990  1.0000
  O   O9        1.0  0.56700  0.52850  0.91890  1.0000
  O   O10       1.0  0.43300  0.02850  0.58110  1.0000
  O   O11       1.0  0.43300  0.47150  0.08110  1.0000
  O   O12       1.0  0.56700  0.97150  0.41890  1.0000
  H   H5        1.0  0.56610  0.47800  0.94460  1.0000
  H   H6        1.0  0.43390  0.97800  0.55540  1.0000
  H   H7        1.0  0.43390  0.52200  0.05540  1.0000
  H   H8        1.0  0.56610  0.02200  0.44460  1.0000
  O   O13       1.0  0.57200  0.84090  0.80680  1.0000
  O   O14       1.0  0.42800  0.34090  0.69320  1.0000
  O   O15       1.0  0.42800  0.15910  0.19320  1.0000
  O   O16       1.0  0.57200  0.65910  0.30680  1.0000
  O   O17       1.0  0.92790  0.86620  0.92170  1.0000
  O   O18       1.0  0.07210  0.36620  0.57830  1.0000
  O   O19       1.0  0.07210  0.13380  0.07830  1.0000
  O   O20       1.0  0.92790  0.63380  0.42170  1.0000
  O   O21       1.0  0.81020  0.78070  0.74560  1.0000
  O   O22       1.0  0.18980  0.28070  0.75440  1.0000
  O   O23       1.0  0.18980  0.21930  0.25440  1.0000
  O   O24       1.0  0.81020  0.71930  0.24560  1.0000
  O   O25       1.0  0.18730  0.82950  0.85970  1.0000
  O   O26       1.0  0.81270  0.32950  0.64030  1.0000
  O   O27       1.0  0.81270  0.17050  0.14030  1.0000
  O   O28       1.0  0.18730  0.67050  0.35970  1.0000
  O   O29       1.0  0.53510  0.87420  0.01510  1.0000
  O   O30       1.0  0.46490  0.37420  0.48490  1.0000
  O   O31       1.0  0.46490  0.12580  0.98490  1.0000
  O   O32       1.0  0.53510  0.62580  0.51510  1.0000
  O   O33       1.0  0.49880  0.99270  0.08950  1.0000
  O   O34       1.0  0.50120  0.49270  0.41050  1.0000
  O   O35       1.0  0.50120  0.00730  0.91050  1.0000
  O   O36       1.0  0.49880  0.50730  0.58950  1.0000
  C   C1        1.0  0.77500  0.81810  0.80020  1.0000
  C   C2        1.0  0.22500  0.31810  0.69980  1.0000
  C   C3        1.0  0.22500  0.18190  0.19980  1.0000
  C   C4        1.0  0.77500  0.68190  0.30020  1.0000
  C   C5        1.0  0.98440  0.84020  0.86740  1.0000
  C   C6        1.0  0.01560  0.34020  0.63260  1.0000
  C   C7        1.0  0.01560  0.15980  0.13260  1.0000
  C   C8        1.0  0.98440  0.65980  0.36740  1.0000
  C   C9        1.0  0.50960  0.96150  0.03040  1.0000
  C   C10       1.0  0.49040  0.46150  0.46960  1.0000
  C   C11       1.0  0.49040  0.03850  0.96960  1.0000
  C   C12       1.0  0.50960  0.53850  0.53040  1.0000
