data_image0
_chemical_formula_structural       V4P4O8H4O12C4O8
_chemical_formula_sum              "V4 P4 O28 H4 C4"
_cell_length_a       9.2495
_cell_length_b       6.3378
_cell_length_c       16.111
_cell_angle_alpha    90
_cell_angle_beta     98.08
_cell_angle_gamma    90

_space_group_name_H-M_alt    "P 1"
_space_group_IT_number       1

loop_
  _space_group_symop_operation_xyz
  'x, y, z'

loop_
  _atom_site_type_symbol
  _atom_site_label
  _atom_site_symmetry_multiplicity
  _atom_site_fract_x
  _atom_site_fract_y
  _atom_site_fract_z
  _atom_site_occupancy
  V   V1        1.0  0.35119  0.09073  0.63887  1.0000
  V   V2        1.0  0.64881  0.59073  0.86113  1.0000
  V   V3        1.0  0.64881  0.90927  0.36113  1.0000
  V   V4        1.0  0.35119  0.40927  0.13887  1.0000
  P   P1        1.0  0.40239  0.58170  0.68703  1.0000
  P   P2        1.0  0.59761  0.08170  0.81297  1.0000
  P   P3        1.0  0.59761  0.41830  0.31297  1.0000
  P   P4        1.0  0.40239  0.91830  0.18703  1.0000
  O   O1        1.0  0.39790  0.39380  0.62800  1.0000
  O   O2        1.0  0.60210  0.89380  0.87200  1.0000
  O   O3        1.0  0.60210  0.60620  0.37200  1.0000
  O   O4        1.0  0.39790  0.10620  0.12800  1.0000
  O   O5        1.0  0.27890  0.55250  0.74464  1.0000
  O   O6        1.0  0.72110  0.05250  0.75536  1.0000
  O   O7        1.0  0.72110  0.44750  0.25536  1.0000
  O   O8        1.0  0.27890  0.94750  0.24464  1.0000
  H   H1        1.0  0.31470  0.56930  0.79510  1.0000
  H   H2        1.0  0.68530  0.06930  0.70490  1.0000
  H   H3        1.0  0.68530  0.43070  0.20490  1.0000
  H   H4        1.0  0.31470  0.93070  0.29510  1.0000
  O   O9        1.0  0.36800  0.77690  0.63407  1.0000
  O   O10       1.0  0.63200  0.27690  0.86593  1.0000
  O   O11       1.0  0.63200  0.22310  0.36593  1.0000
  O   O12       1.0  0.36800  0.72310  0.13407  1.0000
  O   O13       1.0  0.54950  0.59860  0.74333  1.0000
  O   O14       1.0  0.45050  0.09860  0.75667  1.0000
  O   O15       1.0  0.45050  0.40140  0.25667  1.0000
  O   O16       1.0  0.54950  0.90140  0.24333  1.0000
  O   O17       1.0  0.18430  0.10820  0.65362  1.0000
  O   O18       1.0  0.81570  0.60820  0.84638  1.0000
  O   O19       1.0  0.81570  0.89180  0.34638  1.0000
  O   O20       1.0  0.18430  0.39180  0.15362  1.0000
  C   C1        1.0  0.42350  0.00330  0.47350  1.0000
  C   C2        1.0  0.57650  0.50330  0.02650  1.0000
  C   C3        1.0  0.57650  0.99670  0.52650  1.0000
  C   C4        1.0  0.42350  0.49670  0.97350  1.0000
  O   O21       1.0  0.31980  0.06610  0.50953  1.0000
  O   O22       1.0  0.68020  0.56610  0.99047  1.0000
  O   O23       1.0  0.68020  0.93390  0.49047  1.0000
  O   O24       1.0  0.31980  0.43390  0.00953  1.0000
  O   O25       1.0  0.41790  0.94730  0.39881  1.0000
  O   O26       1.0  0.58210  0.44730  0.10119  1.0000
  O   O27       1.0  0.58210  0.05270  0.60119  1.0000
  O   O28       1.0  0.41790  0.55270  0.89881  1.0000
