data_image0
_chemical_formula_structural       Cd4S4O32H8O4H8O4H8N8C8H4C8H4C8H4C12H4C4H4C8H4C4H4C4H8C4H8C4H8C8H4C4H4C4H4C4H4
_chemical_formula_sum              "Cd4 S4 O40 H92 N8 C84"
_cell_length_a       7.4613
_cell_length_b       20.3543
_cell_length_c       20.47
_cell_angle_alpha    90
_cell_angle_beta     95.439
_cell_angle_gamma    90

_space_group_name_H-M_alt    "P 1"
_space_group_IT_number       1

loop_
  _space_group_symop_operation_xyz
  'x, y, z'

loop_
  _atom_site_type_symbol
  _atom_site_label
  _atom_site_symmetry_multiplicity
  _atom_site_fract_x
  _atom_site_fract_y
  _atom_site_fract_z
  _atom_site_occupancy
  Cd  Cd1       1.0  0.38252  0.18641  0.43950  1.0000
  Cd  Cd2       1.0  0.61748  0.68641  0.06050  1.0000
  Cd  Cd3       1.0  0.61748  0.81359  0.56050  1.0000
  Cd  Cd4       1.0  0.38252  0.31359  0.93950  1.0000
  S   S1        1.0  0.53225  0.00748  0.75027  1.0000
  S   S2        1.0  0.46775  0.50748  0.74973  1.0000
  S   S3        1.0  0.46775  0.99252  0.24973  1.0000
  S   S4        1.0  0.53225  0.49252  0.25027  1.0000
  O   O1        1.0  0.48300  0.16905  0.54527  1.0000
  O   O2        1.0  0.51700  0.66905  0.95473  1.0000
  O   O3        1.0  0.51700  0.83095  0.45473  1.0000
  O   O4        1.0  0.48300  0.33095  0.04527  1.0000
  O   O5        1.0  0.61290  0.26399  0.57723  1.0000
  O   O6        1.0  0.38710  0.76399  0.92277  1.0000
  O   O7        1.0  0.38710  0.73601  0.42277  1.0000
  O   O8        1.0  0.61290  0.23601  0.07723  1.0000
  O   O9        1.0  0.82730  0.21053  0.88258  1.0000
  O   O10       1.0  0.17270  0.71053  0.61742  1.0000
  O   O11       1.0  0.17270  0.78947  0.11742  1.0000
  O   O12       1.0  0.82730  0.28947  0.38258  1.0000
  O   O13       1.0  0.81000  0.29666  0.81600  1.0000
  O   O14       1.0  0.19000  0.79666  0.68400  1.0000
  O   O15       1.0  0.19000  0.70334  0.18400  1.0000
  O   O16       1.0  0.81000  0.20334  0.31600  1.0000
  O   O17       1.0  0.45280  0.97817  0.69110  1.0000
  O   O18       1.0  0.54720  0.47817  0.80890  1.0000
  O   O19       1.0  0.54720  0.02183  0.30890  1.0000
  O   O20       1.0  0.45280  0.52183  0.19110  1.0000
  O   O21       1.0  0.69090  0.97508  0.77870  1.0000
  O   O22       1.0  0.30910  0.47508  0.72130  1.0000
  O   O23       1.0  0.30910  0.02492  0.22130  1.0000
  O   O24       1.0  0.69090  0.52492  0.27870  1.0000
  O   O25       1.0  0.40370  0.01470  0.79950  1.0000
  O   O26       1.0  0.59630  0.51470  0.70050  1.0000
  O   O27       1.0  0.59630  0.98530  0.20050  1.0000
  O   O28       1.0  0.40370  0.48530  0.29950  1.0000
  O   O29       1.0  0.12010  0.23671  0.46913  1.0000
  O   O30       1.0  0.87990  0.73671  0.03087  1.0000
  O   O31       1.0  0.87990  0.76329  0.53087  1.0000
  O   O32       1.0  0.12010  0.26329  0.96913  1.0000
  H   H1        1.0  0.14650  0.27060  0.48950  1.0000
  H   H2        1.0  0.85350  0.77060  0.01050  1.0000
  H   H3        1.0  0.85350  0.72940  0.51050  1.0000
  H   H4        1.0  0.14650  0.22940  0.98950  1.0000
  H   H5        1.0  0.03500  0.24200  0.44500  1.0000
  H   H6        1.0  0.96500  0.74200  0.05500  1.0000
  H   H7        1.0  0.96500  0.75800  0.55500  1.0000
  H   H8        1.0  0.03500  0.25800  0.94500  1.0000
  O   O33       1.0  0.62730  0.12839  0.40005  1.0000
  O   O34       1.0  0.37270  0.62839  0.09995  1.0000
  O   O35       1.0  0.37270  0.87161  0.59995  1.0000
  O   O36       1.0  0.62730  0.37161  0.90005  1.0000
  H   H9        1.0  0.67830  0.15210  0.37530  1.0000
  H   H10       1.0  0.32170  0.65210  0.12470  1.0000
  H   H11       1.0  0.32170  0.84790  0.62470  1.0000
  H   H12       1.0  0.67830  0.34790  0.87530  1.0000
  H   H13       1.0  0.60000  0.09800  0.37900  1.0000
  H   H14       1.0  0.40000  0.59800  0.12100  1.0000
  H   H15       1.0  0.40000  0.90200  0.62100  1.0000
  H   H16       1.0  0.60000  0.40200  0.87900  1.0000
  O   O37       1.0  0.53630  0.28883  0.45266  1.0000
  O   O38       1.0  0.46370  0.78883  0.04734  1.0000
  O   O39       1.0  0.46370  0.71117  0.54734  1.0000
  O   O40       1.0  0.53630  0.21117  0.95266  1.0000
  H   H17       1.0  0.57650  0.29330  0.49110  1.0000
  H   H18       1.0  0.42350  0.79330  0.00890  1.0000
  H   H19       1.0  0.42350  0.70670  0.50890  1.0000
  H   H20       1.0  0.57650  0.20670  0.99110  1.0000
  H   H21       1.0  0.63600  0.28300  0.43600  1.0000
  H   H22       1.0  0.36400  0.78300  0.06400  1.0000
  H   H23       1.0  0.36400  0.71700  0.56400  1.0000
  H   H24       1.0  0.63600  0.21700  0.93600  1.0000
  N   N1        1.0  0.30330  0.22140  0.33459  1.0000
  N   N2        1.0  0.69670  0.72140  0.16541  1.0000
  N   N3        1.0  0.69670  0.77860  0.66541  1.0000
  N   N4        1.0  0.30330  0.27860  0.83459  1.0000
  N   N5        1.0  0.75780  0.58653  0.06590  1.0000
  N   N6        1.0  0.24220  0.08653  0.43410  1.0000
  N   N7        1.0  0.24220  0.41347  0.93410  1.0000
  N   N8        1.0  0.75780  0.91347  0.56590  1.0000
  C   C1        1.0  0.60000  0.17960  0.65650  1.0000
  C   C2        1.0  0.40000  0.67960  0.84350  1.0000
  C   C3        1.0  0.40000  0.82040  0.34350  1.0000
  C   C4        1.0  0.60000  0.32040  0.15650  1.0000
  C   C5        1.0  0.67400  0.21850  0.70750  1.0000
  C   C6        1.0  0.32600  0.71850  0.79250  1.0000
  C   C7        1.0  0.32600  0.78150  0.29250  1.0000
  C   C8        1.0  0.67400  0.28150  0.20750  1.0000
  H   H25       1.0  0.69970  0.26230  0.69940  1.0000
  H   H26       1.0  0.30030  0.76230  0.80060  1.0000
  H   H27       1.0  0.30030  0.73770  0.30060  1.0000
  H   H28       1.0  0.69970  0.23770  0.19940  1.0000
  C   C9        1.0  0.71080  0.19370  0.77080  1.0000
  C   C10       1.0  0.28920  0.69370  0.72920  1.0000
  C   C11       1.0  0.28920  0.80630  0.22920  1.0000
  C   C12       1.0  0.71080  0.30630  0.27080  1.0000
  C   C13       1.0  0.66900  0.12840  0.78270  1.0000
  C   C14       1.0  0.33100  0.62840  0.71730  1.0000
  C   C15       1.0  0.33100  0.87160  0.21730  1.0000
  C   C16       1.0  0.66900  0.37160  0.28270  1.0000
  H   H29       1.0  0.69200  0.11100  0.82470  1.0000
  H   H30       1.0  0.30800  0.61100  0.67530  1.0000
  H   H31       1.0  0.30800  0.88900  0.17530  1.0000
  H   H32       1.0  0.69200  0.38900  0.32470  1.0000
  C   C17       1.0  0.59250  0.08890  0.73150  1.0000
  C   C18       1.0  0.40750  0.58890  0.76850  1.0000
  C   C19       1.0  0.40750  0.91110  0.26850  1.0000
  C   C20       1.0  0.59250  0.41110  0.23150  1.0000
  C   C21       1.0  0.55930  0.11440  0.66930  1.0000
  C   C22       1.0  0.44070  0.61440  0.83070  1.0000
  C   C23       1.0  0.44070  0.88560  0.33070  1.0000
  C   C24       1.0  0.55930  0.38560  0.16930  1.0000
  H   H33       1.0  0.50910  0.08770  0.63540  1.0000
  H   H34       1.0  0.49090  0.58770  0.86460  1.0000
  H   H35       1.0  0.49090  0.91230  0.36460  1.0000
  H   H36       1.0  0.50910  0.41230  0.13540  1.0000
  C   C25       1.0  0.56360  0.20670  0.58810  1.0000
  C   C26       1.0  0.43640  0.70670  0.91190  1.0000
  C   C27       1.0  0.43640  0.79330  0.41190  1.0000
  C   C28       1.0  0.56360  0.29330  0.08810  1.0000
  C   C29       1.0  0.78910  0.23730  0.82640  1.0000
  C   C30       1.0  0.21090  0.73730  0.67360  1.0000
  C   C31       1.0  0.21090  0.76270  0.17360  1.0000
  C   C32       1.0  0.78910  0.26270  0.32640  1.0000
  C   C33       1.0  0.30050  0.18380  0.28030  1.0000
  C   C34       1.0  0.69950  0.68380  0.21970  1.0000
  C   C35       1.0  0.69950  0.81620  0.71970  1.0000
  C   C36       1.0  0.30050  0.31620  0.78030  1.0000
  H   H37       1.0  0.34040  0.14060  0.28460  1.0000
  H   H38       1.0  0.65960  0.64060  0.21540  1.0000
  H   H39       1.0  0.65960  0.85940  0.71540  1.0000
  H   H40       1.0  0.34040  0.35940  0.78460  1.0000
  C   C37       1.0  0.24130  0.20670  0.21880  1.0000
  C   C38       1.0  0.75870  0.70670  0.28120  1.0000
  C   C39       1.0  0.75870  0.79330  0.78120  1.0000
  C   C40       1.0  0.24130  0.29330  0.71880  1.0000
  H   H41       1.0  0.24260  0.17930  0.18250  1.0000
  H   H42       1.0  0.75740  0.67930  0.31750  1.0000
  H   H43       1.0  0.75740  0.82070  0.81750  1.0000
  H   H44       1.0  0.24260  0.32070  0.68250  1.0000
  C   C41       1.0  0.17940  0.27110  0.21100  1.0000
  C   C42       1.0  0.82060  0.77110  0.28900  1.0000
  C   C43       1.0  0.82060  0.72890  0.78900  1.0000
  C   C44       1.0  0.17940  0.22890  0.71100  1.0000
  C   C45       1.0  0.18370  0.30950  0.26700  1.0000
  C   C46       1.0  0.81630  0.80950  0.23300  1.0000
  C   C47       1.0  0.81630  0.69050  0.73300  1.0000
  C   C48       1.0  0.18370  0.19050  0.76700  1.0000
  H   H45       1.0  0.14580  0.35310  0.26400  1.0000
  H   H46       1.0  0.85420  0.85310  0.23600  1.0000
  H   H47       1.0  0.85420  0.64690  0.73600  1.0000
  H   H48       1.0  0.14580  0.14690  0.76400  1.0000
  C   C49       1.0  0.24410  0.28320  0.32680  1.0000
  C   C50       1.0  0.75590  0.78320  0.17320  1.0000
  C   C51       1.0  0.75590  0.71680  0.67320  1.0000
  C   C52       1.0  0.24410  0.21680  0.82680  1.0000
  H   H49       1.0  0.24390  0.30970  0.36380  1.0000
  H   H50       1.0  0.75610  0.80970  0.13620  1.0000
  H   H51       1.0  0.75610  0.69030  0.63620  1.0000
  H   H52       1.0  0.24390  0.19030  0.86380  1.0000
  C   C53       1.0  0.10730  0.29630  0.14410  1.0000
  C   C54       1.0  0.89270  0.79630  0.35590  1.0000
  C   C55       1.0  0.89270  0.70370  0.85590  1.0000
  C   C56       1.0  0.10730  0.20370  0.64410  1.0000
  H   H53       1.0  0.00240  0.27060  0.12860  1.0000
  H   H54       1.0  0.99760  0.77060  0.37140  1.0000
  H   H55       1.0  0.99760  0.72940  0.87140  1.0000
  H   H56       1.0  0.00240  0.22940  0.62860  1.0000
  H   H57       1.0  0.19790  0.28950  0.11380  1.0000
  H   H58       1.0  0.80210  0.78950  0.38620  1.0000
  H   H59       1.0  0.80210  0.71050  0.88620  1.0000
  H   H60       1.0  0.19790  0.21050  0.61380  1.0000
  C   C57       1.0  0.05550  0.36860  0.14300  1.0000
  C   C58       1.0  0.94450  0.86860  0.35700  1.0000
  C   C59       1.0  0.94450  0.63140  0.85700  1.0000
  C   C60       1.0  0.05550  0.13140  0.64300  1.0000
  H   H61       1.0  0.96790  0.37610  0.17430  1.0000
  H   H62       1.0  0.03210  0.87610  0.32570  1.0000
  H   H63       1.0  0.03210  0.62390  0.82570  1.0000
  H   H64       1.0  0.96790  0.12390  0.67430  1.0000
  H   H65       1.0  0.16120  0.39480  0.15640  1.0000
  H   H66       1.0  0.83880  0.89480  0.34360  1.0000
  H   H67       1.0  0.83880  0.60520  0.84360  1.0000
  H   H68       1.0  0.16120  0.10520  0.65640  1.0000
  C   C61       1.0  0.97690  0.39060  0.07550  1.0000
  C   C62       1.0  0.02310  0.89060  0.42450  1.0000
  C   C63       1.0  0.02310  0.60940  0.92450  1.0000
  C   C64       1.0  0.97690  0.10940  0.57550  1.0000
  H   H69       1.0  0.06950  0.38730  0.04540  1.0000
  H   H70       1.0  0.93050  0.88730  0.45460  1.0000
  H   H71       1.0  0.93050  0.61270  0.95460  1.0000
  H   H72       1.0  0.06950  0.11270  0.54540  1.0000
  H   H73       1.0  0.88050  0.36080  0.06020  1.0000
  H   H74       1.0  0.11950  0.86080  0.43980  1.0000
  H   H75       1.0  0.11950  0.63920  0.93980  1.0000
  H   H76       1.0  0.88050  0.13920  0.56020  1.0000
  C   C65       1.0  0.90460  0.45940  0.07330  1.0000
  C   C66       1.0  0.09540  0.95940  0.42670  1.0000
  C   C67       1.0  0.09540  0.54060  0.92670  1.0000
  C   C68       1.0  0.90460  0.04060  0.57330  1.0000
  C   C69       1.0  0.96370  0.50740  0.11790  1.0000
  C   C70       1.0  0.03630  0.00740  0.38210  1.0000
  C   C71       1.0  0.03630  0.49260  0.88210  1.0000
  C   C72       1.0  0.96370  0.99260  0.61790  1.0000
  H   H77       1.0  0.05400  0.49820  0.15110  1.0000
  H   H78       1.0  0.94600  0.99820  0.34890  1.0000
  H   H79       1.0  0.94600  0.50180  0.84890  1.0000
  H   H80       1.0  0.05400  0.00180  0.65110  1.0000
  C   C73       1.0  0.88680  0.56970  0.11250  1.0000
  C   C74       1.0  0.11320  0.06970  0.38750  1.0000
  C   C75       1.0  0.11320  0.43030  0.88750  1.0000
  C   C76       1.0  0.88680  0.93030  0.61250  1.0000
  H   H81       1.0  0.07240  0.10140  0.35690  1.0000
  H   H82       1.0  0.92760  0.60140  0.14310  1.0000
  H   H83       1.0  0.92760  0.89860  0.64310  1.0000
  H   H84       1.0  0.07240  0.39860  0.85690  1.0000
  C   C77       1.0  0.29770  0.03960  0.47810  1.0000
  C   C78       1.0  0.70230  0.53960  0.02190  1.0000
  C   C79       1.0  0.70230  0.96040  0.52190  1.0000
  C   C80       1.0  0.29770  0.46040  0.97810  1.0000
  H   H85       1.0  0.38680  0.05020  0.51130  1.0000
  H   H86       1.0  0.61320  0.55020  0.98870  1.0000
  H   H87       1.0  0.61320  0.94980  0.48870  1.0000
  H   H88       1.0  0.38680  0.44980  0.01130  1.0000
  C   C81       1.0  0.77050  0.47730  0.02380  1.0000
  C   C82       1.0  0.22950  0.97730  0.47620  1.0000
  C   C83       1.0  0.22950  0.52270  0.97620  1.0000
  C   C84       1.0  0.77050  0.02270  0.52380  1.0000
  H   H89       1.0  0.72810  0.44670  0.99230  1.0000
  H   H90       1.0  0.27190  0.94670  0.50770  1.0000
  H   H91       1.0  0.27190  0.55330  0.00770  1.0000
  H   H92       1.0  0.72810  0.05330  0.49230  1.0000
