data_image0
_chemical_formula_structural       Cd2O20N2H2N2H2C6H2C4H2C4H2C8H2C2H2C4H2C2H2C6H2C4H2C4H2C4
_chemical_formula_sum              "Cd2 O20 N4 H24 C48"
_cell_length_a       10.184
_cell_length_b       10.348
_cell_length_c       18.091
_cell_angle_alpha    102.34
_cell_angle_beta     99.19
_cell_angle_gamma    93.95

_space_group_name_H-M_alt    "P 1"
_space_group_IT_number       1

loop_
  _space_group_symop_operation_xyz
  'x, y, z'

loop_
  _atom_site_type_symbol
  _atom_site_label
  _atom_site_symmetry_multiplicity
  _atom_site_fract_x
  _atom_site_fract_y
  _atom_site_fract_z
  _atom_site_occupancy
  Cd  Cd1       1.0  0.54726  0.54683  0.81557  1.0000
  Cd  Cd2       1.0  0.45274  0.45317  0.18443  1.0000
  O   O1        1.0  0.31209  0.56520  0.81962  1.0000
  O   O2        1.0  0.68791  0.43480  0.18038  1.0000
  O   O3        1.0  0.37106  0.48160  0.70866  1.0000
  O   O4        1.0  0.62894  0.51840  0.29134  1.0000
  O   O5        1.0  0.82370  0.53880  0.83483  1.0000
  O   O6        1.0  0.17630  0.46120  0.16517  1.0000
  O   O7        1.0  0.67690  0.49560  0.72659  1.0000
  O   O8        1.0  0.32310  0.50440  0.27341  1.0000
  O   O9        1.0  0.11000  0.22400  0.49828  1.0000
  O   O10       1.0  0.89000  0.77600  0.50172  1.0000
  O   O11       1.0  0.88840  0.01390  0.10837  1.0000
  O   O12       1.0  0.11160  0.98610  0.89163  1.0000
  O   O13       1.0  0.60700  0.74243  0.90308  1.0000
  O   O14       1.0  0.39300  0.25757  0.09692  1.0000
  O   O15       1.0  0.54770  0.79970  0.79355  1.0000
  O   O16       1.0  0.45230  0.20030  0.20645  1.0000
  O   O17       1.0  0.52150  0.29270  0.80387  1.0000
  O   O18       1.0  0.47850  0.70730  0.19613  1.0000
  O   O19       1.0  0.59450  0.43670  0.91254  1.0000
  O   O20       1.0  0.40550  0.56330  0.08746  1.0000
  N   N1        1.0  0.93800  0.34800  0.51504  1.0000
  N   N2        1.0  0.06200  0.65200  0.48496  1.0000
  H   H1        1.0  0.85740  0.36700  0.49510  1.0000
  H   H2        1.0  0.14260  0.63300  0.50490  1.0000
  N   N3        1.0  0.73970  0.16810  0.10732  1.0000
  N   N4        1.0  0.26030  0.83190  0.89268  1.0000
  H   H3        1.0  0.72800  0.25190  0.12810  1.0000
  H   H4        1.0  0.27200  0.74810  0.87190  1.0000
  C   C1        1.0  0.28320  0.51210  0.74889  1.0000
  C   C2        1.0  0.71680  0.48790  0.25111  1.0000
  C   C3        1.0  0.13870  0.48180  0.71052  1.0000
  C   C4        1.0  0.86130  0.51820  0.28948  1.0000
  C   C5        1.0  0.10690  0.42990  0.63174  1.0000
  C   C6        1.0  0.89310  0.57010  0.36826  1.0000
  H   H5        1.0  0.17480  0.41570  0.60310  1.0000
  H   H6        1.0  0.82520  0.58430  0.39690  1.0000
  C   C7        1.0  0.97410  0.39890  0.59552  1.0000
  C   C8        1.0  0.02590  0.60110  0.40448  1.0000
  C   C9        1.0  0.87350  0.42260  0.63895  1.0000
  C   C10       1.0  0.12650  0.57740  0.36105  1.0000
  H   H7        1.0  0.78440  0.40220  0.61500  1.0000
  H   H8        1.0  0.21560  0.59780  0.38500  1.0000
  C   C11       1.0  0.90440  0.47640  0.71756  1.0000
  C   C12       1.0  0.09560  0.52360  0.28244  1.0000
  C   C13       1.0  0.03780  0.50420  0.75386  1.0000
  C   C14       1.0  0.96220  0.49580  0.24614  1.0000
  H   H9        1.0  0.05940  0.53760  0.80680  1.0000
  H   H10       1.0  0.94060  0.46240  0.19320  1.0000
  C   C15       1.0  0.79530  0.50610  0.76369  1.0000
  C   C16       1.0  0.20470  0.49390  0.23631  1.0000
  C   C17       1.0  0.00800  0.26700  0.47180  1.0000
  C   C18       1.0  0.99200  0.73300  0.52820  1.0000
  C   C19       1.0  0.95730  0.23270  0.38652  1.0000
  C   C20       1.0  0.04270  0.76730  0.61348  1.0000
  C   C21       1.0  0.82130  0.21560  0.35480  1.0000
  C   C22       1.0  0.17870  0.78440  0.64520  1.0000
  H   H11       1.0  0.75760  0.22890  0.38650  1.0000
  H   H12       1.0  0.24240  0.77110  0.61350  1.0000
  C   C23       1.0  0.78170  0.17830  0.27470  1.0000
  C   C24       1.0  0.21830  0.82170  0.72530  1.0000
  H   H13       1.0  0.69130  0.16770  0.25320  1.0000
  H   H14       1.0  0.30870  0.83230  0.74680  1.0000
  C   C25       1.0  0.87530  0.15720  0.22764  1.0000
  C   C26       1.0  0.12470  0.84280  0.77236  1.0000
  C   C27       1.0  0.01160  0.17620  0.25981  1.0000
  C   C28       1.0  0.98840  0.82380  0.74019  1.0000
  H   H15       1.0  0.07520  0.16420  0.22800  1.0000
  H   H16       1.0  0.92480  0.83580  0.77200  1.0000
  C   C29       1.0  0.05150  0.21250  0.33808  1.0000
  C   C30       1.0  0.94850  0.78750  0.66192  1.0000
  H   H17       1.0  0.14220  0.22380  0.35910  1.0000
  H   H18       1.0  0.85780  0.77620  0.64090  1.0000
  C   C31       1.0  0.83520  0.10720  0.14253  1.0000
  C   C32       1.0  0.16480  0.89280  0.85747  1.0000
  C   C33       1.0  0.68700  0.13520  0.02761  1.0000
  C   C34       1.0  0.31300  0.86480  0.97239  1.0000
  C   C35       1.0  0.65380  0.23720  0.99125  1.0000
  C   C36       1.0  0.34620  0.76280  0.00875  1.0000
  H   H19       1.0  0.66710  0.32500  0.01920  1.0000
  H   H20       1.0  0.33290  0.67500  0.98080  1.0000
  C   C37       1.0  0.60060  0.20750  0.91286  1.0000
  C   C38       1.0  0.39940  0.79250  0.08714  1.0000
  C   C39       1.0  0.57970  0.07550  0.87099  1.0000
  C   C40       1.0  0.42030  0.92450  0.12901  1.0000
  H   H21       1.0  0.54460  0.05580  0.81870  1.0000
  H   H22       1.0  0.45540  0.94420  0.18130  1.0000
  C   C41       1.0  0.61160  0.97320  0.90760  1.0000
  C   C42       1.0  0.38840  0.02680  0.09240  1.0000
  C   C43       1.0  0.66420  0.00400  0.98617  1.0000
  C   C44       1.0  0.33580  0.99600  0.01383  1.0000
  H   H23       1.0  0.68410  0.93590  0.01100  1.0000
  H   H24       1.0  0.31590  0.06410  0.98900  1.0000
  C   C45       1.0  0.58780  0.82960  0.86465  1.0000
  C   C46       1.0  0.41220  0.17040  0.13535  1.0000
  C   C47       1.0  0.56910  0.31920  0.87311  1.0000
  C   C48       1.0  0.43090  0.68080  0.12689  1.0000
