data_image0
_chemical_formula_structural       Zn4O22H4C6H2C2H2C6H2C6H2C4H2C4H2C6H2C2H2C4H2C6
_chemical_formula_sum              "Zn4 O22 H22 C46"
_cell_length_a       12.252
_cell_length_b       12.82
_cell_length_c       13.635
_cell_angle_alpha    65.009
_cell_angle_beta     79.056
_cell_angle_gamma    79.551

_space_group_name_H-M_alt    "P 1"
_space_group_IT_number       1

loop_
  _space_group_symop_operation_xyz
  'x, y, z'

loop_
  _atom_site_type_symbol
  _atom_site_label
  _atom_site_symmetry_multiplicity
  _atom_site_fract_x
  _atom_site_fract_y
  _atom_site_fract_z
  _atom_site_occupancy
  Zn  Zn1       1.0  0.54116  0.92546  0.88630  1.0000
  Zn  Zn2       1.0  0.45884  0.07454  0.11370  1.0000
  Zn  Zn3       1.0  0.08889  0.53397  0.53935  1.0000
  Zn  Zn4       1.0  0.91111  0.46603  0.46065  1.0000
  O   O1        1.0  0.40420  0.85560  0.91870  1.0000
  O   O2        1.0  0.59580  0.14440  0.08130  1.0000
  O   O3        1.0  0.44170  0.68800  0.05810  1.0000
  O   O4        1.0  0.55830  0.31200  0.94190  1.0000
  O   O5        1.0  0.12150  0.61900  0.37400  1.0000
  O   O6        1.0  0.87850  0.38100  0.62600  1.0000
  O   O7        1.0  0.98880  0.57130  0.31510  1.0000
  O   O8        1.0  0.01120  0.42870  0.68490  1.0000
  O   O9        1.0  0.64880  0.87840  0.98770  1.0000
  O   O10       1.0  0.35120  0.12160  0.01230  1.0000
  O   O11       1.0  0.52270  0.91670  0.11270  1.0000
  O   O12       1.0  0.47730  0.08330  0.88730  1.0000
  O   O13       1.0  0.58900  0.97530  0.72750  1.0000
  O   O14       1.0  0.41100  0.02470  0.27250  1.0000
  O   O15       1.0  0.67030  0.79990  0.80570  1.0000
  O   O16       1.0  0.32970  0.20010  0.19430  1.0000
  O   O17       1.0  0.83370  0.61310  0.47750  1.0000
  O   O18       1.0  0.16630  0.38690  0.52250  1.0000
  O   O19       1.0  0.96490  0.66480  0.53660  1.0000
  O   O20       1.0  0.03510  0.33520  0.46340  1.0000
  O   O21       1.0  0.20810  0.57930  0.58550  1.0000
  O   O22       1.0  0.79190  0.42070  0.41450  1.0000
  H   H1        1.0  0.22650  0.62360  0.51670  1.0000
  H   H2        1.0  0.77350  0.37640  0.48330  1.0000
  H   H3        1.0  0.22960  0.50550  0.61370  1.0000
  H   H4        1.0  0.77040  0.49450  0.38630  1.0000
  C   C1        1.0  0.37770  0.77100  0.00220  1.0000
  C   C2        1.0  0.62230  0.22900  0.99780  1.0000
  C   C3        1.0  0.25340  0.77100  0.04300  1.0000
  C   C4        1.0  0.74660  0.22900  0.95700  1.0000
  C   C5        1.0  0.17980  0.85610  0.97290  1.0000
  C   C6        1.0  0.82020  0.14390  0.02710  1.0000
  H   H5        1.0  0.20600  0.90680  0.90120  1.0000
  H   H6        1.0  0.79400  0.09320  0.09880  1.0000
  C   C7        1.0  0.06580  0.86140  0.01520  1.0000
  C   C8        1.0  0.93420  0.13860  0.98480  1.0000
  H   H7        1.0  0.01330  0.91300  0.96850  1.0000
  H   H8        1.0  0.98670  0.08700  0.03150  1.0000
  C   C9        1.0  0.02730  0.79450  0.12180  1.0000
  C   C10       1.0  0.97270  0.20550  0.87820  1.0000
  C   C11       1.0  0.10290  0.70880  0.18790  1.0000
  C   C12       1.0  0.89710  0.29120  0.81210  1.0000
  C   C13       1.0  0.21490  0.69930  0.14620  1.0000
  C   C14       1.0  0.78510  0.30070  0.85380  1.0000
  H   H9        1.0  0.26600  0.64160  0.19050  1.0000
  H   H10       1.0  0.73400  0.35840  0.80950  1.0000
  C   C15       1.0  0.06660  0.62680  0.30230  1.0000
  C   C16       1.0  0.93340  0.37320  0.69770  1.0000
  C   C17       1.0  0.90820  0.81780  0.16700  1.0000
  C   C18       1.0  0.09180  0.18220  0.83300  1.0000
  C   C19       1.0  0.82260  0.83770  0.10450  1.0000
  C   C20       1.0  0.17740  0.16230  0.89550  1.0000
  H   H11       1.0  0.83850  0.83140  0.03610  1.0000
  H   H12       1.0  0.16150  0.16860  0.96390  1.0000
  C   C21       1.0  0.71460  0.86670  0.14410  1.0000
  C   C22       1.0  0.28540  0.13330  0.85590  1.0000
  C   C23       1.0  0.69010  0.87430  0.24400  1.0000
  C   C24       1.0  0.30990  0.12570  0.75600  1.0000
  H   H13       1.0  0.61480  0.89340  0.26990  1.0000
  H   H14       1.0  0.38520  0.10660  0.73010  1.0000
  C   C25       1.0  0.77430  0.85410  0.30720  1.0000
  C   C26       1.0  0.22570  0.14590  0.69280  1.0000
  C   C27       1.0  0.88320  0.82870  0.26480  1.0000
  C   C28       1.0  0.11680  0.17130  0.73520  1.0000
  H   H15       1.0  0.94250  0.81850  0.30500  1.0000
  H   H16       1.0  0.05750  0.18150  0.69500  1.0000
  C   C29       1.0  0.62070  0.89020  0.07980  1.0000
  C   C30       1.0  0.37930  0.10980  0.92020  1.0000
  C   C31       1.0  0.74870  0.86590  0.41250  1.0000
  C   C32       1.0  0.25130  0.13410  0.58750  1.0000
  C   C33       1.0  0.67470  0.95650  0.42060  1.0000
  C   C34       1.0  0.32530  0.04350  0.57940  1.0000
  H   H17       1.0  0.64420  0.01340  0.35760  1.0000
  H   H18       1.0  0.35580  0.98660  0.64240  1.0000
  C   C35       1.0  0.64340  0.96600  0.52130  1.0000
  C   C36       1.0  0.35660  0.03400  0.47870  1.0000
  H   H19       1.0  0.59140  0.02880  0.52620  1.0000
  H   H20       1.0  0.40860  0.97120  0.47380  1.0000
  C   C37       1.0  0.68800  0.88420  0.61350  1.0000
  C   C38       1.0  0.31200  0.11580  0.38650  1.0000
  C   C39       1.0  0.76680  0.79470  0.60410  1.0000
  C   C40       1.0  0.23320  0.20530  0.39590  1.0000
  H   H21       1.0  0.80070  0.74060  0.66620  1.0000
  H   H22       1.0  0.19930  0.25940  0.33380  1.0000
  C   C41       1.0  0.79620  0.78350  0.50560  1.0000
  C   C42       1.0  0.20380  0.21650  0.49440  1.0000
  C   C43       1.0  0.87000  0.67890  0.50590  1.0000
  C   C44       1.0  0.13000  0.32110  0.49410  1.0000
  C   C45       1.0  0.64750  0.88720  0.72490  1.0000
  C   C46       1.0  0.35250  0.11280  0.27510  1.0000
