data_image0
_chemical_formula_structural       Zr4O48C24
_chemical_formula_sum              "Zr4 O48 C24"
_cell_length_a       9.5936
_cell_length_b       11.3569
_cell_length_c       13.9792
_cell_angle_alpha    90
_cell_angle_beta     108.023
_cell_angle_gamma    90

_space_group_name_H-M_alt    "P 1"
_space_group_IT_number       1

loop_
  _space_group_symop_operation_xyz
  'x, y, z'

loop_
  _atom_site_type_symbol
  _atom_site_label
  _atom_site_symmetry_multiplicity
  _atom_site_fract_x
  _atom_site_fract_y
  _atom_site_fract_z
  _atom_site_occupancy
  Zr  Zr1       1.0  0.40531  0.61472  0.23939  1.0000
  Zr  Zr2       1.0  0.59469  0.11472  0.26061  1.0000
  Zr  Zr3       1.0  0.59469  0.38528  0.76061  1.0000
  Zr  Zr4       1.0  0.40531  0.88528  0.73939  1.0000
  O   O1        1.0  0.60770  0.49360  0.26360  1.0000
  O   O2        1.0  0.39230  0.99360  0.23640  1.0000
  O   O3        1.0  0.39230  0.50640  0.73640  1.0000
  O   O4        1.0  0.60770  0.00640  0.76360  1.0000
  O   O5        1.0  0.67640  0.30250  0.27520  1.0000
  O   O6        1.0  0.32360  0.80250  0.22480  1.0000
  O   O7        1.0  0.32360  0.69750  0.72480  1.0000
  O   O8        1.0  0.67640  0.19750  0.77520  1.0000
  O   O9        1.0  0.33470  0.42770  0.23140  1.0000
  O   O10       1.0  0.66530  0.92770  0.26860  1.0000
  O   O11       1.0  0.66530  0.57230  0.76860  1.0000
  O   O12       1.0  0.33470  0.07230  0.73140  1.0000
  O   O13       1.0  0.40560  0.23900  0.24810  1.0000
  O   O14       1.0  0.59440  0.73900  0.25190  1.0000
  O   O15       1.0  0.59440  0.76100  0.75190  1.0000
  O   O16       1.0  0.40560  0.26100  0.74810  1.0000
  O   O17       1.0  0.24960  0.61160  0.32320  1.0000
  O   O18       1.0  0.75040  0.11160  0.17680  1.0000
  O   O19       1.0  0.75040  0.38840  0.67680  1.0000
  O   O20       1.0  0.24960  0.88840  0.82320  1.0000
  O   O21       1.0  0.21420  0.60730  0.47410  1.0000
  O   O22       1.0  0.78580  0.10730  0.02590  1.0000
  O   O23       1.0  0.78580  0.39270  0.52590  1.0000
  O   O24       1.0  0.21420  0.89270  0.97410  1.0000
  O   O25       1.0  0.52410  0.62830  0.39550  1.0000
  O   O26       1.0  0.47590  0.12830  0.10450  1.0000
  O   O27       1.0  0.47590  0.37170  0.60450  1.0000
  O   O28       1.0  0.52410  0.87170  0.89550  1.0000
  O   O29       1.0  0.52420  0.63610  0.55470  1.0000
  O   O30       1.0  0.47580  0.13610  0.94530  1.0000
  O   O31       1.0  0.47580  0.36390  0.44530  1.0000
  O   O32       1.0  0.52420  0.86390  0.05470  1.0000
  O   O33       1.0  0.18690  0.61490  0.12800  1.0000
  O   O34       1.0  0.81310  0.11490  0.37200  1.0000
  O   O35       1.0  0.81310  0.38510  0.87200  1.0000
  O   O36       1.0  0.18690  0.88510  0.62800  1.0000
  O   O37       1.0  0.06190  0.62090  0.96420  1.0000
  O   O38       1.0  0.93810  0.12090  0.53580  1.0000
  O   O39       1.0  0.93810  0.37910  0.03580  1.0000
  O   O40       1.0  0.06190  0.87910  0.46420  1.0000
  O   O41       1.0  0.43490  0.60680  0.09510  1.0000
  O   O42       1.0  0.56510  0.10680  0.40490  1.0000
  O   O43       1.0  0.56510  0.39320  0.90490  1.0000
  O   O44       1.0  0.43490  0.89320  0.59510  1.0000
  O   O45       1.0  0.33120  0.62380  0.92850  1.0000
  O   O46       1.0  0.66880  0.12380  0.57150  1.0000
  O   O47       1.0  0.66880  0.37620  0.07150  1.0000
  O   O48       1.0  0.33120  0.87620  0.42850  1.0000
  C   C1        1.0  0.58610  0.38600  0.26380  1.0000
  C   C2        1.0  0.41390  0.88600  0.23620  1.0000
  C   C3        1.0  0.41390  0.61400  0.73620  1.0000
  C   C4        1.0  0.58610  0.11400  0.76380  1.0000
  C   C5        1.0  0.42900  0.34700  0.24710  1.0000
  C   C6        1.0  0.57100  0.84700  0.25290  1.0000
  C   C7        1.0  0.57100  0.65300  0.75290  1.0000
  C   C8        1.0  0.42900  0.15300  0.74710  1.0000
  C   C9        1.0  0.29330  0.61420  0.42140  1.0000
  C   C10       1.0  0.70670  0.11420  0.07860  1.0000
  C   C11       1.0  0.70670  0.38580  0.57860  1.0000
  C   C12       1.0  0.29330  0.88580  0.92140  1.0000
  C   C13       1.0  0.46130  0.62750  0.46480  1.0000
  C   C14       1.0  0.53870  0.12750  0.03520  1.0000
  C   C15       1.0  0.53870  0.37250  0.53520  1.0000
  C   C16       1.0  0.46130  0.87250  0.96480  1.0000
  C   C17       1.0  0.17620  0.61750  0.03430  1.0000
  C   C18       1.0  0.82380  0.11750  0.46570  1.0000
  C   C19       1.0  0.82380  0.38250  0.96570  1.0000
  C   C20       1.0  0.17620  0.88250  0.53430  1.0000
  C   C21       1.0  0.32530  0.61630  0.01350  1.0000
  C   C22       1.0  0.67470  0.11630  0.48650  1.0000
  C   C23       1.0  0.67470  0.38370  0.98650  1.0000
  C   C24       1.0  0.32530  0.88370  0.51350  1.0000
