data_image0
_chemical_formula_structural       Er4O4H8O4C4O4C4H4O4C4H4O4C4O4C4O4C4H4O4C4H4O4C4H4C4H4C20H4C4H4C12H4C4H4C4H4C4H4C12
_chemical_formula_sum              "Er4 O36 H56 C96"
_cell_length_a       11.7276
_cell_length_b       15.693
_cell_length_c       15.2043
_cell_angle_alpha    90
_cell_angle_beta     105.308
_cell_angle_gamma    90

_space_group_name_H-M_alt    "P 1"
_space_group_IT_number       1

loop_
  _space_group_symop_operation_xyz
  'x, y, z'

loop_
  _atom_site_type_symbol
  _atom_site_label
  _atom_site_symmetry_multiplicity
  _atom_site_fract_x
  _atom_site_fract_y
  _atom_site_fract_z
  _atom_site_occupancy
  Er  Er1       1.0  0.80970  0.01630  0.46284  1.0000
  Er  Er2       1.0  0.19030  0.51630  0.03716  1.0000
  Er  Er3       1.0  0.19030  0.98370  0.53716  1.0000
  Er  Er4       1.0  0.80970  0.48370  0.96284  1.0000
  O   O1        1.0  0.67350  0.02817  0.55612  1.0000
  O   O2        1.0  0.32650  0.52817  0.94388  1.0000
  O   O3        1.0  0.32650  0.97183  0.44388  1.0000
  O   O4        1.0  0.67350  0.47183  0.05612  1.0000
  H   H1        1.0  0.61910  0.98900  0.54300  1.0000
  H   H2        1.0  0.38090  0.48900  0.95700  1.0000
  H   H3        1.0  0.38090  0.01100  0.45700  1.0000
  H   H4        1.0  0.61910  0.51100  0.04300  1.0000
  H   H5        1.0  0.63640  0.07340  0.54600  1.0000
  H   H6        1.0  0.36360  0.57340  0.95400  1.0000
  H   H7        1.0  0.36360  0.92660  0.45400  1.0000
  H   H8        1.0  0.63640  0.42660  0.04600  1.0000
  O   O5        1.0  0.66920  0.90952  0.41573  1.0000
  O   O6        1.0  0.33080  0.40952  0.08427  1.0000
  O   O7        1.0  0.33080  0.09048  0.58427  1.0000
  O   O8        1.0  0.66920  0.59048  0.91573  1.0000
  C   C1        1.0  0.52550  0.80660  0.35930  1.0000
  C   C2        1.0  0.47450  0.30660  0.14070  1.0000
  C   C3        1.0  0.47450  0.19340  0.64070  1.0000
  C   C4        1.0  0.52550  0.69340  0.85930  1.0000
  O   O9        1.0  0.54810  0.87803  0.50055  1.0000
  O   O10       1.0  0.45190  0.37803  0.99945  1.0000
  O   O11       1.0  0.45190  0.12197  0.49945  1.0000
  O   O12       1.0  0.54810  0.62197  0.00055  1.0000
  C   C5        1.0  0.42390  0.82910  0.29520  1.0000
  C   C6        1.0  0.57610  0.32910  0.20480  1.0000
  C   C7        1.0  0.57610  0.17090  0.70480  1.0000
  C   C8        1.0  0.42390  0.67090  0.79520  1.0000
  H   H9        1.0  0.39240  0.88330  0.29630  1.0000
  H   H10       1.0  0.60760  0.38330  0.20370  1.0000
  H   H11       1.0  0.60760  0.11670  0.70370  1.0000
  H   H12       1.0  0.39240  0.61670  0.79630  1.0000
  O   O13       1.0  0.30120  0.65123  0.07511  1.0000
  O   O14       1.0  0.69880  0.15123  0.42489  1.0000
  O   O15       1.0  0.69880  0.34877  0.92489  1.0000
  O   O16       1.0  0.30120  0.84877  0.57511  1.0000
  C   C9        1.0  0.36730  0.77070  0.22800  1.0000
  C   C10       1.0  0.63270  0.27070  0.27200  1.0000
  C   C11       1.0  0.63270  0.22930  0.77200  1.0000
  C   C12       1.0  0.36730  0.72930  0.72800  1.0000
  H   H13       1.0  0.30060  0.78780  0.18330  1.0000
  H   H14       1.0  0.69940  0.28780  0.31670  1.0000
  H   H15       1.0  0.69940  0.21220  0.81670  1.0000
  H   H16       1.0  0.30060  0.71220  0.68330  1.0000
  O   O17       1.0  0.31470  0.55604  0.18268  1.0000
  O   O18       1.0  0.68530  0.05604  0.31732  1.0000
  O   O19       1.0  0.68530  0.44396  0.81732  1.0000
  O   O20       1.0  0.31470  0.94396  0.68268  1.0000
  C   C13       1.0  0.40820  0.68930  0.22670  1.0000
  C   C14       1.0  0.59180  0.18930  0.27330  1.0000
  C   C15       1.0  0.59180  0.31070  0.77330  1.0000
  C   C16       1.0  0.40820  0.81070  0.72670  1.0000
  O   O21       1.0  0.08590  0.89942  0.42072  1.0000
  O   O22       1.0  0.91410  0.39942  0.07928  1.0000
  O   O23       1.0  0.91410  0.10058  0.57928  1.0000
  O   O24       1.0  0.08590  0.60058  0.92072  1.0000
  C   C17       1.0  0.51340  0.66330  0.29250  1.0000
  C   C18       1.0  0.48660  0.16330  0.20750  1.0000
  C   C19       1.0  0.48660  0.33670  0.70750  1.0000
  C   C20       1.0  0.51340  0.83670  0.79250  1.0000
  O   O25       1.0  0.89430  0.92078  0.38540  1.0000
  O   O26       1.0  0.10570  0.42078  0.11460  1.0000
  O   O27       1.0  0.10570  0.07922  0.61460  1.0000
  O   O28       1.0  0.89430  0.57922  0.88540  1.0000
  C   C21       1.0  0.56180  0.58010  0.29520  1.0000
  C   C22       1.0  0.43820  0.08010  0.20480  1.0000
  C   C23       1.0  0.43820  0.41990  0.70480  1.0000
  C   C24       1.0  0.56180  0.91990  0.79520  1.0000
  H   H17       1.0  0.52530  0.54040  0.25140  1.0000
  H   H18       1.0  0.47470  0.04040  0.24860  1.0000
  H   H19       1.0  0.47470  0.45960  0.74860  1.0000
  H   H20       1.0  0.52530  0.95960  0.75140  1.0000
  O   O29       1.0  0.87770  0.58125  0.07556  1.0000
  O   O30       1.0  0.12230  0.08125  0.42444  1.0000
  O   O31       1.0  0.12230  0.41875  0.92444  1.0000
  O   O32       1.0  0.87770  0.91875  0.57556  1.0000
  C   C25       1.0  0.66020  0.55740  0.36040  1.0000
  C   C26       1.0  0.33980  0.05740  0.13960  1.0000
  C   C27       1.0  0.33980  0.44260  0.63960  1.0000
  C   C28       1.0  0.66020  0.94260  0.86040  1.0000
  H   H21       1.0  0.68830  0.50180  0.36190  1.0000
  H   H22       1.0  0.31170  0.00180  0.13810  1.0000
  H   H23       1.0  0.31170  0.49820  0.63810  1.0000
  H   H24       1.0  0.68830  0.99820  0.86190  1.0000
  O   O33       1.0  0.06880  0.59804  0.09920  1.0000
  O   O34       1.0  0.93120  0.09804  0.40080  1.0000
  O   O35       1.0  0.93120  0.40196  0.90080  1.0000
  O   O36       1.0  0.06880  0.90196  0.59920  1.0000
  C   C29       1.0  0.72080  0.61680  0.42610  1.0000
  C   C30       1.0  0.27920  0.11680  0.07390  1.0000
  C   C31       1.0  0.27920  0.38320  0.57390  1.0000
  C   C32       1.0  0.72080  0.88320  0.92610  1.0000
  H   H25       1.0  0.78850  0.60090  0.47040  1.0000
  H   H26       1.0  0.21150  0.10090  0.02960  1.0000
  H   H27       1.0  0.21150  0.39910  0.52960  1.0000
  H   H28       1.0  0.78850  0.89910  0.97040  1.0000
  C   C33       1.0  0.67850  0.69700  0.42330  1.0000
  C   C34       1.0  0.32150  0.19700  0.07670  1.0000
  C   C35       1.0  0.32150  0.30300  0.57670  1.0000
  C   C36       1.0  0.67850  0.80300  0.92330  1.0000
  H   H29       1.0  0.72020  0.73670  0.46500  1.0000
  H   H30       1.0  0.27980  0.23670  0.03500  1.0000
  H   H31       1.0  0.27980  0.26330  0.53500  1.0000
  H   H32       1.0  0.72020  0.76330  0.96500  1.0000
  C   C37       1.0  0.57360  0.72320  0.35960  1.0000
  C   C38       1.0  0.42640  0.22320  0.14040  1.0000
  C   C39       1.0  0.42640  0.27680  0.64040  1.0000
  C   C40       1.0  0.57360  0.77680  0.85960  1.0000
  C   C41       1.0  0.58630  0.86980  0.43100  1.0000
  C   C42       1.0  0.41370  0.36980  0.06900  1.0000
  C   C43       1.0  0.41370  0.13020  0.56900  1.0000
  C   C44       1.0  0.58630  0.63020  0.93100  1.0000
  C   C45       1.0  0.33720  0.62860  0.15730  1.0000
  C   C46       1.0  0.66280  0.12860  0.34270  1.0000
  C   C47       1.0  0.66280  0.37140  0.84270  1.0000
  C   C48       1.0  0.33720  0.87140  0.65730  1.0000
  C   C49       1.0  0.96990  0.81910  0.30130  1.0000
  C   C50       1.0  0.03010  0.31910  0.19870  1.0000
  C   C51       1.0  0.03010  0.18090  0.69870  1.0000
  C   C52       1.0  0.96990  0.68090  0.80130  1.0000
  C   C53       1.0  0.93040  0.74060  0.31420  1.0000
  C   C54       1.0  0.06960  0.24060  0.18580  1.0000
  C   C55       1.0  0.06960  0.25940  0.68580  1.0000
  C   C56       1.0  0.93040  0.75940  0.81420  1.0000
  H   H33       1.0  0.90520  0.72930  0.36610  1.0000
  H   H34       1.0  0.09480  0.22930  0.13390  1.0000
  H   H35       1.0  0.09480  0.27070  0.63390  1.0000
  H   H36       1.0  0.90520  0.77070  0.86610  1.0000
  C   C57       1.0  0.92710  0.67520  0.24950  1.0000
  C   C58       1.0  0.07290  0.17520  0.25050  1.0000
  C   C59       1.0  0.07290  0.32480  0.75050  1.0000
  C   C60       1.0  0.92710  0.82480  0.74950  1.0000
  H   H37       1.0  0.89680  0.62190  0.25790  1.0000
  H   H38       1.0  0.10320  0.12190  0.24210  1.0000
  H   H39       1.0  0.10320  0.37810  0.74210  1.0000
  H   H40       1.0  0.89680  0.87810  0.75790  1.0000
  C   C61       1.0  0.96840  0.69000  0.17450  1.0000
  C   C62       1.0  0.03160  0.19000  0.32550  1.0000
  C   C63       1.0  0.03160  0.31000  0.82550  1.0000
  C   C64       1.0  0.96840  0.81000  0.67450  1.0000
  C   C65       1.0  0.00670  0.77340  0.15670  1.0000
  C   C66       1.0  0.99330  0.27340  0.34330  1.0000
  C   C67       1.0  0.99330  0.22660  0.84330  1.0000
  C   C68       1.0  0.00670  0.72660  0.65670  1.0000
  C   C69       1.0  0.03990  0.79400  0.07730  1.0000
  C   C70       1.0  0.96010  0.29400  0.42270  1.0000
  C   C71       1.0  0.96010  0.20600  0.92270  1.0000
  C   C72       1.0  0.03990  0.70600  0.57730  1.0000
  H   H41       1.0  0.04300  0.75130  0.03550  1.0000
  H   H42       1.0  0.95700  0.25130  0.46450  1.0000
  H   H43       1.0  0.95700  0.24870  0.96450  1.0000
  H   H44       1.0  0.04300  0.74870  0.53550  1.0000
  C   C73       1.0  0.06770  0.87540  0.06030  1.0000
  C   C74       1.0  0.93230  0.37540  0.43970  1.0000
  C   C75       1.0  0.93230  0.12460  0.93970  1.0000
  C   C76       1.0  0.06770  0.62460  0.56030  1.0000
  H   H45       1.0  0.08860  0.88790  0.00690  1.0000
  H   H46       1.0  0.91140  0.38790  0.49310  1.0000
  H   H47       1.0  0.91140  0.11210  0.99310  1.0000
  H   H48       1.0  0.08860  0.61210  0.50690  1.0000
  C   C77       1.0  0.06510  0.94010  0.12230  1.0000
  C   C78       1.0  0.93490  0.44010  0.37770  1.0000
  C   C79       1.0  0.93490  0.05990  0.87770  1.0000
  C   C80       1.0  0.06510  0.55990  0.62230  1.0000
  H   H49       1.0  0.08280  0.99570  0.10950  1.0000
  H   H50       1.0  0.91720  0.49570  0.39050  1.0000
  H   H51       1.0  0.91720  0.00430  0.89050  1.0000
  H   H52       1.0  0.08280  0.50430  0.60950  1.0000
  C   C81       1.0  0.03650  0.92220  0.20170  1.0000
  C   C82       1.0  0.96350  0.42220  0.29830  1.0000
  C   C83       1.0  0.96350  0.07780  0.79830  1.0000
  C   C84       1.0  0.03650  0.57780  0.70170  1.0000
  H   H53       1.0  0.03750  0.96560  0.24350  1.0000
  H   H54       1.0  0.96250  0.46560  0.25650  1.0000
  H   H55       1.0  0.96250  0.03440  0.75650  1.0000
  H   H56       1.0  0.03750  0.53440  0.74350  1.0000
  C   C85       1.0  0.00560  0.83890  0.22130  1.0000
  C   C86       1.0  0.99440  0.33890  0.27870  1.0000
  C   C87       1.0  0.99440  0.16110  0.77870  1.0000
  C   C88       1.0  0.00560  0.66110  0.72130  1.0000
  C   C89       1.0  0.98340  0.88630  0.37550  1.0000
  C   C90       1.0  0.01660  0.38630  0.12450  1.0000
  C   C91       1.0  0.01660  0.11370  0.62450  1.0000
  C   C92       1.0  0.98340  0.61370  0.87550  1.0000
  C   C93       1.0  0.97240  0.61720  0.11070  1.0000
  C   C94       1.0  0.02760  0.11720  0.38930  1.0000
  C   C95       1.0  0.02760  0.38280  0.88930  1.0000
  C   C96       1.0  0.97240  0.88280  0.61070  1.0000
