data_image0
_chemical_formula_structural       Dy4O4H8C4O8C4H4C4H4O8C4O4C4O4C4H4O4C4H4O4C4H4C4H4C20H4C4H4C12H4C4H4C4H4C4H4C12
_chemical_formula_sum              "Dy4 O36 H56 C96"
_cell_length_a       11.7439
_cell_length_b       15.7292
_cell_length_c       15.2552
_cell_angle_alpha    90
_cell_angle_beta     105.169
_cell_angle_gamma    90

_space_group_name_H-M_alt    "P 1"
_space_group_IT_number       1

loop_
  _space_group_symop_operation_xyz
  'x, y, z'

loop_
  _atom_site_type_symbol
  _atom_site_label
  _atom_site_symmetry_multiplicity
  _atom_site_fract_x
  _atom_site_fract_y
  _atom_site_fract_z
  _atom_site_occupancy
  Dy  Dy1       1.0  0.80947  0.51629  0.96292  1.0000
  Dy  Dy2       1.0  0.19053  0.01629  0.53708  1.0000
  Dy  Dy3       1.0  0.19053  0.48371  0.03708  1.0000
  Dy  Dy4       1.0  0.80947  0.98371  0.46292  1.0000
  O   O1        1.0  0.67000  0.52824  0.05516  1.0000
  O   O2        1.0  0.33000  0.02824  0.44484  1.0000
  O   O3        1.0  0.33000  0.47176  0.94484  1.0000
  O   O4        1.0  0.67000  0.97176  0.55516  1.0000
  H   H1        1.0  0.63250  0.48750  0.06760  1.0000
  H   H2        1.0  0.36750  0.98750  0.43240  1.0000
  H   H3        1.0  0.36750  0.51250  0.93240  1.0000
  H   H4        1.0  0.63250  0.01250  0.56760  1.0000
  H   H5        1.0  0.69400  0.55940  0.09470  1.0000
  H   H6        1.0  0.30600  0.05940  0.40530  1.0000
  H   H7        1.0  0.30600  0.44060  0.90530  1.0000
  H   H8        1.0  0.69400  0.94060  0.59470  1.0000
  C   C1        1.0  0.52580  0.30624  0.85915  1.0000
  C   C2        1.0  0.47420  0.80624  0.64085  1.0000
  C   C3        1.0  0.47420  0.69376  0.14085  1.0000
  C   C4        1.0  0.52580  0.19376  0.35915  1.0000
  O   O5        1.0  0.66830  0.40911  0.91548  1.0000
  O   O6        1.0  0.33170  0.90911  0.58452  1.0000
  O   O7        1.0  0.33170  0.59089  0.08452  1.0000
  O   O8        1.0  0.66830  0.09089  0.41548  1.0000
  O   O9        1.0  0.54800  0.37735  0.00015  1.0000
  O   O10       1.0  0.45200  0.87735  0.49985  1.0000
  O   O11       1.0  0.45200  0.62265  0.99985  1.0000
  O   O12       1.0  0.54800  0.12265  0.50015  1.0000
  C   C5        1.0  0.42510  0.32880  0.79510  1.0000
  C   C6        1.0  0.57490  0.82880  0.70490  1.0000
  C   C7        1.0  0.57490  0.67120  0.20490  1.0000
  C   C8        1.0  0.42510  0.17120  0.29510  1.0000
  H   H9        1.0  0.39430  0.38320  0.79590  1.0000
  H   H10       1.0  0.60570  0.88320  0.70410  1.0000
  H   H11       1.0  0.60570  0.61680  0.20410  1.0000
  H   H12       1.0  0.39430  0.11680  0.29590  1.0000
  C   C9        1.0  0.36780  0.27050  0.72824  1.0000
  C   C10       1.0  0.63220  0.77050  0.77176  1.0000
  C   C11       1.0  0.63220  0.72950  0.27176  1.0000
  C   C12       1.0  0.36780  0.22950  0.22824  1.0000
  H   H13       1.0  0.30050  0.28730  0.68440  1.0000
  H   H14       1.0  0.69950  0.78730  0.81560  1.0000
  H   H15       1.0  0.69950  0.71270  0.31560  1.0000
  H   H16       1.0  0.30050  0.21270  0.18440  1.0000
  O   O13       1.0  0.30231  0.15162  0.57602  1.0000
  O   O14       1.0  0.69769  0.65162  0.92398  1.0000
  O   O15       1.0  0.69769  0.84838  0.42398  1.0000
  O   O16       1.0  0.30231  0.34838  0.07602  1.0000
  O   O17       1.0  0.31400  0.05686  0.68321  1.0000
  O   O18       1.0  0.68600  0.55686  0.81679  1.0000
  O   O19       1.0  0.68600  0.94314  0.31679  1.0000
  O   O20       1.0  0.31400  0.44314  0.18321  1.0000
  C   C13       1.0  0.40930  0.18950  0.72663  1.0000
  C   C14       1.0  0.59070  0.68950  0.77337  1.0000
  C   C15       1.0  0.59070  0.81050  0.27337  1.0000
  C   C16       1.0  0.40930  0.31050  0.22663  1.0000
  O   O21       1.0  0.08650  0.39902  0.91980  1.0000
  O   O22       1.0  0.91350  0.89902  0.58020  1.0000
  O   O23       1.0  0.91350  0.60098  0.08020  1.0000
  O   O24       1.0  0.08650  0.10098  0.41980  1.0000
  C   C17       1.0  0.51300  0.16348  0.79228  1.0000
  C   C18       1.0  0.48700  0.66348  0.70772  1.0000
  C   C19       1.0  0.48700  0.83652  0.20772  1.0000
  C   C20       1.0  0.51300  0.33652  0.29228  1.0000
  O   O25       1.0  0.89470  0.41986  0.88523  1.0000
  O   O26       1.0  0.10530  0.91986  0.61477  1.0000
  O   O27       1.0  0.10530  0.58014  0.11477  1.0000
  O   O28       1.0  0.89470  0.08014  0.38523  1.0000
  C   C21       1.0  0.56110  0.08010  0.79510  1.0000
  C   C22       1.0  0.43890  0.58010  0.70490  1.0000
  C   C23       1.0  0.43890  0.91990  0.20490  1.0000
  C   C24       1.0  0.56110  0.41990  0.29510  1.0000
  H   H17       1.0  0.52450  0.04010  0.75200  1.0000
  H   H18       1.0  0.47550  0.54010  0.74800  1.0000
  H   H19       1.0  0.47550  0.95990  0.24800  1.0000
  H   H20       1.0  0.52450  0.45990  0.25200  1.0000
  O   O29       1.0  0.06630  0.09834  0.59862  1.0000
  O   O30       1.0  0.93370  0.59834  0.90138  1.0000
  O   O31       1.0  0.93370  0.90166  0.40138  1.0000
  O   O32       1.0  0.06630  0.40166  0.09862  1.0000
  C   C25       1.0  0.65960  0.05850  0.86000  1.0000
  C   C26       1.0  0.34040  0.55850  0.64000  1.0000
  C   C27       1.0  0.34040  0.94150  0.14000  1.0000
  C   C28       1.0  0.65960  0.44150  0.36000  1.0000
  H   H21       1.0  0.68810  0.00320  0.86200  1.0000
  H   H22       1.0  0.31190  0.50320  0.63800  1.0000
  H   H23       1.0  0.31190  0.99680  0.13800  1.0000
  H   H24       1.0  0.68810  0.49680  0.36200  1.0000
  O   O33       1.0  0.87610  0.08124  0.57628  1.0000
  O   O34       1.0  0.12390  0.58124  0.92372  1.0000
  O   O35       1.0  0.12390  0.91876  0.42372  1.0000
  O   O36       1.0  0.87610  0.41876  0.07628  1.0000
  C   C29       1.0  0.71930  0.11720  0.92380  1.0000
  C   C30       1.0  0.28070  0.61720  0.57620  1.0000
  C   C31       1.0  0.28070  0.88280  0.07620  1.0000
  C   C32       1.0  0.71930  0.38280  0.42380  1.0000
  H   H25       1.0  0.78750  0.10120  0.96710  1.0000
  H   H26       1.0  0.21250  0.60120  0.53290  1.0000
  H   H27       1.0  0.21250  0.89880  0.03290  1.0000
  H   H28       1.0  0.78750  0.39880  0.46710  1.0000
  C   C33       1.0  0.67820  0.19800  0.92290  1.0000
  C   C34       1.0  0.32180  0.69800  0.57710  1.0000
  C   C35       1.0  0.32180  0.80200  0.07710  1.0000
  C   C36       1.0  0.67820  0.30200  0.42290  1.0000
  H   H29       1.0  0.71950  0.23720  0.96500  1.0000
  H   H30       1.0  0.28050  0.73720  0.53500  1.0000
  H   H31       1.0  0.28050  0.76280  0.03500  1.0000
  H   H32       1.0  0.71950  0.26280  0.46500  1.0000
  C   C37       1.0  0.57330  0.22320  0.85890  1.0000
  C   C38       1.0  0.42670  0.72320  0.64110  1.0000
  C   C39       1.0  0.42670  0.77680  0.14110  1.0000
  C   C40       1.0  0.57330  0.27680  0.35890  1.0000
  C   C41       1.0  0.58540  0.36923  0.93050  1.0000
  C   C42       1.0  0.41460  0.86923  0.56950  1.0000
  C   C43       1.0  0.41460  0.63077  0.06950  1.0000
  C   C44       1.0  0.58540  0.13077  0.43050  1.0000
  C   C45       1.0  0.33800  0.12910  0.65841  1.0000
  C   C46       1.0  0.66200  0.62910  0.84159  1.0000
  C   C47       1.0  0.66200  0.87090  0.34159  1.0000
  C   C48       1.0  0.33800  0.37090  0.15841  1.0000
  C   C49       1.0  0.97060  0.31896  0.80114  1.0000
  C   C50       1.0  0.02940  0.81896  0.69886  1.0000
  C   C51       1.0  0.02940  0.68104  0.19886  1.0000
  C   C52       1.0  0.97060  0.18104  0.30114  1.0000
  C   C53       1.0  0.93070  0.24005  0.81399  1.0000
  C   C54       1.0  0.06930  0.74005  0.68601  1.0000
  C   C55       1.0  0.06930  0.75995  0.18601  1.0000
  C   C56       1.0  0.93070  0.25995  0.31399  1.0000
  H   H33       1.0  0.90500  0.22860  0.86550  1.0000
  H   H34       1.0  0.09500  0.72860  0.63450  1.0000
  H   H35       1.0  0.09500  0.77140  0.13450  1.0000
  H   H36       1.0  0.90500  0.27140  0.36550  1.0000
  C   C57       1.0  0.92820  0.17568  0.74965  1.0000
  C   C58       1.0  0.07180  0.67568  0.75035  1.0000
  C   C59       1.0  0.07180  0.82432  0.25035  1.0000
  C   C60       1.0  0.92820  0.32432  0.24965  1.0000
  H   H37       1.0  0.89930  0.12220  0.75860  1.0000
  H   H38       1.0  0.10070  0.62220  0.74140  1.0000
  H   H39       1.0  0.10070  0.87780  0.24140  1.0000
  H   H40       1.0  0.89930  0.37780  0.25860  1.0000
  C   C61       1.0  0.96740  0.19015  0.67440  1.0000
  C   C62       1.0  0.03260  0.69015  0.82560  1.0000
  C   C63       1.0  0.03260  0.80985  0.32560  1.0000
  C   C64       1.0  0.96740  0.30985  0.17440  1.0000
  C   C65       1.0  0.00570  0.27257  0.65722  1.0000
  C   C66       1.0  0.99430  0.77257  0.84278  1.0000
  C   C67       1.0  0.99430  0.72743  0.34278  1.0000
  C   C68       1.0  0.00570  0.22743  0.15722  1.0000
  C   C69       1.0  0.03960  0.29340  0.57669  1.0000
  C   C70       1.0  0.96040  0.79340  0.92331  1.0000
  C   C71       1.0  0.96040  0.70660  0.42331  1.0000
  C   C72       1.0  0.03960  0.20660  0.07669  1.0000
  H   H41       1.0  0.04320  0.25090  0.53510  1.0000
  H   H42       1.0  0.95680  0.75090  0.96490  1.0000
  H   H43       1.0  0.95680  0.74910  0.46490  1.0000
  H   H44       1.0  0.04320  0.24910  0.03510  1.0000
  C   C73       1.0  0.06660  0.37500  0.56010  1.0000
  C   C74       1.0  0.93340  0.87500  0.93990  1.0000
  C   C75       1.0  0.93340  0.62500  0.43990  1.0000
  C   C76       1.0  0.06660  0.12500  0.06010  1.0000
  H   H45       1.0  0.08590  0.38770  0.50620  1.0000
  H   H46       1.0  0.91410  0.88770  0.99380  1.0000
  H   H47       1.0  0.91410  0.61230  0.49380  1.0000
  H   H48       1.0  0.08590  0.11230  0.00620  1.0000
  C   C77       1.0  0.06580  0.44000  0.62280  1.0000
  C   C78       1.0  0.93420  0.94000  0.87720  1.0000
  C   C79       1.0  0.93420  0.56000  0.37720  1.0000
  C   C80       1.0  0.06580  0.06000  0.12280  1.0000
  H   H49       1.0  0.08460  0.49540  0.61040  1.0000
  H   H50       1.0  0.91540  0.99540  0.88960  1.0000
  H   H51       1.0  0.91540  0.50460  0.38960  1.0000
  H   H52       1.0  0.08460  0.00460  0.11040  1.0000
  C   C81       1.0  0.03750  0.42190  0.70210  1.0000
  C   C82       1.0  0.96250  0.92190  0.79790  1.0000
  C   C83       1.0  0.96250  0.57810  0.29790  1.0000
  C   C84       1.0  0.03750  0.07810  0.20210  1.0000
  H   H53       1.0  0.03920  0.46490  0.74420  1.0000
  H   H54       1.0  0.96080  0.96490  0.75580  1.0000
  H   H55       1.0  0.96080  0.53510  0.25580  1.0000
  H   H56       1.0  0.03920  0.03510  0.24420  1.0000
  C   C85       1.0  0.00580  0.33853  0.72085  1.0000
  C   C86       1.0  0.99420  0.83853  0.77915  1.0000
  C   C87       1.0  0.99420  0.66147  0.27915  1.0000
  C   C88       1.0  0.00580  0.16147  0.22085  1.0000
  C   C89       1.0  0.98400  0.38557  0.87505  1.0000
  C   C90       1.0  0.01600  0.88557  0.62495  1.0000
  C   C91       1.0  0.01600  0.61443  0.12495  1.0000
  C   C92       1.0  0.98400  0.11443  0.37505  1.0000
  C   C93       1.0  0.97120  0.11754  0.61122  1.0000
  C   C94       1.0  0.02880  0.61754  0.88878  1.0000
  C   C95       1.0  0.02880  0.88246  0.38878  1.0000
  C   C96       1.0  0.97120  0.38246  0.11122  1.0000
