data_image0
_chemical_formula_structural       Eu4O4H8C4O8C4H4C4H4O8C8O8C4H4O4C4H4O4C4H4C4H4C20H4C4H4C12H4C4H4C4H4C4H4C12
_chemical_formula_sum              "Eu4 O36 H56 C96"
_cell_length_a       11.7225
_cell_length_b       15.7466
_cell_length_c       15.4261
_cell_angle_alpha    90
_cell_angle_beta     104.63
_cell_angle_gamma    90

_space_group_name_H-M_alt    "P 1"
_space_group_IT_number       1

loop_
  _space_group_symop_operation_xyz
  'x, y, z'

loop_
  _atom_site_type_symbol
  _atom_site_label
  _atom_site_symmetry_multiplicity
  _atom_site_fract_x
  _atom_site_fract_y
  _atom_site_fract_z
  _atom_site_occupancy
  Eu  Eu1       1.0  0.18937  0.01593  0.53739  1.0000
  Eu  Eu2       1.0  0.81063  0.51593  0.96261  1.0000
  Eu  Eu3       1.0  0.81063  0.98407  0.46261  1.0000
  Eu  Eu4       1.0  0.18937  0.48407  0.03739  1.0000
  O   O1        1.0  0.33190  0.02876  0.44415  1.0000
  O   O2        1.0  0.66810  0.52876  0.05585  1.0000
  O   O3        1.0  0.66810  0.97124  0.55585  1.0000
  O   O4        1.0  0.33190  0.47124  0.94415  1.0000
  H   H1        1.0  0.36800  0.98180  0.45700  1.0000
  H   H2        1.0  0.63200  0.48180  0.04300  1.0000
  H   H3        1.0  0.63200  0.01820  0.54300  1.0000
  H   H4        1.0  0.36800  0.51820  0.95700  1.0000
  H   H5        1.0  0.38190  0.06520  0.46900  1.0000
  H   H6        1.0  0.61810  0.56520  0.03100  1.0000
  H   H7        1.0  0.61810  0.93480  0.53100  1.0000
  H   H8        1.0  0.38190  0.43480  0.96900  1.0000
  C   C1        1.0  0.59520  0.69228  0.77336  1.0000
  C   C2        1.0  0.40480  0.19228  0.72664  1.0000
  C   C3        1.0  0.40480  0.30772  0.22664  1.0000
  C   C4        1.0  0.59520  0.80772  0.27336  1.0000
  O   O5        1.0  0.69734  0.65157  0.92196  1.0000
  O   O6        1.0  0.30266  0.15157  0.57804  1.0000
  O   O7        1.0  0.30266  0.34843  0.07804  1.0000
  O   O8        1.0  0.69734  0.84843  0.42196  1.0000
  O   O9        1.0  0.69480  0.56074  0.81359  1.0000
  O   O10       1.0  0.30520  0.06074  0.68641  1.0000
  O   O11       1.0  0.30520  0.43926  0.18641  1.0000
  O   O12       1.0  0.69480  0.93926  0.31359  1.0000
  C   C5        1.0  0.63650  0.77320  0.77330  1.0000
  C   C6        1.0  0.36350  0.27320  0.72670  1.0000
  C   C7        1.0  0.36350  0.22680  0.22670  1.0000
  C   C8        1.0  0.63650  0.72680  0.27330  1.0000
  H   H9        1.0  0.70310  0.78970  0.81700  1.0000
  H   H10       1.0  0.29690  0.28970  0.68300  1.0000
  H   H11       1.0  0.29690  0.21030  0.18300  1.0000
  H   H12       1.0  0.70310  0.71030  0.31700  1.0000
  C   C9        1.0  0.57930  0.83230  0.70760  1.0000
  C   C10       1.0  0.42070  0.33230  0.79240  1.0000
  C   C11       1.0  0.42070  0.16770  0.29240  1.0000
  C   C12       1.0  0.57930  0.66770  0.20760  1.0000
  H   H13       1.0  0.60940  0.88680  0.70710  1.0000
  H   H14       1.0  0.39060  0.38680  0.79290  1.0000
  H   H15       1.0  0.39060  0.11320  0.29290  1.0000
  H   H16       1.0  0.60940  0.61320  0.20710  1.0000
  O   O13       1.0  0.33710  0.91244  0.58858  1.0000
  O   O14       1.0  0.66290  0.41244  0.91142  1.0000
  O   O15       1.0  0.66290  0.08756  0.41142  1.0000
  O   O16       1.0  0.33710  0.58756  0.08858  1.0000
  O   O17       1.0  0.45310  0.87512  0.50190  1.0000
  O   O18       1.0  0.54690  0.37512  0.99810  1.0000
  O   O19       1.0  0.54690  0.12488  0.49810  1.0000
  O   O20       1.0  0.45310  0.62488  0.00190  1.0000
  C   C13       1.0  0.47840  0.80880  0.64410  1.0000
  C   C14       1.0  0.52160  0.30880  0.85590  1.0000
  C   C15       1.0  0.52160  0.19120  0.35590  1.0000
  C   C16       1.0  0.47840  0.69120  0.14410  1.0000
  C   C17       1.0  0.43180  0.72600  0.64441  1.0000
  C   C18       1.0  0.56820  0.22600  0.85559  1.0000
  C   C19       1.0  0.56820  0.27400  0.35559  1.0000
  C   C20       1.0  0.43180  0.77400  0.14441  1.0000
  O   O21       1.0  0.94900  0.90515  0.40940  1.0000
  O   O22       1.0  0.05100  0.40515  0.09060  1.0000
  O   O23       1.0  0.05100  0.09485  0.59060  1.0000
  O   O24       1.0  0.94900  0.59485  0.90940  1.0000
  O   O25       1.0  0.13640  0.91327  0.42387  1.0000
  O   O26       1.0  0.86360  0.41327  0.07613  1.0000
  O   O27       1.0  0.86360  0.08673  0.57613  1.0000
  O   O28       1.0  0.13640  0.58673  0.92387  1.0000
  C   C21       1.0  0.32620  0.70020  0.58110  1.0000
  C   C22       1.0  0.67380  0.20020  0.91890  1.0000
  C   C23       1.0  0.67380  0.29980  0.41890  1.0000
  C   C24       1.0  0.32620  0.79980  0.08110  1.0000
  H   H17       1.0  0.28450  0.73920  0.53990  1.0000
  H   H18       1.0  0.71550  0.23920  0.96010  1.0000
  H   H19       1.0  0.71550  0.26080  0.46010  1.0000
  H   H20       1.0  0.28450  0.76080  0.03990  1.0000
  O   O29       1.0  0.91038  0.60214  0.08232  1.0000
  O   O30       1.0  0.08962  0.10214  0.41768  1.0000
  O   O31       1.0  0.08962  0.39786  0.91768  1.0000
  O   O32       1.0  0.91038  0.89786  0.58232  1.0000
  C   C25       1.0  0.28620  0.61980  0.58040  1.0000
  C   C26       1.0  0.71380  0.11980  0.91960  1.0000
  C   C27       1.0  0.71380  0.38020  0.41960  1.0000
  C   C28       1.0  0.28620  0.88020  0.08040  1.0000
  H   H21       1.0  0.21860  0.60330  0.53780  1.0000
  H   H22       1.0  0.78140  0.10330  0.96220  1.0000
  H   H23       1.0  0.78140  0.39670  0.46220  1.0000
  H   H24       1.0  0.21860  0.89670  0.03780  1.0000
  O   O33       1.0  0.10380  0.58318  0.11608  1.0000
  O   O34       1.0  0.89620  0.08318  0.38392  1.0000
  O   O35       1.0  0.89620  0.41682  0.88392  1.0000
  O   O36       1.0  0.10380  0.91682  0.61608  1.0000
  C   C29       1.0  0.34500  0.56240  0.64230  1.0000
  C   C30       1.0  0.65500  0.06240  0.85770  1.0000
  C   C31       1.0  0.65500  0.43760  0.35770  1.0000
  C   C32       1.0  0.34500  0.93760  0.14230  1.0000
  H   H25       1.0  0.31620  0.50730  0.64110  1.0000
  H   H26       1.0  0.68380  0.00730  0.85890  1.0000
  H   H27       1.0  0.68380  0.49270  0.35890  1.0000
  H   H28       1.0  0.31620  0.99270  0.14110  1.0000
  C   C33       1.0  0.44430  0.58370  0.70570  1.0000
  C   C34       1.0  0.55570  0.08370  0.79430  1.0000
  C   C35       1.0  0.55570  0.41630  0.29430  1.0000
  C   C36       1.0  0.44430  0.91630  0.20570  1.0000
  H   H29       1.0  0.48120  0.54350  0.74750  1.0000
  H   H30       1.0  0.51880  0.04350  0.75250  1.0000
  H   H31       1.0  0.51880  0.45650  0.25250  1.0000
  H   H32       1.0  0.48120  0.95650  0.24750  1.0000
  C   C37       1.0  0.49160  0.66580  0.70840  1.0000
  C   C38       1.0  0.50840  0.16580  0.79160  1.0000
  C   C39       1.0  0.50840  0.33420  0.29160  1.0000
  C   C40       1.0  0.49160  0.83420  0.20840  1.0000
  C   C41       1.0  0.66570  0.63090  0.84030  1.0000
  C   C42       1.0  0.33430  0.13090  0.65970  1.0000
  C   C43       1.0  0.33430  0.36910  0.15970  1.0000
  C   C44       1.0  0.66570  0.86910  0.34030  1.0000
  C   C45       1.0  0.41820  0.87100  0.57390  1.0000
  C   C46       1.0  0.58180  0.37100  0.92610  1.0000
  C   C47       1.0  0.58180  0.12900  0.42610  1.0000
  C   C48       1.0  0.41820  0.62900  0.07390  1.0000
  C   C49       1.0  0.03440  0.81076  0.32617  1.0000
  C   C50       1.0  0.96560  0.31076  0.17383  1.0000
  C   C51       1.0  0.96560  0.18924  0.67383  1.0000
  C   C52       1.0  0.03440  0.68924  0.82617  1.0000
  C   C53       1.0  0.07210  0.82585  0.25054  1.0000
  C   C54       1.0  0.92790  0.32585  0.24946  1.0000
  C   C55       1.0  0.92790  0.17415  0.74946  1.0000
  C   C56       1.0  0.07210  0.67415  0.75054  1.0000
  H   H33       1.0  0.10170  0.87900  0.24160  1.0000
  H   H34       1.0  0.89830  0.37900  0.25840  1.0000
  H   H35       1.0  0.89830  0.12100  0.75840  1.0000
  H   H36       1.0  0.10170  0.62100  0.74160  1.0000
  C   C57       1.0  0.06650  0.76181  0.18649  1.0000
  C   C58       1.0  0.93350  0.26181  0.31351  1.0000
  C   C59       1.0  0.93350  0.23819  0.81351  1.0000
  C   C60       1.0  0.06650  0.73819  0.68649  1.0000
  H   H37       1.0  0.09090  0.77320  0.13480  1.0000
  H   H38       1.0  0.90910  0.27320  0.36520  1.0000
  H   H39       1.0  0.90910  0.22680  0.86520  1.0000
  H   H40       1.0  0.09090  0.72680  0.63480  1.0000
  C   C61       1.0  0.02560  0.68293  0.19921  1.0000
  C   C62       1.0  0.97440  0.18293  0.30079  1.0000
  C   C63       1.0  0.97440  0.31707  0.80079  1.0000
  C   C64       1.0  0.02560  0.81707  0.69921  1.0000
  C   C65       1.0  0.99190  0.66317  0.27884  1.0000
  C   C66       1.0  0.00810  0.16317  0.22116  1.0000
  C   C67       1.0  0.00810  0.33683  0.72116  1.0000
  C   C68       1.0  0.99190  0.83683  0.77884  1.0000
  C   C69       1.0  0.95870  0.58040  0.29780  1.0000
  C   C70       1.0  0.04130  0.08040  0.20220  1.0000
  C   C71       1.0  0.04130  0.41960  0.70220  1.0000
  C   C72       1.0  0.95870  0.91960  0.79780  1.0000
  H   H41       1.0  0.95500  0.53770  0.25560  1.0000
  H   H42       1.0  0.04500  0.03770  0.24440  1.0000
  H   H43       1.0  0.04500  0.46230  0.74440  1.0000
  H   H44       1.0  0.95500  0.96230  0.75560  1.0000
  C   C73       1.0  0.93210  0.56170  0.37640  1.0000
  C   C74       1.0  0.06790  0.06170  0.12360  1.0000
  C   C75       1.0  0.06790  0.43830  0.62360  1.0000
  C   C76       1.0  0.93210  0.93830  0.87640  1.0000
  H   H45       1.0  0.91180  0.50650  0.38800  1.0000
  H   H46       1.0  0.08820  0.00650  0.11200  1.0000
  H   H47       1.0  0.08820  0.49350  0.61200  1.0000
  H   H48       1.0  0.91180  0.99350  0.88800  1.0000
  C   C77       1.0  0.93540  0.62670  0.44060  1.0000
  C   C78       1.0  0.06460  0.12670  0.05940  1.0000
  C   C79       1.0  0.06460  0.37330  0.55940  1.0000
  C   C80       1.0  0.93540  0.87330  0.94060  1.0000
  H   H49       1.0  0.91830  0.61370  0.49480  1.0000
  H   H50       1.0  0.08170  0.11370  0.00520  1.0000
  H   H51       1.0  0.08170  0.38630  0.50520  1.0000
  H   H52       1.0  0.91830  0.88630  0.99480  1.0000
  C   C81       1.0  0.96320  0.70700  0.42384  1.0000
  C   C82       1.0  0.03680  0.20700  0.07616  1.0000
  C   C83       1.0  0.03680  0.29300  0.57616  1.0000
  C   C84       1.0  0.96320  0.79300  0.92384  1.0000
  H   H53       1.0  0.96160  0.74920  0.46570  1.0000
  H   H54       1.0  0.03840  0.24920  0.03430  1.0000
  H   H55       1.0  0.03840  0.25080  0.53430  1.0000
  H   H56       1.0  0.96160  0.75080  0.96570  1.0000
  C   C85       1.0  0.99510  0.72875  0.34328  1.0000
  C   C86       1.0  0.00490  0.22875  0.15672  1.0000
  C   C87       1.0  0.00490  0.27125  0.65672  1.0000
  C   C88       1.0  0.99510  0.77125  0.84328  1.0000
  C   C89       1.0  0.03980  0.88188  0.39171  1.0000
  C   C90       1.0  0.96020  0.38188  0.10829  1.0000
  C   C91       1.0  0.96020  0.11812  0.60829  1.0000
  C   C92       1.0  0.03980  0.61812  0.89171  1.0000
  C   C93       1.0  0.01310  0.61664  0.12651  1.0000
  C   C94       1.0  0.98690  0.11664  0.37349  1.0000
  C   C95       1.0  0.98690  0.38336  0.87349  1.0000
  C   C96       1.0  0.01310  0.88336  0.62651  1.0000
