data_image0
_chemical_formula_structural       Pr4O4H8O4C4O4C4H4O4C4H4O4C4O4C4O4C4H4O4C4H4O4C4H4C4H4C20H4C4H4C12H4C4H4C4H4C4H4C12
_chemical_formula_sum              "Pr4 O36 H56 C96"
_cell_length_a       11.179
_cell_length_b       15.482
_cell_length_c       16.052
_cell_angle_alpha    90
_cell_angle_beta     103.943
_cell_angle_gamma    90

_space_group_name_H-M_alt    "P 1"
_space_group_IT_number       1

loop_
  _space_group_symop_operation_xyz
  'x, y, z'

loop_
  _atom_site_type_symbol
  _atom_site_label
  _atom_site_symmetry_multiplicity
  _atom_site_fract_x
  _atom_site_fract_y
  _atom_site_fract_z
  _atom_site_occupancy
  Pr  Pr1       1.0  0.81652  0.48349  0.45985  1.0000
  Pr  Pr2       1.0  0.18348  0.98349  0.04015  1.0000
  Pr  Pr3       1.0  0.18348  0.51651  0.54015  1.0000
  Pr  Pr4       1.0  0.81652  0.01651  0.95985  1.0000
  O   O1        1.0  0.64850  0.43450  0.53942  1.0000
  O   O2        1.0  0.35150  0.93450  0.96058  1.0000
  O   O3        1.0  0.35150  0.56550  0.46058  1.0000
  O   O4        1.0  0.64850  0.06550  0.03942  1.0000
  H   H1        1.0  0.68700  0.38920  0.54100  1.0000
  H   H2        1.0  0.31300  0.88920  0.95900  1.0000
  H   H3        1.0  0.31300  0.61080  0.45900  1.0000
  H   H4        1.0  0.68700  0.11080  0.04100  1.0000
  H   H5        1.0  0.69700  0.47340  0.56100  1.0000
  H   H6        1.0  0.30300  0.97340  0.93900  1.0000
  H   H7        1.0  0.30300  0.52660  0.43900  1.0000
  H   H8        1.0  0.69700  0.02660  0.06100  1.0000
  O   O5        1.0  0.75180  0.42193  0.29937  1.0000
  O   O6        1.0  0.24820  0.92193  0.20063  1.0000
  O   O7        1.0  0.24820  0.57807  0.70063  1.0000
  O   O8        1.0  0.75180  0.07807  0.79937  1.0000
  C   C1        1.0  0.61620  0.29890  0.26197  1.0000
  C   C2        1.0  0.38380  0.79890  0.23803  1.0000
  C   C3        1.0  0.38380  0.70110  0.73803  1.0000
  C   C4        1.0  0.61620  0.20110  0.76197  1.0000
  O   O9        1.0  0.71120  0.34520  0.40311  1.0000
  O   O10       1.0  0.28880  0.84520  0.09689  1.0000
  O   O11       1.0  0.28880  0.65480  0.59689  1.0000
  O   O12       1.0  0.71120  0.15480  0.90311  1.0000
  C   C5        1.0  0.64580  0.21380  0.26530  1.0000
  C   C6        1.0  0.35420  0.71380  0.23470  1.0000
  C   C7        1.0  0.35420  0.78620  0.73470  1.0000
  C   C8        1.0  0.64580  0.28620  0.76530  1.0000
  H   H9        1.0  0.71720  0.19440  0.30330  1.0000
  H   H10       1.0  0.28280  0.69440  0.19670  1.0000
  H   H11       1.0  0.28280  0.80560  0.69670  1.0000
  H   H12       1.0  0.71720  0.30560  0.80330  1.0000
  O   O13       1.0  0.28610  0.12822  0.04610  1.0000
  O   O14       1.0  0.71390  0.62822  0.45390  1.0000
  O   O15       1.0  0.71390  0.87178  0.95390  1.0000
  O   O16       1.0  0.28610  0.37178  0.54610  1.0000
  C   C9        1.0  0.56800  0.15480  0.21110  1.0000
  C   C10       1.0  0.43200  0.65480  0.28890  1.0000
  C   C11       1.0  0.43200  0.84520  0.78890  1.0000
  C   C12       1.0  0.56800  0.34520  0.71110  1.0000
  H   H13       1.0  0.58890  0.09650  0.21500  1.0000
  H   H14       1.0  0.41110  0.59650  0.28500  1.0000
  H   H15       1.0  0.41110  0.90350  0.78500  1.0000
  H   H16       1.0  0.58890  0.40350  0.71500  1.0000
  O   O17       1.0  0.40580  0.03280  0.12230  1.0000
  O   O18       1.0  0.59420  0.53280  0.37770  1.0000
  O   O19       1.0  0.59420  0.96720  0.87770  1.0000
  O   O20       1.0  0.40580  0.46720  0.62230  1.0000
  C   C13       1.0  0.46200  0.18010  0.15241  1.0000
  C   C14       1.0  0.53800  0.68010  0.34759  1.0000
  C   C15       1.0  0.53800  0.81990  0.84759  1.0000
  C   C16       1.0  0.46200  0.31990  0.65241  1.0000
  O   O21       1.0  0.17030  0.44608  0.38871  1.0000
  O   O22       1.0  0.82970  0.94608  0.11129  1.0000
  O   O23       1.0  0.82970  0.55392  0.61129  1.0000
  O   O24       1.0  0.17030  0.05392  0.88871  1.0000
  C   C17       1.0  0.43040  0.27020  0.14487  1.0000
  C   C18       1.0  0.56960  0.77020  0.35513  1.0000
  C   C19       1.0  0.56960  0.72980  0.85513  1.0000
  C   C20       1.0  0.43040  0.22980  0.64487  1.0000
  O   O25       1.0  0.01121  0.41497  0.44108  1.0000
  O   O26       1.0  0.98879  0.91497  0.05892  1.0000
  O   O27       1.0  0.98879  0.58503  0.55892  1.0000
  O   O28       1.0  0.01121  0.08503  0.94108  1.0000
  C   C21       1.0  0.32630  0.30340  0.08430  1.0000
  C   C22       1.0  0.67370  0.80340  0.41570  1.0000
  C   C23       1.0  0.67370  0.69660  0.91570  1.0000
  C   C24       1.0  0.32630  0.19660  0.58430  1.0000
  H   H17       1.0  0.27710  0.26620  0.04500  1.0000
  H   H18       1.0  0.72290  0.76620  0.45500  1.0000
  H   H19       1.0  0.72290  0.73380  0.95500  1.0000
  H   H20       1.0  0.27710  0.23380  0.54500  1.0000
  O   O29       1.0  0.90253  0.12037  0.07752  1.0000
  O   O30       1.0  0.09747  0.62037  0.42248  1.0000
  O   O31       1.0  0.09747  0.87963  0.92248  1.0000
  O   O32       1.0  0.90253  0.37963  0.57752  1.0000
  C   C25       1.0  0.29700  0.39030  0.08320  1.0000
  C   C26       1.0  0.70300  0.89030  0.41680  1.0000
  C   C27       1.0  0.70300  0.60970  0.91680  1.0000
  C   C28       1.0  0.29700  0.10970  0.58320  1.0000
  H   H21       1.0  0.22800  0.41090  0.04360  1.0000
  H   H22       1.0  0.77200  0.91090  0.45640  1.0000
  H   H23       1.0  0.77200  0.58910  0.95640  1.0000
  H   H24       1.0  0.22800  0.08910  0.54360  1.0000
  O   O33       1.0  0.09650  0.07907  0.13547  1.0000
  O   O34       1.0  0.90350  0.57907  0.36453  1.0000
  O   O35       1.0  0.90350  0.92093  0.86453  1.0000
  O   O36       1.0  0.09650  0.42093  0.63547  1.0000
  C   C29       1.0  0.37070  0.44720  0.14110  1.0000
  C   C30       1.0  0.62930  0.94720  0.35890  1.0000
  C   C31       1.0  0.62930  0.55280  0.85890  1.0000
  C   C32       1.0  0.37070  0.05280  0.64110  1.0000
  H   H25       1.0  0.34940  0.50540  0.14010  1.0000
  H   H26       1.0  0.65060  0.00540  0.35990  1.0000
  H   H27       1.0  0.65060  0.49460  0.85990  1.0000
  H   H28       1.0  0.34940  0.99460  0.64010  1.0000
  C   C33       1.0  0.47260  0.41900  0.19860  1.0000
  C   C34       1.0  0.52740  0.91900  0.30140  1.0000
  C   C35       1.0  0.52740  0.58100  0.80140  1.0000
  C   C36       1.0  0.47260  0.08100  0.69860  1.0000
  H   H29       1.0  0.52050  0.45800  0.23650  1.0000
  H   H30       1.0  0.47950  0.95800  0.26350  1.0000
  H   H31       1.0  0.47950  0.54200  0.76350  1.0000
  H   H32       1.0  0.52050  0.04200  0.73650  1.0000
  C   C37       1.0  0.50770  0.33000  0.20188  1.0000
  C   C38       1.0  0.49230  0.83000  0.29812  1.0000
  C   C39       1.0  0.49230  0.67000  0.79812  1.0000
  C   C40       1.0  0.50770  0.17000  0.70188  1.0000
  C   C41       1.0  0.69860  0.35950  0.32381  1.0000
  C   C42       1.0  0.30140  0.85950  0.17619  1.0000
  C   C43       1.0  0.30140  0.64050  0.67619  1.0000
  C   C44       1.0  0.69860  0.14050  0.82381  1.0000
  C   C45       1.0  0.38110  0.10960  0.10327  1.0000
  C   C46       1.0  0.61890  0.60960  0.39673  1.0000
  C   C47       1.0  0.61890  0.89040  0.89673  1.0000
  C   C48       1.0  0.38110  0.39040  0.60327  1.0000
  C   C49       1.0  0.04930  0.32705  0.32499  1.0000
  C   C50       1.0  0.95070  0.82705  0.17501  1.0000
  C   C51       1.0  0.95070  0.67295  0.67501  1.0000
  C   C52       1.0  0.04930  0.17295  0.82499  1.0000
  C   C53       1.0  0.07330  0.34190  0.24606  1.0000
  C   C54       1.0  0.92670  0.84190  0.25394  1.0000
  C   C55       1.0  0.92670  0.65810  0.75394  1.0000
  C   C56       1.0  0.07330  0.15810  0.74606  1.0000
  H   H33       1.0  0.10140  0.39600  0.23420  1.0000
  H   H34       1.0  0.89860  0.89600  0.26580  1.0000
  H   H35       1.0  0.89860  0.60400  0.76580  1.0000
  H   H36       1.0  0.10140  0.10400  0.73420  1.0000
  C   C57       1.0  0.05620  0.27680  0.18293  1.0000
  C   C58       1.0  0.94380  0.77680  0.31707  1.0000
  C   C59       1.0  0.94380  0.72320  0.81707  1.0000
  C   C60       1.0  0.05620  0.22320  0.68293  1.0000
  H   H37       1.0  0.07150  0.28870  0.12970  1.0000
  H   H38       1.0  0.92850  0.78870  0.37030  1.0000
  H   H39       1.0  0.92850  0.71130  0.87030  1.0000
  H   H40       1.0  0.07150  0.21130  0.62970  1.0000
  C   C61       1.0  0.01690  0.19583  0.19963  1.0000
  C   C62       1.0  0.98310  0.69583  0.30037  1.0000
  C   C63       1.0  0.98310  0.80417  0.80037  1.0000
  C   C64       1.0  0.01690  0.30417  0.69963  1.0000
  C   C65       1.0  0.99280  0.17755  0.28011  1.0000
  C   C66       1.0  0.00720  0.67755  0.21989  1.0000
  C   C67       1.0  0.00720  0.82245  0.71989  1.0000
  C   C68       1.0  0.99280  0.32245  0.78011  1.0000
  C   C69       1.0  0.95730  0.09380  0.30010  1.0000
  C   C70       1.0  0.04270  0.59380  0.19990  1.0000
  C   C71       1.0  0.04270  0.90620  0.69990  1.0000
  C   C72       1.0  0.95730  0.40620  0.80010  1.0000
  H   H41       1.0  0.94730  0.05090  0.25850  1.0000
  H   H42       1.0  0.05270  0.55090  0.24150  1.0000
  H   H43       1.0  0.05270  0.94910  0.74150  1.0000
  H   H44       1.0  0.94730  0.44910  0.75850  1.0000
  C   C73       1.0  0.93750  0.07430  0.37790  1.0000
  C   C74       1.0  0.06250  0.57430  0.12210  1.0000
  C   C75       1.0  0.06250  0.92570  0.62210  1.0000
  C   C76       1.0  0.93750  0.42570  0.87790  1.0000
  H   H45       1.0  0.91420  0.01880  0.38960  1.0000
  H   H46       1.0  0.08580  0.51880  0.11040  1.0000
  H   H47       1.0  0.08580  0.98120  0.61040  1.0000
  H   H48       1.0  0.91420  0.48120  0.88960  1.0000
  C   C77       1.0  0.95290  0.14080  0.44170  1.0000
  C   C78       1.0  0.04710  0.64080  0.05830  1.0000
  C   C79       1.0  0.04710  0.85920  0.55830  1.0000
  C   C80       1.0  0.95290  0.35920  0.94170  1.0000
  H   H49       1.0  0.94050  0.12780  0.49560  1.0000
  H   H50       1.0  0.05950  0.62780  0.00440  1.0000
  H   H51       1.0  0.05950  0.87220  0.50440  1.0000
  H   H52       1.0  0.94050  0.37220  0.99560  1.0000
  C   C81       1.0  0.98520  0.22220  0.42485  1.0000
  C   C82       1.0  0.01480  0.72220  0.07515  1.0000
  C   C83       1.0  0.01480  0.77780  0.57515  1.0000
  C   C84       1.0  0.98520  0.27780  0.92485  1.0000
  H   H53       1.0  0.99280  0.26440  0.46700  1.0000
  H   H54       1.0  0.00720  0.76440  0.03300  1.0000
  H   H55       1.0  0.00720  0.73560  0.53300  1.0000
  H   H56       1.0  0.99280  0.23560  0.96700  1.0000
  C   C85       1.0  0.00760  0.24405  0.34426  1.0000
  C   C86       1.0  0.99240  0.74405  0.15574  1.0000
  C   C87       1.0  0.99240  0.75595  0.65574  1.0000
  C   C88       1.0  0.00760  0.25595  0.84426  1.0000
  C   C89       1.0  0.07830  0.40093  0.38856  1.0000
  C   C90       1.0  0.92170  0.90093  0.11144  1.0000
  C   C91       1.0  0.92170  0.59907  0.61144  1.0000
  C   C92       1.0  0.07830  0.09907  0.88856  1.0000
  C   C93       1.0  0.00450  0.12569  0.13207  1.0000
  C   C94       1.0  0.99550  0.62569  0.36793  1.0000
  C   C95       1.0  0.99550  0.87431  0.86793  1.0000
  C   C96       1.0  0.00450  0.37431  0.63207  1.0000
