data_image0
_chemical_formula_structural       Gd4O4H8O32C4H4C4H4C44H4C8H4C4H4C4H4C4H4C4H4C4H4C4H4C4H4C4H4C4
_chemical_formula_sum              "Gd4 O36 H56 C96"
_cell_length_a       11.7508
_cell_length_b       15.7702
_cell_length_c       15.359
_cell_angle_alpha    90
_cell_angle_beta     104.795
_cell_angle_gamma    90

_space_group_name_H-M_alt    "P 1"
_space_group_IT_number       1

loop_
  _space_group_symop_operation_xyz
  'x, y, z'

loop_
  _atom_site_type_symbol
  _atom_site_label
  _atom_site_symmetry_multiplicity
  _atom_site_fract_x
  _atom_site_fract_y
  _atom_site_fract_z
  _atom_site_occupancy
  Gd  Gd1       1.0  0.69033  0.01619  0.03716  1.0000
  Gd  Gd2       1.0  0.30967  0.51619  0.46284  1.0000
  Gd  Gd3       1.0  0.30967  0.98381  0.96284  1.0000
  Gd  Gd4       1.0  0.69033  0.48381  0.53716  1.0000
  O   O1        1.0  0.83340  0.02757  0.94551  1.0000
  O   O2        1.0  0.16660  0.52757  0.55449  1.0000
  O   O3        1.0  0.16660  0.97243  0.05449  1.0000
  O   O4        1.0  0.83340  0.47243  0.44551  1.0000
  H   H1        1.0  0.88460  0.00940  0.92080  1.0000
  H   H2        1.0  0.11540  0.50940  0.57920  1.0000
  H   H3        1.0  0.11540  0.99060  0.07920  1.0000
  H   H4        1.0  0.88460  0.49060  0.42080  1.0000
  H   H5        1.0  0.79700  0.06570  0.91700  1.0000
  H   H6        1.0  0.20300  0.56570  0.58300  1.0000
  H   H7        1.0  0.20300  0.93430  0.08300  1.0000
  H   H8        1.0  0.79700  0.43430  0.41700  1.0000
  O   O5        1.0  0.19700  0.65161  0.42258  1.0000
  O   O6        1.0  0.80300  0.15161  0.07742  1.0000
  O   O7        1.0  0.80300  0.34839  0.57742  1.0000
  O   O8        1.0  0.19700  0.84839  0.92258  1.0000
  O   O9        1.0  0.95320  0.87556  0.00035  1.0000
  O   O10       1.0  0.04680  0.37556  0.49965  1.0000
  O   O11       1.0  0.04680  0.12444  0.99965  1.0000
  O   O12       1.0  0.95320  0.62444  0.50035  1.0000
  O   O13       1.0  0.58860  0.10150  0.91788  1.0000
  O   O14       1.0  0.41140  0.60150  0.58212  1.0000
  O   O15       1.0  0.41140  0.89850  0.08212  1.0000
  O   O16       1.0  0.58860  0.39850  0.41788  1.0000
  O   O17       1.0  0.39570  0.08192  0.88496  1.0000
  O   O18       1.0  0.60430  0.58192  0.61504  1.0000
  O   O19       1.0  0.60430  0.91808  0.11504  1.0000
  O   O20       1.0  0.39570  0.41808  0.38496  1.0000
  O   O21       1.0  0.18910  0.55841  0.31522  1.0000
  O   O22       1.0  0.81090  0.05841  0.18478  1.0000
  O   O23       1.0  0.81090  0.44159  0.68478  1.0000
  O   O24       1.0  0.18910  0.94159  0.81522  1.0000
  O   O25       1.0  0.83470  0.91030  0.08643  1.0000
  O   O26       1.0  0.16530  0.41030  0.41357  1.0000
  O   O27       1.0  0.16530  0.08970  0.91357  1.0000
  O   O28       1.0  0.83470  0.58970  0.58643  1.0000
  O   O29       1.0  0.37030  0.41620  0.57740  1.0000
  O   O30       1.0  0.62970  0.91620  0.92260  1.0000
  O   O31       1.0  0.62970  0.58380  0.42260  1.0000
  O   O32       1.0  0.37030  0.08380  0.07740  1.0000
  O   O33       1.0  0.55980  0.40250  0.59460  1.0000
  O   O34       1.0  0.44020  0.90250  0.90540  1.0000
  O   O35       1.0  0.44020  0.59750  0.40540  1.0000
  O   O36       1.0  0.55980  0.09750  0.09460  1.0000
  C   C1        1.0  0.53790  0.20760  0.57650  1.0000
  C   C2        1.0  0.46210  0.70760  0.92350  1.0000
  C   C3        1.0  0.46210  0.79240  0.42350  1.0000
  C   C4        1.0  0.53790  0.29240  0.07650  1.0000
  H   H9        1.0  0.54070  0.25010  0.53510  1.0000
  H   H10       1.0  0.45930  0.75010  0.96490  1.0000
  H   H11       1.0  0.45930  0.74990  0.46490  1.0000
  H   H12       1.0  0.54070  0.24990  0.03510  1.0000
  C   C5        1.0  0.42820  0.32470  0.74979  1.0000
  C   C6        1.0  0.57180  0.82470  0.75021  1.0000
  C   C7        1.0  0.57180  0.67530  0.25021  1.0000
  C   C8        1.0  0.42820  0.17530  0.24979  1.0000
  H   H13       1.0  0.39920  0.37800  0.75880  1.0000
  H   H14       1.0  0.60080  0.87800  0.74120  1.0000
  H   H15       1.0  0.60080  0.62200  0.24120  1.0000
  H   H16       1.0  0.39920  0.12200  0.25880  1.0000
  C   C9        1.0  0.48500  0.11510  0.87404  1.0000
  C   C10       1.0  0.51500  0.61510  0.62596  1.0000
  C   C11       1.0  0.51500  0.88490  0.12596  1.0000
  C   C12       1.0  0.48500  0.38490  0.37404  1.0000
  C   C13       1.0  0.50690  0.16239  0.72105  1.0000
  C   C14       1.0  0.49310  0.66239  0.77895  1.0000
  C   C15       1.0  0.49310  0.83761  0.27895  1.0000
  C   C16       1.0  0.50690  0.33761  0.22105  1.0000
  C   C17       1.0  0.46710  0.31006  0.67471  1.0000
  C   C18       1.0  0.53290  0.81006  0.82529  1.0000
  C   C19       1.0  0.53290  0.68994  0.32529  1.0000
  C   C20       1.0  0.46710  0.18994  0.17471  1.0000
  C   C21       1.0  0.92890  0.72450  0.14280  1.0000
  C   C22       1.0  0.07110  0.22450  0.35720  1.0000
  C   C23       1.0  0.07110  0.27550  0.85720  1.0000
  C   C24       1.0  0.92890  0.77550  0.64280  1.0000
  C   C25       1.0  0.50510  0.22792  0.65693  1.0000
  C   C26       1.0  0.49490  0.72792  0.84307  1.0000
  C   C27       1.0  0.49490  0.77208  0.34307  1.0000
  C   C28       1.0  0.50510  0.27208  0.15693  1.0000
  C   C29       1.0  0.09240  0.69030  0.27310  1.0000
  C   C30       1.0  0.90760  0.19030  0.22690  1.0000
  C   C31       1.0  0.90760  0.30970  0.72690  1.0000
  C   C32       1.0  0.09240  0.80970  0.77310  1.0000
  C   C33       1.0  0.98890  0.66440  0.20810  1.0000
  C   C34       1.0  0.01110  0.16440  0.29190  1.0000
  C   C35       1.0  0.01110  0.33560  0.79190  1.0000
  C   C36       1.0  0.98890  0.83560  0.70810  1.0000
  C   C37       1.0  0.47260  0.18178  0.80145  1.0000
  C   C38       1.0  0.52740  0.68178  0.69855  1.0000
  C   C39       1.0  0.52740  0.81822  0.19855  1.0000
  C   C40       1.0  0.47260  0.31822  0.30145  1.0000
  C   C41       1.0  0.46570  0.38140  0.60980  1.0000
  C   C42       1.0  0.53430  0.88140  0.89020  1.0000
  C   C43       1.0  0.53430  0.61860  0.39020  1.0000
  C   C44       1.0  0.46570  0.11860  0.10980  1.0000
  C   C45       1.0  0.97630  0.80610  0.14230  1.0000
  C   C46       1.0  0.02370  0.30610  0.35770  1.0000
  C   C47       1.0  0.02370  0.19390  0.85770  1.0000
  C   C48       1.0  0.97630  0.69390  0.64230  1.0000
  C   C49       1.0  0.43130  0.26010  0.81392  1.0000
  C   C50       1.0  0.56870  0.76010  0.68608  1.0000
  C   C51       1.0  0.56870  0.73990  0.18608  1.0000
  C   C52       1.0  0.43130  0.23990  0.31392  1.0000
  H   H17       1.0  0.40500  0.27120  0.86500  1.0000
  H   H18       1.0  0.59500  0.77120  0.63500  1.0000
  H   H19       1.0  0.59500  0.72880  0.13500  1.0000
  H   H20       1.0  0.40500  0.22880  0.36500  1.0000
  C   C53       1.0  0.91620  0.86910  0.07120  1.0000
  C   C54       1.0  0.08380  0.36910  0.42880  1.0000
  C   C55       1.0  0.08380  0.13090  0.92880  1.0000
  C   C56       1.0  0.91620  0.63090  0.57120  1.0000
  C   C57       1.0  0.56540  0.12600  0.55950  1.0000
  C   C58       1.0  0.43460  0.62600  0.94050  1.0000
  C   C59       1.0  0.43460  0.87400  0.44050  1.0000
  C   C60       1.0  0.56540  0.37400  0.05950  1.0000
  H   H21       1.0  0.58340  0.11300  0.50550  1.0000
  H   H22       1.0  0.41660  0.61300  0.99450  1.0000
  H   H23       1.0  0.41660  0.88700  0.49450  1.0000
  H   H24       1.0  0.58340  0.38700  0.00550  1.0000
  C   C61       1.0  0.07710  0.83040  0.20630  1.0000
  C   C62       1.0  0.92290  0.33040  0.29370  1.0000
  C   C63       1.0  0.92290  0.16960  0.79370  1.0000
  C   C64       1.0  0.07710  0.66960  0.70630  1.0000
  H   H25       1.0  0.10640  0.88500  0.20540  1.0000
  H   H26       1.0  0.89360  0.38500  0.29460  1.0000
  H   H27       1.0  0.89360  0.11500  0.79460  1.0000
  H   H28       1.0  0.10640  0.61500  0.70540  1.0000
  C   C65       1.0  0.13480  0.77290  0.27210  1.0000
  C   C66       1.0  0.86520  0.27290  0.22790  1.0000
  C   C67       1.0  0.86520  0.22710  0.72790  1.0000
  C   C68       1.0  0.13480  0.72710  0.77210  1.0000
  H   H29       1.0  0.20170  0.78980  0.31550  1.0000
  H   H30       1.0  0.79830  0.28980  0.18450  1.0000
  H   H31       1.0  0.79830  0.21020  0.68450  1.0000
  H   H32       1.0  0.20170  0.71020  0.81550  1.0000
  C   C69       1.0  0.53950  0.07920  0.70240  1.0000
  C   C70       1.0  0.46050  0.57920  0.79760  1.0000
  C   C71       1.0  0.46050  0.92080  0.29760  1.0000
  C   C72       1.0  0.53950  0.42080  0.20240  1.0000
  H   H33       1.0  0.54230  0.03630  0.74450  1.0000
  H   H34       1.0  0.45770  0.53630  0.75550  1.0000
  H   H35       1.0  0.45770  0.96370  0.25550  1.0000
  H   H36       1.0  0.54230  0.46370  0.24450  1.0000
  C   C73       1.0  0.84240  0.55890  0.14240  1.0000
  C   C74       1.0  0.15760  0.05890  0.35760  1.0000
  C   C75       1.0  0.15760  0.44110  0.85760  1.0000
  C   C76       1.0  0.84240  0.94110  0.64240  1.0000
  H   H37       1.0  0.81370  0.50390  0.14190  1.0000
  H   H38       1.0  0.18630  0.00390  0.35810  1.0000
  H   H39       1.0  0.18630  0.49610  0.85810  1.0000
  H   H40       1.0  0.81370  0.99610  0.64190  1.0000
  C   C77       1.0  0.94190  0.58160  0.20570  1.0000
  C   C78       1.0  0.05810  0.08160  0.29430  1.0000
  C   C79       1.0  0.05810  0.41840  0.79430  1.0000
  C   C80       1.0  0.94190  0.91840  0.70570  1.0000
  H   H41       1.0  0.97960  0.54200  0.24820  1.0000
  H   H42       1.0  0.02040  0.04200  0.25180  1.0000
  H   H43       1.0  0.02040  0.45800  0.75180  1.0000
  H   H44       1.0  0.97960  0.95800  0.74820  1.0000
  C   C81       1.0  0.82360  0.69900  0.07870  1.0000
  C   C82       1.0  0.17640  0.19900  0.42130  1.0000
  C   C83       1.0  0.17640  0.30100  0.92130  1.0000
  C   C84       1.0  0.82360  0.80100  0.57870  1.0000
  H   H45       1.0  0.78250  0.73820  0.03710  1.0000
  H   H46       1.0  0.21750  0.23820  0.46290  1.0000
  H   H47       1.0  0.21750  0.26180  0.96290  1.0000
  H   H48       1.0  0.78250  0.76180  0.53710  1.0000
  C   C85       1.0  0.56670  0.06130  0.62320  1.0000
  C   C86       1.0  0.43330  0.56130  0.87680  1.0000
  C   C87       1.0  0.43330  0.93870  0.37680  1.0000
  C   C88       1.0  0.56670  0.43870  0.12320  1.0000
  H   H49       1.0  0.58630  0.00620  0.61110  1.0000
  H   H50       1.0  0.41370  0.50620  0.88890  1.0000
  H   H51       1.0  0.41370  0.99380  0.38890  1.0000
  H   H52       1.0  0.58630  0.49380  0.11110  1.0000
  C   C89       1.0  0.78230  0.61800  0.07750  1.0000
  C   C90       1.0  0.21770  0.11800  0.42250  1.0000
  C   C91       1.0  0.21770  0.38200  0.92250  1.0000
  C   C92       1.0  0.78230  0.88200  0.57750  1.0000
  H   H53       1.0  0.71510  0.60170  0.03410  1.0000
  H   H54       1.0  0.28490  0.10170  0.46590  1.0000
  H   H55       1.0  0.28490  0.39830  0.96590  1.0000
  H   H56       1.0  0.71510  0.89830  0.53410  1.0000
  C   C93       1.0  0.16280  0.63000  0.34060  1.0000
  C   C94       1.0  0.83720  0.13000  0.15940  1.0000
  C   C95       1.0  0.83720  0.37000  0.65940  1.0000
  C   C96       1.0  0.16280  0.87000  0.84060  1.0000
