data_image0
_chemical_formula_structural       Tb4O4H8O4C4O4C4H4O4C4H4O4C4O4C4O4C4H4O4C4H4O4C4H4C4H4C20H4C4H4C12H4C4H4C4H4C4H4C12
_chemical_formula_sum              "Tb4 O36 H56 C96"
_cell_length_a       11.7438
_cell_length_b       15.7457
_cell_length_c       15.3042
_cell_angle_alpha    90
_cell_angle_beta     105.051
_cell_angle_gamma    90

_space_group_name_H-M_alt    "P 1"
_space_group_IT_number       1

loop_
  _space_group_symop_operation_xyz
  'x, y, z'

loop_
  _atom_site_type_symbol
  _atom_site_label
  _atom_site_symmetry_multiplicity
  _atom_site_fract_x
  _atom_site_fract_y
  _atom_site_fract_z
  _atom_site_occupancy
  Tb  Tb1       1.0  0.30954  0.01625  0.96289  1.0000
  Tb  Tb2       1.0  0.69046  0.51625  0.53711  1.0000
  Tb  Tb3       1.0  0.69046  0.98375  0.03711  1.0000
  Tb  Tb4       1.0  0.30954  0.48375  0.46289  1.0000
  O   O1        1.0  0.17050  0.02877  0.05659  1.0000
  O   O2        1.0  0.82950  0.52877  0.44341  1.0000
  O   O3        1.0  0.82950  0.97123  0.94341  1.0000
  O   O4        1.0  0.17050  0.47123  0.55659  1.0000
  H   H1        1.0  0.13700  0.98170  0.05700  1.0000
  H   H2        1.0  0.86300  0.48170  0.44300  1.0000
  H   H3        1.0  0.86300  0.01830  0.94300  1.0000
  H   H4        1.0  0.13700  0.51830  0.55700  1.0000
  H   H5        1.0  0.12100  0.06510  0.04200  1.0000
  H   H6        1.0  0.87900  0.56510  0.45800  1.0000
  H   H7        1.0  0.87900  0.93490  0.95800  1.0000
  H   H8        1.0  0.12100  0.43490  0.54200  1.0000
  O   O5        1.0  0.16680  0.91005  0.91493  1.0000
  O   O6        1.0  0.83320  0.41005  0.58507  1.0000
  O   O7        1.0  0.83320  0.08995  0.08507  1.0000
  O   O8        1.0  0.16680  0.58995  0.41493  1.0000
  C   C1        1.0  0.02380  0.80620  0.85830  1.0000
  C   C2        1.0  0.97620  0.30620  0.64170  1.0000
  C   C3        1.0  0.97620  0.19380  0.14170  1.0000
  C   C4        1.0  0.02380  0.69380  0.35830  1.0000
  O   O9        1.0  0.04740  0.87638  0.99990  1.0000
  O   O10       1.0  0.95260  0.37638  0.50010  1.0000
  O   O11       1.0  0.95260  0.12362  0.00010  1.0000
  O   O12       1.0  0.04740  0.62362  0.49990  1.0000
  C   C5        1.0  0.92410  0.82930  0.79460  1.0000
  C   C6        1.0  0.07590  0.32930  0.70540  1.0000
  C   C7        1.0  0.07590  0.17070  0.20540  1.0000
  C   C8        1.0  0.92410  0.67070  0.29460  1.0000
  H   H9        1.0  0.89370  0.88370  0.79540  1.0000
  H   H10       1.0  0.10630  0.38370  0.70460  1.0000
  H   H11       1.0  0.10630  0.11630  0.20460  1.0000
  H   H12       1.0  0.89370  0.61630  0.29540  1.0000
  O   O13       1.0  0.81250  0.55775  0.68391  1.0000
  O   O14       1.0  0.18750  0.05775  0.81609  1.0000
  O   O15       1.0  0.18750  0.44225  0.31609  1.0000
  O   O16       1.0  0.81250  0.94225  0.18391  1.0000
  C   C9        1.0  0.86700  0.77140  0.72780  1.0000
  C   C10       1.0  0.13300  0.27140  0.77220  1.0000
  C   C11       1.0  0.13300  0.22860  0.27220  1.0000
  C   C12       1.0  0.86700  0.72860  0.22780  1.0000
  H   H13       1.0  0.80050  0.78840  0.68360  1.0000
  H   H14       1.0  0.19950  0.28840  0.81640  1.0000
  H   H15       1.0  0.19950  0.21160  0.31640  1.0000
  H   H16       1.0  0.80050  0.71160  0.18360  1.0000
  O   O17       1.0  0.80290  0.65168  0.57686  1.0000
  O   O18       1.0  0.19710  0.15168  0.92314  1.0000
  O   O19       1.0  0.19710  0.34832  0.42314  1.0000
  O   O20       1.0  0.80290  0.84832  0.07686  1.0000
  C   C13       1.0  0.90800  0.69050  0.72710  1.0000
  C   C14       1.0  0.09200  0.19050  0.77290  1.0000
  C   C15       1.0  0.09200  0.30950  0.27290  1.0000
  C   C16       1.0  0.90800  0.80950  0.22710  1.0000
  O   O21       1.0  0.39540  0.91950  0.88490  1.0000
  O   O22       1.0  0.60460  0.41950  0.61510  1.0000
  O   O23       1.0  0.60460  0.08050  0.11510  1.0000
  O   O24       1.0  0.39540  0.58050  0.38490  1.0000
  C   C17       1.0  0.01230  0.66350  0.79220  1.0000
  C   C18       1.0  0.98770  0.16350  0.70780  1.0000
  C   C19       1.0  0.98770  0.33650  0.20780  1.0000
  C   C20       1.0  0.01230  0.83650  0.29220  1.0000
  O   O25       1.0  0.58740  0.89845  0.91959  1.0000
  O   O26       1.0  0.41260  0.39845  0.58041  1.0000
  O   O27       1.0  0.41260  0.10155  0.08041  1.0000
  O   O28       1.0  0.58740  0.60155  0.41959  1.0000
  C   C21       1.0  0.05950  0.58110  0.79500  1.0000
  C   C22       1.0  0.94050  0.08110  0.70500  1.0000
  C   C23       1.0  0.94050  0.41890  0.20500  1.0000
  C   C24       1.0  0.05950  0.91890  0.29500  1.0000
  H   H17       1.0  0.02190  0.54110  0.75260  1.0000
  H   H18       1.0  0.97810  0.04110  0.74740  1.0000
  H   H19       1.0  0.97810  0.45890  0.24740  1.0000
  H   H20       1.0  0.02190  0.95890  0.25260  1.0000
  O   O29       1.0  0.37400  0.58225  0.57690  1.0000
  O   O30       1.0  0.62600  0.08225  0.92310  1.0000
  O   O31       1.0  0.62600  0.41775  0.42310  1.0000
  O   O32       1.0  0.37400  0.91775  0.07690  1.0000
  C   C25       1.0  0.15920  0.55920  0.85860  1.0000
  C   C26       1.0  0.84080  0.05920  0.64140  1.0000
  C   C27       1.0  0.84080  0.44080  0.14140  1.0000
  C   C28       1.0  0.15920  0.94080  0.35860  1.0000
  H   H21       1.0  0.18880  0.50440  0.85910  1.0000
  H   H22       1.0  0.81120  0.00440  0.64090  1.0000
  H   H23       1.0  0.81120  0.49560  0.14090  1.0000
  H   H24       1.0  0.18880  0.99560  0.35910  1.0000
  O   O33       1.0  0.56360  0.59738  0.59710  1.0000
  O   O34       1.0  0.43640  0.09738  0.90290  1.0000
  O   O35       1.0  0.43640  0.40262  0.40290  1.0000
  O   O36       1.0  0.56360  0.90262  0.09710  1.0000
  C   C29       1.0  0.21780  0.61750  0.92300  1.0000
  C   C30       1.0  0.78220  0.11750  0.57700  1.0000
  C   C31       1.0  0.78220  0.38250  0.07700  1.0000
  C   C32       1.0  0.21780  0.88250  0.42300  1.0000
  H   H25       1.0  0.28530  0.60120  0.96650  1.0000
  H   H26       1.0  0.71470  0.10120  0.53350  1.0000
  H   H27       1.0  0.71470  0.39880  0.03350  1.0000
  H   H28       1.0  0.28530  0.89880  0.46650  1.0000
  C   C33       1.0  0.17640  0.69870  0.92240  1.0000
  C   C34       1.0  0.82360  0.19870  0.57760  1.0000
  C   C35       1.0  0.82360  0.30130  0.07760  1.0000
  C   C36       1.0  0.17640  0.80130  0.42240  1.0000
  H   H29       1.0  0.21740  0.73780  0.96460  1.0000
  H   H30       1.0  0.78260  0.23780  0.53540  1.0000
  H   H31       1.0  0.78260  0.26220  0.03540  1.0000
  H   H32       1.0  0.21740  0.76220  0.46460  1.0000
  C   C37       1.0  0.07210  0.72390  0.85840  1.0000
  C   C38       1.0  0.92790  0.22390  0.64160  1.0000
  C   C39       1.0  0.92790  0.27610  0.14160  1.0000
  C   C40       1.0  0.07210  0.77610  0.35840  1.0000
  C   C41       1.0  0.08540  0.86950  0.92980  1.0000
  C   C42       1.0  0.91460  0.36950  0.57020  1.0000
  C   C43       1.0  0.91460  0.13050  0.07020  1.0000
  C   C44       1.0  0.08540  0.63050  0.42980  1.0000
  C   C45       1.0  0.83760  0.62930  0.65880  1.0000
  C   C46       1.0  0.16240  0.12930  0.84120  1.0000
  C   C47       1.0  0.16240  0.37070  0.34120  1.0000
  C   C48       1.0  0.83760  0.87070  0.15880  1.0000
  C   C49       1.0  0.47170  0.81880  0.80131  1.0000
  C   C50       1.0  0.52830  0.31880  0.69869  1.0000
  C   C51       1.0  0.52830  0.18120  0.19869  1.0000
  C   C52       1.0  0.47170  0.68120  0.30131  1.0000
  C   C53       1.0  0.43100  0.74010  0.81440  1.0000
  C   C54       1.0  0.56900  0.24010  0.68560  1.0000
  C   C55       1.0  0.56900  0.25990  0.18560  1.0000
  C   C56       1.0  0.43100  0.75990  0.31440  1.0000
  H   H33       1.0  0.40490  0.72890  0.86560  1.0000
  H   H34       1.0  0.59510  0.22890  0.63440  1.0000
  H   H35       1.0  0.59510  0.27110  0.13440  1.0000
  H   H36       1.0  0.40490  0.77110  0.36560  1.0000
  C   C57       1.0  0.42840  0.67540  0.74970  1.0000
  C   C58       1.0  0.57160  0.17540  0.75030  1.0000
  C   C59       1.0  0.57160  0.32460  0.25030  1.0000
  C   C60       1.0  0.42840  0.82460  0.24970  1.0000
  H   H37       1.0  0.39990  0.62190  0.75870  1.0000
  H   H38       1.0  0.60010  0.12190  0.74130  1.0000
  H   H39       1.0  0.60010  0.37810  0.24130  1.0000
  H   H40       1.0  0.39990  0.87810  0.25870  1.0000
  C   C61       1.0  0.46690  0.68996  0.67470  1.0000
  C   C62       1.0  0.53310  0.18996  0.82530  1.0000
  C   C63       1.0  0.53310  0.31004  0.32530  1.0000
  C   C64       1.0  0.46690  0.81004  0.17470  1.0000
  C   C65       1.0  0.50600  0.77270  0.65720  1.0000
  C   C66       1.0  0.49400  0.27270  0.84280  1.0000
  C   C67       1.0  0.49400  0.22730  0.34280  1.0000
  C   C68       1.0  0.50600  0.72730  0.15720  1.0000
  C   C69       1.0  0.53850  0.79320  0.57710  1.0000
  C   C70       1.0  0.46150  0.29320  0.92290  1.0000
  C   C71       1.0  0.46150  0.20680  0.42290  1.0000
  C   C72       1.0  0.53850  0.70680  0.07710  1.0000
  H   H41       1.0  0.54100  0.75070  0.53540  1.0000
  H   H42       1.0  0.45900  0.25070  0.96460  1.0000
  H   H43       1.0  0.45900  0.24930  0.46460  1.0000
  H   H44       1.0  0.54100  0.74930  0.03540  1.0000
  C   C73       1.0  0.56630  0.87420  0.56040  1.0000
  C   C74       1.0  0.43370  0.37420  0.93960  1.0000
  C   C75       1.0  0.43370  0.12580  0.43960  1.0000
  C   C76       1.0  0.56630  0.62580  0.06040  1.0000
  H   H45       1.0  0.58610  0.88680  0.50680  1.0000
  H   H46       1.0  0.41390  0.38680  0.99320  1.0000
  H   H47       1.0  0.41390  0.11320  0.49320  1.0000
  H   H48       1.0  0.58610  0.61320  0.00680  1.0000
  C   C77       1.0  0.56550  0.93930  0.62280  1.0000
  C   C78       1.0  0.43450  0.43930  0.87720  1.0000
  C   C79       1.0  0.43450  0.06070  0.37720  1.0000
  C   C80       1.0  0.56550  0.56070  0.12280  1.0000
  H   H49       1.0  0.58370  0.99460  0.61000  1.0000
  H   H50       1.0  0.41630  0.49460  0.89000  1.0000
  H   H51       1.0  0.41630  0.00540  0.39000  1.0000
  H   H52       1.0  0.58370  0.50540  0.11000  1.0000
  C   C81       1.0  0.53830  0.92150  0.70210  1.0000
  C   C82       1.0  0.46170  0.42150  0.79790  1.0000
  C   C83       1.0  0.46170  0.07850  0.29790  1.0000
  C   C84       1.0  0.53830  0.57850  0.20210  1.0000
  H   H53       1.0  0.54060  0.96450  0.74410  1.0000
  H   H54       1.0  0.45940  0.46450  0.75590  1.0000
  H   H55       1.0  0.45940  0.03550  0.25590  1.0000
  H   H56       1.0  0.54060  0.53550  0.24410  1.0000
  C   C85       1.0  0.50630  0.83790  0.72120  1.0000
  C   C86       1.0  0.49370  0.33790  0.77880  1.0000
  C   C87       1.0  0.49370  0.16210  0.27880  1.0000
  C   C88       1.0  0.50630  0.66210  0.22120  1.0000
  C   C89       1.0  0.48460  0.88470  0.87420  1.0000
  C   C90       1.0  0.51540  0.38470  0.62580  1.0000
  C   C91       1.0  0.51540  0.11530  0.12580  1.0000
  C   C92       1.0  0.48460  0.61530  0.37420  1.0000
  C   C93       1.0  0.46930  0.61790  0.61070  1.0000
  C   C94       1.0  0.53070  0.11790  0.88930  1.0000
  C   C95       1.0  0.53070  0.38210  0.38930  1.0000
  C   C96       1.0  0.46930  0.88210  0.11070  1.0000
