data_image0
_chemical_formula_structural       Ga8V8P16O88C8
_chemical_formula_sum              "Ga8 V8 P16 O88 C8"
_cell_length_a       15.8224
_cell_length_b       9.0385
_cell_length_c       17.4504
_cell_angle_alpha    90
_cell_angle_beta     90
_cell_angle_gamma    90

_space_group_name_H-M_alt    "P 1"
_space_group_IT_number       1

loop_
  _space_group_symop_operation_xyz
  'x, y, z'

loop_
  _atom_site_type_symbol
  _atom_site_label
  _atom_site_symmetry_multiplicity
  _atom_site_fract_x
  _atom_site_fract_y
  _atom_site_fract_z
  _atom_site_occupancy
  Ga  Ga1       1.0  0.13060  0.43061  0.49086  1.0000
  Ga  Ga2       1.0  0.36940  0.56939  0.99086  1.0000
  Ga  Ga3       1.0  0.86940  0.93061  0.00914  1.0000
  Ga  Ga4       1.0  0.63060  0.06939  0.50914  1.0000
  Ga  Ga5       1.0  0.86940  0.56939  0.50914  1.0000
  Ga  Ga6       1.0  0.63060  0.43061  0.00914  1.0000
  Ga  Ga7       1.0  0.13060  0.06939  0.99086  1.0000
  Ga  Ga8       1.0  0.36940  0.93061  0.49086  1.0000
  V   V1        1.0  0.11630  0.87729  0.60194  1.0000
  V   V2        1.0  0.38370  0.12271  0.10194  1.0000
  V   V3        1.0  0.88370  0.37729  0.89806  1.0000
  V   V4        1.0  0.61630  0.62271  0.39806  1.0000
  V   V5        1.0  0.88370  0.12271  0.39806  1.0000
  V   V6        1.0  0.61630  0.87729  0.89806  1.0000
  V   V7        1.0  0.11630  0.62271  0.10194  1.0000
  V   V8        1.0  0.38370  0.37729  0.60194  1.0000
  P   P1        1.0  0.02082  0.55143  0.61986  1.0000
  P   P2        1.0  0.47918  0.44857  0.11986  1.0000
  P   P3        1.0  0.97918  0.05143  0.88014  1.0000
  P   P4        1.0  0.52082  0.94857  0.38014  1.0000
  P   P5        1.0  0.97918  0.44857  0.38014  1.0000
  P   P6        1.0  0.52082  0.55143  0.88014  1.0000
  P   P7        1.0  0.02082  0.94857  0.11986  1.0000
  P   P8        1.0  0.47918  0.05143  0.61986  1.0000
  P   P9        1.0  0.27153  0.66020  0.53518  1.0000
  P   P10       1.0  0.22847  0.33980  0.03518  1.0000
  P   P11       1.0  0.72847  0.16020  0.96482  1.0000
  P   P12       1.0  0.77153  0.83980  0.46482  1.0000
  P   P13       1.0  0.72847  0.33980  0.46482  1.0000
  P   P14       1.0  0.77153  0.66020  0.96482  1.0000
  P   P15       1.0  0.27153  0.83980  0.03518  1.0000
  P   P16       1.0  0.22847  0.16020  0.53518  1.0000
  O   O1        1.0  0.07571  0.42900  0.58225  1.0000
  O   O2        1.0  0.42429  0.57100  0.08225  1.0000
  O   O3        1.0  0.92429  0.92900  0.91775  1.0000
  O   O4        1.0  0.57571  0.07100  0.41775  1.0000
  O   O5        1.0  0.92429  0.57100  0.41775  1.0000
  O   O6        1.0  0.57571  0.42900  0.91775  1.0000
  O   O7        1.0  0.07571  0.07100  0.08225  1.0000
  O   O8        1.0  0.42429  0.92900  0.58225  1.0000
  O   O9        1.0  0.02645  0.53210  0.70551  1.0000
  O   O10       1.0  0.47355  0.46790  0.20551  1.0000
  O   O11       1.0  0.97355  0.03210  0.79449  1.0000
  O   O12       1.0  0.52645  0.96790  0.29449  1.0000
  O   O13       1.0  0.97355  0.46790  0.29449  1.0000
  O   O14       1.0  0.52645  0.53210  0.79449  1.0000
  O   O15       1.0  0.02645  0.96790  0.20551  1.0000
  O   O16       1.0  0.47355  0.03210  0.70551  1.0000
  O   O17       1.0  0.92827  0.52010  0.59495  1.0000
  O   O18       1.0  0.57173  0.47990  0.09495  1.0000
  O   O19       1.0  0.07173  0.02010  0.90505  1.0000
  O   O20       1.0  0.42827  0.97990  0.40505  1.0000
  O   O21       1.0  0.07173  0.47990  0.40505  1.0000
  O   O22       1.0  0.42827  0.52010  0.90505  1.0000
  O   O23       1.0  0.92827  0.97990  0.09495  1.0000
  O   O24       1.0  0.57173  0.02010  0.59495  1.0000
  O   O25       1.0  0.04675  0.69960  0.58795  1.0000
  O   O26       1.0  0.45325  0.30040  0.08795  1.0000
  O   O27       1.0  0.95325  0.19960  0.91205  1.0000
  O   O28       1.0  0.54675  0.80040  0.41205  1.0000
  O   O29       1.0  0.95325  0.30040  0.41205  1.0000
  O   O30       1.0  0.54675  0.69960  0.91205  1.0000
  O   O31       1.0  0.04675  0.80040  0.08795  1.0000
  O   O32       1.0  0.45325  0.19960  0.58795  1.0000
  O   O33       1.0  0.21686  0.56250  0.48325  1.0000
  O   O34       1.0  0.28314  0.43750  0.98325  1.0000
  O   O35       1.0  0.78314  0.06250  0.01675  1.0000
  O   O36       1.0  0.71686  0.93750  0.51675  1.0000
  O   O37       1.0  0.78314  0.43750  0.51675  1.0000
  O   O38       1.0  0.71686  0.56250  0.01675  1.0000
  O   O39       1.0  0.21686  0.93750  0.98325  1.0000
  O   O40       1.0  0.28314  0.06250  0.48325  1.0000
  O   O41       1.0  0.33097  0.74170  0.47863  1.0000
  O   O42       1.0  0.16903  0.25830  0.97863  1.0000
  O   O43       1.0  0.66903  0.24170  0.02137  1.0000
  O   O44       1.0  0.83097  0.75830  0.52137  1.0000
  O   O45       1.0  0.66903  0.25830  0.52137  1.0000
  O   O46       1.0  0.83097  0.74170  0.02137  1.0000
  O   O47       1.0  0.33097  0.75830  0.97863  1.0000
  O   O48       1.0  0.16903  0.24170  0.47863  1.0000
  O   O49       1.0  0.32328  0.56980  0.59141  1.0000
  O   O50       1.0  0.17672  0.43020  0.09141  1.0000
  O   O51       1.0  0.67672  0.06980  0.90859  1.0000
  O   O52       1.0  0.82328  0.93020  0.40859  1.0000
  O   O53       1.0  0.67672  0.43020  0.40859  1.0000
  O   O54       1.0  0.82328  0.56980  0.90859  1.0000
  O   O55       1.0  0.32328  0.93020  0.09141  1.0000
  O   O56       1.0  0.17672  0.06980  0.59141  1.0000
  O   O57       1.0  0.22066  0.77340  0.57951  1.0000
  O   O58       1.0  0.27934  0.22660  0.07951  1.0000
  O   O59       1.0  0.77934  0.27340  0.92049  1.0000
  O   O60       1.0  0.72066  0.72660  0.42049  1.0000
  O   O61       1.0  0.77934  0.22660  0.42049  1.0000
  O   O62       1.0  0.72066  0.77340  0.92049  1.0000
  O   O63       1.0  0.22066  0.72660  0.07951  1.0000
  O   O64       1.0  0.27934  0.27340  0.57951  1.0000
  O   O65       1.0  0.09005  0.89880  0.47887  1.0000
  O   O66       1.0  0.40995  0.10120  0.97887  1.0000
  O   O67       1.0  0.90995  0.39880  0.02113  1.0000
  O   O68       1.0  0.59005  0.60120  0.52113  1.0000
  O   O69       1.0  0.90995  0.10120  0.52113  1.0000
  O   O70       1.0  0.59005  0.89880  0.02113  1.0000
  O   O71       1.0  0.09005  0.60120  0.97887  1.0000
  O   O72       1.0  0.40995  0.39880  0.47887  1.0000
  O   O73       1.0  0.99380  0.99700  0.40037  1.0000
  O   O74       1.0  0.50620  0.00300  0.90037  1.0000
  O   O75       1.0  0.00620  0.49700  0.09963  1.0000
  O   O76       1.0  0.49380  0.50300  0.59963  1.0000
  O   O77       1.0  0.00620  0.00300  0.59963  1.0000
  O   O78       1.0  0.49380  0.99700  0.09963  1.0000
  O   O79       1.0  0.99380  0.50300  0.90037  1.0000
  O   O80       1.0  0.50620  0.49700  0.40037  1.0000
  O   O81       1.0  0.11815  0.88070  0.69676  1.0000
  O   O82       1.0  0.38185  0.11930  0.19676  1.0000
  O   O83       1.0  0.88185  0.38070  0.80324  1.0000
  O   O84       1.0  0.61815  0.61930  0.30324  1.0000
  O   O85       1.0  0.88185  0.11930  0.30324  1.0000
  O   O86       1.0  0.61815  0.88070  0.80324  1.0000
  O   O87       1.0  0.11815  0.61930  0.19676  1.0000
  O   O88       1.0  0.38185  0.38070  0.69676  1.0000
  C   C1        1.0  0.02434  0.96970  0.46539  1.0000
  C   C2        1.0  0.47566  0.03030  0.96539  1.0000
  C   C3        1.0  0.97566  0.46970  0.03461  1.0000
  C   C4        1.0  0.52434  0.53030  0.53461  1.0000
  C   C5        1.0  0.97566  0.03030  0.53461  1.0000
  C   C6        1.0  0.52434  0.96970  0.03461  1.0000
  C   C7        1.0  0.02434  0.53030  0.96539  1.0000
  C   C8        1.0  0.47566  0.46970  0.46539  1.0000
