data_image0
_chemical_formula_structural       Ga2V2P4O22C2
_chemical_formula_sum              "Ga2 V2 P4 O22 C2"
_cell_length_a       8.2932
_cell_length_b       9.0002
_cell_length_c       10.1814
_cell_angle_alpha    82.415
_cell_angle_beta     81.08
_cell_angle_gamma    78.572

_space_group_name_H-M_alt    "P 1"
_space_group_IT_number       1

loop_
  _space_group_symop_operation_xyz
  'x, y, z'

loop_
  _atom_site_type_symbol
  _atom_site_label
  _atom_site_symmetry_multiplicity
  _atom_site_fract_x
  _atom_site_fract_y
  _atom_site_fract_z
  _atom_site_occupancy
  Ga  Ga1       1.0  0.25185  0.52088  0.53654  1.0000
  Ga  Ga2       1.0  0.74815  0.47912  0.46346  1.0000
  V   V1        1.0  0.27958  0.09441  0.35468  1.0000
  V   V2        1.0  0.72042  0.90559  0.64532  1.0000
  P   P1        1.0  0.10063  0.45132  0.30442  1.0000
  P   P2        1.0  0.89937  0.54868  0.69558  1.0000
  P   P3        1.0  0.53780  0.23588  0.50693  1.0000
  P   P4        1.0  0.46220  0.76412  0.49307  1.0000
  O   O1        1.0  0.21180  0.53760  0.36400  1.0000
  O   O2        1.0  0.78820  0.46240  0.63600  1.0000
  O   O3        1.0  0.91720  0.52790  0.34100  1.0000
  O   O4        1.0  0.08280  0.47210  0.65900  1.0000
  O   O5        1.0  0.12210  0.28680  0.36470  1.0000
  O   O6        1.0  0.87790  0.71320  0.63530  1.0000
  O   O7        1.0  0.14250  0.47400  0.15360  1.0000
  O   O8        1.0  0.85750  0.52600  0.84640  1.0000
  O   O9        1.0  0.45720  0.17970  0.40460  1.0000
  O   O10       1.0  0.54280  0.82030  0.59540  1.0000
  O   O11       1.0  0.41890  0.36440  0.57950  1.0000
  O   O12       1.0  0.58110  0.63560  0.42050  1.0000
  O   O13       1.0  0.68920  0.30320  0.43120  1.0000
  O   O14       1.0  0.31080  0.69680  0.56880  1.0000
  O   O15       1.0  0.59170  0.11360  0.61690  1.0000
  O   O16       1.0  0.40830  0.88640  0.38310  1.0000
  O   O17       1.0  0.16070  0.05820  0.55800  1.0000
  O   O18       1.0  0.83930  0.94180  0.44200  1.0000
  O   O19       1.0  0.92060  0.00230  0.66830  1.0000
  O   O20       1.0  0.07940  0.99770  0.33170  1.0000
  O   O21       1.0  0.34450  0.11270  0.18800  1.0000
  O   O22       1.0  0.65550  0.88730  0.81200  1.0000
  C   C1        1.0  0.02240  0.01800  0.56670  1.0000
  C   C2        1.0  0.97760  0.98200  0.43330  1.0000
