data_image0
_chemical_formula_structural       Fe8K8O80C16O16C32
_chemical_formula_sum              "Fe8 K8 O96 C48"
_cell_length_a       13.4174
_cell_length_b       18.1772
_cell_length_c       22.334
_cell_angle_alpha    90
_cell_angle_beta     90
_cell_angle_gamma    90

_space_group_name_H-M_alt    "P 1"
_space_group_IT_number       1

loop_
  _space_group_symop_operation_xyz
  'x, y, z'

loop_
  _atom_site_type_symbol
  _atom_site_label
  _atom_site_symmetry_multiplicity
  _atom_site_fract_x
  _atom_site_fract_y
  _atom_site_fract_z
  _atom_site_occupancy
  Fe  Fe1       1.0  0.00000  0.05295  0.25000  1.0000
  Fe  Fe2       1.0  0.50000  0.94705  0.25000  1.0000
  Fe  Fe3       1.0  0.50000  0.55295  0.25000  1.0000
  Fe  Fe4       1.0  0.00000  0.44705  0.25000  1.0000
  Fe  Fe5       1.0  0.00000  0.94705  0.75000  1.0000
  Fe  Fe6       1.0  0.50000  0.05295  0.75000  1.0000
  Fe  Fe7       1.0  0.50000  0.44705  0.75000  1.0000
  Fe  Fe8       1.0  0.00000  0.55295  0.75000  1.0000
  K   K1        1.0  0.13789  0.75000  0.25000  1.0000
  K   K2        1.0  0.36211  0.25000  0.25000  1.0000
  K   K3        1.0  0.86211  0.75000  0.25000  1.0000
  K   K4        1.0  0.63789  0.25000  0.25000  1.0000
  K   K5        1.0  0.86211  0.25000  0.75000  1.0000
  K   K6        1.0  0.63789  0.75000  0.75000  1.0000
  K   K7        1.0  0.13789  0.25000  0.75000  1.0000
  K   K8        1.0  0.36211  0.75000  0.75000  1.0000
  O   O1        1.0  0.98345  0.84593  0.31048  1.0000
  O   O2        1.0  0.51655  0.15407  0.31048  1.0000
  O   O3        1.0  0.01655  0.84593  0.18952  1.0000
  O   O4        1.0  0.48345  0.15407  0.18952  1.0000
  O   O5        1.0  0.48345  0.34593  0.31048  1.0000
  O   O6        1.0  0.01655  0.65407  0.31048  1.0000
  O   O7        1.0  0.51655  0.34593  0.18952  1.0000
  O   O8        1.0  0.98345  0.65407  0.18952  1.0000
  O   O9        1.0  0.01655  0.15407  0.68952  1.0000
  O   O10       1.0  0.48345  0.84593  0.68952  1.0000
  O   O11       1.0  0.98345  0.15407  0.81048  1.0000
  O   O12       1.0  0.51655  0.84593  0.81048  1.0000
  O   O13       1.0  0.51655  0.65407  0.68952  1.0000
  O   O14       1.0  0.98345  0.34593  0.68952  1.0000
  O   O15       1.0  0.48345  0.65407  0.81048  1.0000
  O   O16       1.0  0.01655  0.34593  0.81048  1.0000
  O   O17       1.0  0.93396  0.12388  0.30609  1.0000
  O   O18       1.0  0.56604  0.87612  0.30609  1.0000
  O   O19       1.0  0.06604  0.12388  0.19391  1.0000
  O   O20       1.0  0.43396  0.87612  0.19391  1.0000
  O   O21       1.0  0.43396  0.62388  0.30609  1.0000
  O   O22       1.0  0.06604  0.37612  0.30609  1.0000
  O   O23       1.0  0.56604  0.62388  0.19391  1.0000
  O   O24       1.0  0.93396  0.37612  0.19391  1.0000
  O   O25       1.0  0.06604  0.87612  0.69391  1.0000
  O   O26       1.0  0.43396  0.12388  0.69391  1.0000
  O   O27       1.0  0.93396  0.87612  0.80609  1.0000
  O   O28       1.0  0.56604  0.12388  0.80609  1.0000
  O   O29       1.0  0.56604  0.37612  0.69391  1.0000
  O   O30       1.0  0.93396  0.62388  0.69391  1.0000
  O   O31       1.0  0.43396  0.37612  0.80609  1.0000
  O   O32       1.0  0.06604  0.62388  0.80609  1.0000
  O   O33       1.0  0.86809  0.06309  0.20989  1.0000
  O   O34       1.0  0.63191  0.93691  0.20989  1.0000
  O   O35       1.0  0.13191  0.06309  0.29011  1.0000
  O   O36       1.0  0.36809  0.93691  0.29011  1.0000
  O   O37       1.0  0.36809  0.56309  0.20989  1.0000
  O   O38       1.0  0.13191  0.43691  0.20989  1.0000
  O   O39       1.0  0.63191  0.56309  0.29011  1.0000
  O   O40       1.0  0.86809  0.43691  0.29011  1.0000
  O   O41       1.0  0.13191  0.93691  0.79011  1.0000
  O   O42       1.0  0.36809  0.06309  0.79011  1.0000
  O   O43       1.0  0.86809  0.93691  0.70989  1.0000
  O   O44       1.0  0.63191  0.06309  0.70989  1.0000
  O   O45       1.0  0.63191  0.43691  0.79011  1.0000
  O   O46       1.0  0.86809  0.56309  0.79011  1.0000
  O   O47       1.0  0.36809  0.43691  0.70989  1.0000
  O   O48       1.0  0.13191  0.56309  0.70989  1.0000
  O   O49       1.0  0.97402  0.96851  0.30616  1.0000
  O   O50       1.0  0.52598  0.03149  0.30616  1.0000
  O   O51       1.0  0.02598  0.96851  0.19384  1.0000
  O   O52       1.0  0.47402  0.03149  0.19384  1.0000
  O   O53       1.0  0.47402  0.46851  0.30616  1.0000
  O   O54       1.0  0.02598  0.53149  0.30616  1.0000
  O   O55       1.0  0.52598  0.46851  0.19384  1.0000
  O   O56       1.0  0.97402  0.53149  0.19384  1.0000
  O   O57       1.0  0.02598  0.03149  0.69384  1.0000
  O   O58       1.0  0.47402  0.96851  0.69384  1.0000
  O   O59       1.0  0.97402  0.03149  0.80616  1.0000
  O   O60       1.0  0.52598  0.96851  0.80616  1.0000
  O   O61       1.0  0.52598  0.53149  0.69384  1.0000
  O   O62       1.0  0.97402  0.46851  0.69384  1.0000
  O   O63       1.0  0.47402  0.53149  0.80616  1.0000
  O   O64       1.0  0.02598  0.46851  0.80616  1.0000
  O   O65       1.0  0.72397  0.12325  0.21419  1.0000
  O   O66       1.0  0.77603  0.87675  0.21419  1.0000
  O   O67       1.0  0.27603  0.12325  0.28581  1.0000
  O   O68       1.0  0.22397  0.87675  0.28581  1.0000
  O   O69       1.0  0.22397  0.62325  0.21419  1.0000
  O   O70       1.0  0.27603  0.37675  0.21419  1.0000
  O   O71       1.0  0.77603  0.62325  0.28581  1.0000
  O   O72       1.0  0.72397  0.37675  0.28581  1.0000
  O   O73       1.0  0.27603  0.87675  0.78581  1.0000
  O   O74       1.0  0.22397  0.12325  0.78581  1.0000
  O   O75       1.0  0.72397  0.87675  0.71419  1.0000
  O   O76       1.0  0.77603  0.12325  0.71419  1.0000
  O   O77       1.0  0.77603  0.37675  0.78581  1.0000
  O   O78       1.0  0.72397  0.62325  0.78581  1.0000
  O   O79       1.0  0.22397  0.37675  0.71419  1.0000
  O   O80       1.0  0.27603  0.62325  0.71419  1.0000
  C   C1        1.0  0.98766  0.90496  0.28397  1.0000
  C   C2        1.0  0.51234  0.09504  0.28397  1.0000
  C   C3        1.0  0.01234  0.90496  0.21603  1.0000
  C   C4        1.0  0.48766  0.09504  0.21603  1.0000
  C   C5        1.0  0.48766  0.40496  0.28397  1.0000
  C   C6        1.0  0.01234  0.59504  0.28397  1.0000
  C   C7        1.0  0.51234  0.40496  0.21603  1.0000
  C   C8        1.0  0.98766  0.59504  0.21603  1.0000
  C   C9        1.0  0.01234  0.09504  0.71603  1.0000
  C   C10       1.0  0.48766  0.90496  0.71603  1.0000
  C   C11       1.0  0.98766  0.09504  0.78397  1.0000
  C   C12       1.0  0.51234  0.90496  0.78397  1.0000
  C   C13       1.0  0.51234  0.59504  0.71603  1.0000
  C   C14       1.0  0.98766  0.40496  0.71603  1.0000
  C   C15       1.0  0.48766  0.59504  0.78397  1.0000
  C   C16       1.0  0.01234  0.40496  0.78397  1.0000
  O   O81       1.0  0.79347  0.18681  0.32028  1.0000
  O   O82       1.0  0.70653  0.81319  0.32028  1.0000
  O   O83       1.0  0.20653  0.18681  0.17972  1.0000
  O   O84       1.0  0.29347  0.81319  0.17972  1.0000
  O   O85       1.0  0.29347  0.68681  0.32028  1.0000
  O   O86       1.0  0.20653  0.31319  0.32028  1.0000
  O   O87       1.0  0.70653  0.68681  0.17972  1.0000
  O   O88       1.0  0.79347  0.31319  0.17972  1.0000
  O   O89       1.0  0.20653  0.81319  0.67972  1.0000
  O   O90       1.0  0.29347  0.18681  0.67972  1.0000
  O   O91       1.0  0.79347  0.81319  0.82028  1.0000
  O   O92       1.0  0.70653  0.18681  0.82028  1.0000
  O   O93       1.0  0.70653  0.31319  0.67972  1.0000
  O   O94       1.0  0.79347  0.68681  0.67972  1.0000
  O   O95       1.0  0.29347  0.31319  0.82028  1.0000
  O   O96       1.0  0.20653  0.68681  0.82028  1.0000
  C   C17       1.0  0.80570  0.10824  0.23398  1.0000
  C   C18       1.0  0.69430  0.89176  0.23398  1.0000
  C   C19       1.0  0.19430  0.10824  0.26602  1.0000
  C   C20       1.0  0.30570  0.89176  0.26602  1.0000
  C   C21       1.0  0.30570  0.60824  0.23398  1.0000
  C   C22       1.0  0.19430  0.39176  0.23398  1.0000
  C   C23       1.0  0.69430  0.60824  0.26602  1.0000
  C   C24       1.0  0.80570  0.39176  0.26602  1.0000
  C   C25       1.0  0.19430  0.89176  0.76602  1.0000
  C   C26       1.0  0.30570  0.10824  0.76602  1.0000
  C   C27       1.0  0.80570  0.89176  0.73398  1.0000
  C   C28       1.0  0.69430  0.10824  0.73398  1.0000
  C   C29       1.0  0.69430  0.39176  0.76602  1.0000
  C   C30       1.0  0.80570  0.60824  0.76602  1.0000
  C   C31       1.0  0.30570  0.39176  0.73398  1.0000
  C   C32       1.0  0.19430  0.60824  0.73398  1.0000
  C   C33       1.0  0.84570  0.14393  0.29233  1.0000
  C   C34       1.0  0.65430  0.85607  0.29233  1.0000
  C   C35       1.0  0.15430  0.14393  0.20767  1.0000
  C   C36       1.0  0.34570  0.85607  0.20767  1.0000
  C   C37       1.0  0.34570  0.64393  0.29233  1.0000
  C   C38       1.0  0.15430  0.35607  0.29233  1.0000
  C   C39       1.0  0.65430  0.64393  0.20767  1.0000
  C   C40       1.0  0.84570  0.35607  0.20767  1.0000
  C   C41       1.0  0.15430  0.85607  0.70767  1.0000
  C   C42       1.0  0.34570  0.14393  0.70767  1.0000
  C   C43       1.0  0.84570  0.85607  0.79233  1.0000
  C   C44       1.0  0.65430  0.14393  0.79233  1.0000
  C   C45       1.0  0.65430  0.35607  0.70767  1.0000
  C   C46       1.0  0.84570  0.64393  0.70767  1.0000
  C   C47       1.0  0.34570  0.35607  0.79233  1.0000
  C   C48       1.0  0.15430  0.64393  0.79233  1.0000
