data_image0
_chemical_formula_structural       Cr2O12Mn2O14C2Br2C6Br2C6Br2C6Br2C6Br2C6Br2C6H2C4H2C2H2C2H2C2H2C2H2
_chemical_formula_sum              "Cr2 O26 Mn2 C50 Br12 H12"
_cell_length_a       9.9305
_cell_length_b       23.3857
_cell_length_c       12.1969
_cell_angle_alpha    90
_cell_angle_beta     105.571
_cell_angle_gamma    90

_space_group_name_H-M_alt    "P 1"
_space_group_IT_number       1

loop_
  _space_group_symop_operation_xyz
  'x, y, z'

loop_
  _atom_site_type_symbol
  _atom_site_label
  _atom_site_symmetry_multiplicity
  _atom_site_fract_x
  _atom_site_fract_y
  _atom_site_fract_z
  _atom_site_occupancy
  Cr  Cr1       1.0  0.18970  0.43191  0.68648  1.0000
  Cr  Cr2       1.0  0.81030  0.93191  0.31352  1.0000
  O   O1        1.0  0.23590  0.45000  0.85050  1.0000
  O   O2        1.0  0.76410  0.95000  0.14950  1.0000
  O   O3        1.0  0.33180  0.49090  0.68930  1.0000
  O   O4        1.0  0.66820  0.99090  0.31070  1.0000
  O   O5        1.0  0.94060  0.86910  0.30460  1.0000
  O   O6        1.0  0.05940  0.36910  0.69540  1.0000
  O   O7        1.0  0.67490  0.86870  0.28280  1.0000
  O   O8        1.0  0.32510  0.36870  0.71720  1.0000
  O   O9        1.0  0.14850  0.42370  0.52090  1.0000
  O   O10       1.0  0.85150  0.92370  0.47910  1.0000
  O   O11       1.0  0.04520  0.49090  0.64480  1.0000
  O   O12       1.0  0.95480  0.99090  0.35520  1.0000
  Mn  Mn1       1.0  0.77900  0.60273  0.13451  1.0000
  Mn  Mn2       1.0  0.22100  0.10273  0.86549  1.0000
  O   O13       1.0  0.66300  0.59910  0.95700  1.0000
  O   O14       1.0  0.33700  0.09910  0.04300  1.0000
  O   O15       1.0  0.58500  0.54840  0.12140  1.0000
  O   O16       1.0  0.41500  0.04840  0.87860  1.0000
  O   O17       1.0  0.64840  0.67900  0.15360  1.0000
  O   O18       1.0  0.35160  0.17900  0.84640  1.0000
  O   O19       1.0  0.92030  0.67550  0.19520  1.0000
  O   O20       1.0  0.07970  0.17550  0.80480  1.0000
  O   O21       1.0  0.80520  0.59430  0.32220  1.0000
  O   O22       1.0  0.19480  0.09430  0.67780  1.0000
  O   O23       1.0  0.89270  0.52180  0.19270  1.0000
  O   O24       1.0  0.10730  0.02180  0.80730  1.0000
  O   O25       1.0  0.94410  0.59650  0.03420  1.0000
  O   O26       1.0  0.05590  0.09650  0.96580  1.0000
  C   C1        1.0  0.39580  0.50160  0.99430  1.0000
  C   C2        1.0  0.60420  0.00160  0.00570  1.0000
  Br  Br1       1.0  0.32011  0.47275  0.10973  1.0000
  Br  Br2       1.0  0.67989  0.97275  0.89027  1.0000
  C   C3        1.0  0.33680  0.48520  0.88290  1.0000
  C   C4        1.0  0.66320  0.98520  0.11710  1.0000
  C   C5        1.0  0.39200  0.50940  0.79040  1.0000
  C   C6        1.0  0.60800  0.00940  0.20960  1.0000
  C   C7        1.0  0.49680  0.54990  0.81430  1.0000
  C   C8        1.0  0.50320  0.04990  0.18570  1.0000
  Br  Br3       1.0  0.55467  0.58577  0.69624  1.0000
  Br  Br4       1.0  0.44533  0.08577  0.30376  1.0000
  C   C9        1.0  0.56230  0.56480  0.92710  1.0000
  C   C10       1.0  0.43770  0.06480  0.07290  1.0000
  C   C11       1.0  0.51480  0.53740  0.02480  1.0000
  C   C12       1.0  0.48520  0.03740  0.97520  1.0000
  C   C13       1.0  0.94720  0.77210  0.25780  1.0000
  C   C14       1.0  0.05280  0.27210  0.74220  1.0000
  Br  Br5       1.0  0.14253  0.77092  0.27959  1.0000
  Br  Br6       1.0  0.85747  0.27092  0.72041  1.0000
  C   C15       1.0  0.88290  0.82050  0.27490  1.0000
  C   C16       1.0  0.11710  0.32050  0.72510  1.0000
  C   C17       1.0  0.72430  0.82150  0.25360  1.0000
  C   C18       1.0  0.27570  0.32150  0.74640  1.0000
  C   C19       1.0  0.64660  0.77370  0.21740  1.0000
  C   C20       1.0  0.35340  0.27370  0.78260  1.0000
  Br  Br7       1.0  0.45082  0.77510  0.19334  1.0000
  Br  Br8       1.0  0.54918  0.27510  0.80666  1.0000
  C   C21       1.0  0.71010  0.72320  0.19160  1.0000
  C   C22       1.0  0.28990  0.22320  0.80840  1.0000
  C   C23       1.0  0.87210  0.72150  0.21400  1.0000
  C   C24       1.0  0.12790  0.22150  0.78600  1.0000
  C   C25       1.0  0.02270  0.46750  0.34780  1.0000
  C   C26       1.0  0.97730  0.96750  0.65220  1.0000
  Br  Br9       1.0  0.08697  0.41709  0.25320  1.0000
  Br  Br10      1.0  0.91303  0.91709  0.74680  1.0000
  C   C27       1.0  0.06320  0.46250  0.46470  1.0000
  C   C28       1.0  0.93680  0.96250  0.53530  1.0000
  C   C29       1.0  0.00540  0.50300  0.53810  1.0000
  C   C30       1.0  0.99460  0.00300  0.46190  1.0000
  C   C31       1.0  0.91670  0.54540  0.48990  1.0000
  C   C32       1.0  0.08330  0.04540  0.51010  1.0000
  Br  Br11      1.0  0.85191  0.59731  0.58347  1.0000
  Br  Br12      1.0  0.14809  0.09731  0.41653  1.0000
  C   C33       1.0  0.87810  0.55510  0.37140  1.0000
  C   C34       1.0  0.12190  0.05510  0.62860  1.0000
  C   C35       1.0  0.93310  0.51310  0.29720  1.0000
  C   C36       1.0  0.06690  0.01310  0.70280  1.0000
  C   C37       1.0  0.06800  0.60500  0.06000  1.0000
  C   C38       1.0  0.93200  0.10500  0.94000  1.0000
  H   H1        1.0  0.11640  0.60130  0.13820  1.0000
  H   H2        1.0  0.88360  0.10130  0.86180  1.0000
  C   C39       1.0  0.14770  0.61980  0.98530  1.0000
  C   C40       1.0  0.85230  0.11980  0.01470  1.0000
  C   C41       1.0  0.27390  0.64810  0.02910  1.0000
  C   C42       1.0  0.72610  0.14810  0.97090  1.0000
  H   H3        1.0  0.30630  0.65540  0.10840  1.0000
  H   H4        1.0  0.69370  0.15540  0.89160  1.0000
  C   C43       1.0  0.35280  0.66560  0.95670  1.0000
  C   C44       1.0  0.64720  0.16560  0.04330  1.0000
  H   H5        1.0  0.43910  0.68490  0.98660  1.0000
  H   H6        1.0  0.56090  0.18490  0.01340  1.0000
  C   C45       1.0  0.30550  0.65490  0.84060  1.0000
  C   C46       1.0  0.69450  0.15490  0.15940  1.0000
  H   H7        1.0  0.35940  0.66690  0.79110  1.0000
  H   H8        1.0  0.64060  0.16690  0.20890  1.0000
  C   C47       1.0  0.17930  0.62670  0.79680  1.0000
  C   C48       1.0  0.82070  0.12670  0.20320  1.0000
  H   H9        1.0  0.14700  0.61940  0.71750  1.0000
  H   H10       1.0  0.85300  0.11940  0.28250  1.0000
  C   C49       1.0  0.10040  0.60910  0.86920  1.0000
  C   C50       1.0  0.89960  0.10910  0.13080  1.0000
  H   H11       1.0  0.01420  0.58980  0.83930  1.0000
  H   H12       1.0  0.98580  0.08980  0.16070  1.0000
