data_image0
_chemical_formula_structural       Cr2O12Mn2O6C2Cl2C6Cl2C6Cl2C6Cl2C4O4C2Cl2C6Cl2C4O4C2H2C4H2C2H2C2H2C2H2C2H2
_chemical_formula_sum              "Cr2 O26 Mn2 C50 Cl12 H12"
_cell_length_a       9.7273
_cell_length_b       23.3255
_cell_length_c       11.8406
_cell_angle_alpha    90
_cell_angle_beta     101.927
_cell_angle_gamma    90

_space_group_name_H-M_alt    "P 1"
_space_group_IT_number       1

loop_
  _space_group_symop_operation_xyz
  'x, y, z'

loop_
  _atom_site_type_symbol
  _atom_site_label
  _atom_site_symmetry_multiplicity
  _atom_site_fract_x
  _atom_site_fract_y
  _atom_site_fract_z
  _atom_site_occupancy
  Cr  Cr1       1.0  0.71446  0.56680  0.71591  1.0000
  Cr  Cr2       1.0  0.28554  0.06680  0.28409  1.0000
  O   O1        1.0  0.75880  0.55036  0.88295  1.0000
  O   O2        1.0  0.24120  0.05036  0.11705  1.0000
  O   O3        1.0  0.86320  0.50997  0.71665  1.0000
  O   O4        1.0  0.13680  0.00997  0.28335  1.0000
  O   O5        1.0  0.57350  0.50610  0.67757  1.0000
  O   O6        1.0  0.42650  0.00610  0.32243  1.0000
  O   O7        1.0  0.67970  0.57437  0.54656  1.0000
  O   O8        1.0  0.32030  0.07437  0.45344  1.0000
  O   O9        1.0  0.57640  0.62738  0.72568  1.0000
  O   O10       1.0  0.42360  0.12738  0.27432  1.0000
  O   O11       1.0  0.84430  0.63231  0.73996  1.0000
  O   O12       1.0  0.15570  0.13231  0.26004  1.0000
  Mn  Mn1       1.0  0.30474  0.40251  0.15817  1.0000
  Mn  Mn2       1.0  0.69526  0.90251  0.84183  1.0000
  O   O13       1.0  0.19470  0.40464  0.97884  1.0000
  O   O14       1.0  0.80530  0.90464  0.02116  1.0000
  O   O15       1.0  0.11620  0.45834  0.15059  1.0000
  O   O16       1.0  0.88380  0.95834  0.84941  1.0000
  O   O17       1.0  0.47510  0.40999  0.04790  1.0000
  O   O18       1.0  0.52490  0.90999  0.95210  1.0000
  C   C1        1.0  0.92570  0.50340  0.02670  1.0000
  C   C2        1.0  0.07430  0.00340  0.97330  1.0000
  Cl  Cl1       1.0  0.85370  0.52981  0.13917  1.0000
  Cl  Cl2       1.0  0.14630  0.02981  0.86083  1.0000
  C   C3        1.0  0.86380  0.51686  0.91450  1.0000
  C   C4        1.0  0.13620  0.01686  0.08550  1.0000
  C   C5        1.0  0.92250  0.49168  0.81650  1.0000
  C   C6        1.0  0.07750  0.99168  0.18350  1.0000
  C   C7        1.0  0.02860  0.45227  0.83740  1.0000
  C   C8        1.0  0.97140  0.95227  0.16260  1.0000
  Cl  Cl3       1.0  0.08568  0.41850  0.72512  1.0000
  Cl  Cl4       1.0  0.91432  0.91850  0.27488  1.0000
  C   C9        1.0  0.09510  0.43855  0.95220  1.0000
  C   C10       1.0  0.90490  0.93855  0.04780  1.0000
  C   C11       1.0  0.04530  0.46856  0.05270  1.0000
  C   C12       1.0  0.95470  0.96856  0.94730  1.0000
  C   C13       1.0  0.44700  0.45207  0.52190  1.0000
  C   C14       1.0  0.55300  0.95207  0.47810  1.0000
  Cl  Cl5       1.0  0.38112  0.40521  0.61040  1.0000
  Cl  Cl6       1.0  0.61888  0.90521  0.38960  1.0000
  C   C15       1.0  0.53490  0.49591  0.56870  1.0000
  C   C16       1.0  0.46510  0.99591  0.43130  1.0000
  C   C17       1.0  0.59430  0.53669  0.49160  1.0000
  C   C18       1.0  0.40570  0.03669  0.50840  1.0000
  C   C19       1.0  0.55640  0.53212  0.37440  1.0000
  C   C20       1.0  0.44360  0.03212  0.62560  1.0000
  Cl  Cl7       1.0  0.62132  0.57995  0.28483  1.0000
  Cl  Cl8       1.0  0.37868  0.07995  0.71517  1.0000
  C   C21       1.0  0.46620  0.48830  0.32310  1.0000
  C   C22       1.0  0.53380  0.98830  0.67690  1.0000
  C   C23       1.0  0.40860  0.44490  0.40070  1.0000
  C   C24       1.0  0.59140  0.94490  0.59930  1.0000
  O   O19       1.0  0.42600  0.48051  0.21743  1.0000
  O   O20       1.0  0.57400  0.98051  0.78257  1.0000
  O   O21       1.0  0.33220  0.40680  0.35101  1.0000
  O   O22       1.0  0.66780  0.90680  0.64899  1.0000
  C   C25       1.0  0.55430  0.72717  0.75270  1.0000
  C   C26       1.0  0.44570  0.22717  0.24730  1.0000
  Cl  Cl9       1.0  0.37260  0.72464  0.73807  1.0000
  Cl  Cl10      1.0  0.62740  0.22464  0.26193  1.0000
  C   C27       1.0  0.62880  0.67787  0.74340  1.0000
  C   C28       1.0  0.37120  0.17787  0.25660  1.0000
  C   C29       1.0  0.78750  0.68037  0.75520  1.0000
  C   C30       1.0  0.21250  0.18037  0.24480  1.0000
  C   C31       1.0  0.85800  0.73147  0.77980  1.0000
  C   C32       1.0  0.14200  0.23147  0.22020  1.0000
  Cl  Cl11      1.0  0.03910  0.73318  0.79559  1.0000
  Cl  Cl12      1.0  0.96090  0.23318  0.20441  1.0000
  C   C33       1.0  0.78500  0.78201  0.79610  1.0000
  C   C34       1.0  0.21500  0.28201  0.20390  1.0000
  C   C35       1.0  0.62350  0.77948  0.78070  1.0000
  C   C36       1.0  0.37650  0.27948  0.21930  1.0000
  O   O23       1.0  0.84020  0.82936  0.82300  1.0000
  O   O24       1.0  0.15980  0.32936  0.17700  1.0000
  O   O25       1.0  0.56560  0.82525  0.79650  1.0000
  O   O26       1.0  0.43440  0.32525  0.20350  1.0000
  C   C37       1.0  0.59920  0.39690  0.07630  1.0000
  C   C38       1.0  0.40080  0.89690  0.92370  1.0000
  H   H1        1.0  0.64160  0.39620  0.15610  1.0000
  H   H2        1.0  0.35840  0.89620  0.84390  1.0000
  C   C39       1.0  0.68440  0.38250  0.99360  1.0000
  C   C40       1.0  0.31560  0.88250  0.00640  1.0000
  C   C41       1.0  0.81150  0.35323  0.03380  1.0000
  C   C42       1.0  0.18850  0.85323  0.96620  1.0000
  H   H3        1.0  0.84630  0.34876  0.11440  1.0000
  H   H4        1.0  0.15370  0.84876  0.88560  1.0000
  C   C43       1.0  0.88480  0.33119  0.95700  1.0000
  C   C44       1.0  0.11520  0.83119  0.04300  1.0000
  H   H5        1.0  0.96870  0.31008  0.98390  1.0000
  H   H6        1.0  0.03130  0.81008  0.01610  1.0000
  C   C45       1.0  0.83570  0.33990  0.83770  1.0000
  C   C46       1.0  0.16430  0.83990  0.16230  1.0000
  H   H7        1.0  0.88500  0.32350  0.78420  1.0000
  H   H8        1.0  0.11500  0.82350  0.21580  1.0000
  C   C47       1.0  0.71750  0.37167  0.79860  1.0000
  C   C48       1.0  0.28250  0.87167  0.20140  1.0000
  H   H9        1.0  0.68770  0.37915  0.71840  1.0000
  H   H10       1.0  0.31230  0.87915  0.28160  1.0000
  C   C49       1.0  0.63970  0.39345  0.87740  1.0000
  C   C50       1.0  0.36030  0.89345  0.12260  1.0000
  H   H11       1.0  0.55720  0.41544  0.85060  1.0000
  H   H12       1.0  0.44280  0.91544  0.14940  1.0000
