data_image0
_chemical_formula_structural       Cr2O12Mn2O6C2Cl2C6Cl2C6Cl2C6Cl2C4O4C2Cl2C6Cl2C4O4C2H2C4H2C2H2C2H2C2H2C2H2
_chemical_formula_sum              "Cr2 O26 Mn2 C50 Cl12 H12"
_cell_length_a       9.7541
_cell_length_b       23.4347
_cell_length_c       11.8795
_cell_angle_alpha    90
_cell_angle_beta     102.527
_cell_angle_gamma    90

_space_group_name_H-M_alt    "P 1"
_space_group_IT_number       1

loop_
  _space_group_symop_operation_xyz
  'x, y, z'

loop_
  _atom_site_type_symbol
  _atom_site_label
  _atom_site_symmetry_multiplicity
  _atom_site_fract_x
  _atom_site_fract_y
  _atom_site_fract_z
  _atom_site_occupancy
  Cr  Cr1       1.0  0.20932  0.57000  0.71369  1.0000
  Cr  Cr2       1.0  0.79068  0.07000  0.28631  1.0000
  O   O1        1.0  0.35670  0.51250  0.71590  1.0000
  O   O2        1.0  0.64330  0.01250  0.28410  1.0000
  O   O3        1.0  0.25390  0.55370  0.88120  1.0000
  O   O4        1.0  0.74610  0.05370  0.11880  1.0000
  O   O5        1.0  0.34270  0.63390  0.73680  1.0000
  O   O6        1.0  0.65730  0.13390  0.26320  1.0000
  O   O7        1.0  0.07430  0.63110  0.72280  1.0000
  O   O8        1.0  0.92570  0.13110  0.27720  1.0000
  O   O9        1.0  0.17210  0.57680  0.54400  1.0000
  O   O10       1.0  0.82790  0.07680  0.45600  1.0000
  O   O11       1.0  0.06680  0.50950  0.67650  1.0000
  O   O12       1.0  0.93320  0.00950  0.32350  1.0000
  Mn  Mn1       1.0  0.20630  0.90404  0.83911  1.0000
  Mn  Mn2       1.0  0.79370  0.40404  0.16089  1.0000
  O   O13       1.0  0.60440  0.45950  0.15190  1.0000
  O   O14       1.0  0.39560  0.95950  0.84810  1.0000
  O   O15       1.0  0.68770  0.40870  0.98080  1.0000
  O   O16       1.0  0.31230  0.90870  0.01920  1.0000
  O   O17       1.0  0.03270  0.91180  0.94990  1.0000
  O   O18       1.0  0.96730  0.41180  0.05010  1.0000
  C   C1        1.0  0.52370  0.45490  0.84040  1.0000
  C   C2        1.0  0.47630  0.95490  0.15960  1.0000
  Cl  Cl1       1.0  0.58110  0.42242  0.72740  1.0000
  Cl  Cl2       1.0  0.41890  0.92242  0.27260  1.0000
  C   C3        1.0  0.41570  0.49480  0.81690  1.0000
  C   C4        1.0  0.58430  0.99480  0.18310  1.0000
  C   C5        1.0  0.35630  0.51990  0.91480  1.0000
  C   C6        1.0  0.64370  0.01990  0.08520  1.0000
  C   C7        1.0  0.41500  0.50600  0.02720  1.0000
  C   C8        1.0  0.58500  0.00600  0.97280  1.0000
  Cl  Cl3       1.0  0.34550  0.53269  0.13630  1.0000
  Cl  Cl4       1.0  0.65450  0.03269  0.86370  1.0000
  C   C9        1.0  0.53590  0.47160  0.05390  1.0000
  C   C10       1.0  0.46410  0.97160  0.94610  1.0000
  C   C11       1.0  0.58880  0.44130  0.95170  1.0000
  C   C12       1.0  0.41120  0.94130  0.04830  1.0000
  C   C13       1.0  0.35990  0.73300  0.77880  1.0000
  C   C14       1.0  0.64010  0.23300  0.22120  1.0000
  Cl  Cl5       1.0  0.54100  0.73367  0.79470  1.0000
  Cl  Cl6       1.0  0.45900  0.23367  0.20530  1.0000
  C   C15       1.0  0.28760  0.68260  0.75480  1.0000
  C   C16       1.0  0.71240  0.18260  0.24520  1.0000
  C   C17       1.0  0.12840  0.68190  0.74140  1.0000
  C   C18       1.0  0.87160  0.18190  0.25860  1.0000
  C   C19       1.0  0.05550  0.72990  0.75220  1.0000
  C   C20       1.0  0.94450  0.22990  0.24780  1.0000
  Cl  Cl7       1.0  0.87490  0.72912  0.73840  1.0000
  Cl  Cl8       1.0  0.12510  0.22912  0.26160  1.0000
  C   C21       1.0  0.12880  0.78200  0.78120  1.0000
  C   C22       1.0  0.87120  0.28200  0.21880  1.0000
  C   C23       1.0  0.29040  0.78330  0.79460  1.0000
  C   C24       1.0  0.70960  0.28330  0.20540  1.0000
  O   O19       1.0  0.07190  0.82800  0.79540  1.0000
  O   O20       1.0  0.92810  0.32800  0.20460  1.0000
  O   O21       1.0  0.34690  0.83040  0.82130  1.0000
  O   O22       1.0  0.65310  0.33040  0.17870  1.0000
  C   C25       1.0  0.04880  0.53540  0.37220  1.0000
  C   C26       1.0  0.95120  0.03540  0.62780  1.0000
  Cl  Cl9       1.0  0.11060  0.58099  0.28280  1.0000
  Cl  Cl10      1.0  0.88940  0.08099  0.71720  1.0000
  C   C27       1.0  0.08590  0.54010  0.49070  1.0000
  C   C28       1.0  0.91410  0.04010  0.50930  1.0000
  C   C29       1.0  0.02630  0.49900  0.56780  1.0000
  C   C30       1.0  0.97370  0.99900  0.43220  1.0000
  C   C31       1.0  0.93810  0.45480  0.52200  1.0000
  C   C32       1.0  0.06190  0.95480  0.47800  1.0000
  Cl  Cl11      1.0  0.87310  0.40951  0.61120  1.0000
  Cl  Cl12      1.0  0.12690  0.90951  0.38880  1.0000
  C   C33       1.0  0.90070  0.44700  0.40240  1.0000
  C   C34       1.0  0.09930  0.94700  0.59760  1.0000
  C   C35       1.0  0.95930  0.48890  0.32300  1.0000
  C   C36       1.0  0.04070  0.98890  0.67700  1.0000
  O   O23       1.0  0.82110  0.40920  0.35080  1.0000
  O   O24       1.0  0.17890  0.90920  0.64920  1.0000
  O   O25       1.0  0.91690  0.48060  0.21710  1.0000
  O   O26       1.0  0.08310  0.98060  0.78290  1.0000
  C   C37       1.0  0.89900  0.90000  0.92600  1.0000
  C   C38       1.0  0.10100  0.40000  0.07400  1.0000
  H   H1        1.0  0.85280  0.90110  0.84670  1.0000
  H   H2        1.0  0.14720  0.40110  0.15330  1.0000
  C   C39       1.0  0.82070  0.88630  0.00330  1.0000
  C   C40       1.0  0.17930  0.38630  0.99670  1.0000
  C   C41       1.0  0.69810  0.85550  0.96320  1.0000
  C   C42       1.0  0.30190  0.35550  0.03680  1.0000
  H   H3        1.0  0.66640  0.84870  0.88300  1.0000
  H   H4        1.0  0.33360  0.34870  0.11700  1.0000
  C   C43       1.0  0.62200  0.83460  0.04060  1.0000
  C   C44       1.0  0.37800  0.33460  0.95940  1.0000
  H   H5        1.0  0.53820  0.81350  0.01320  1.0000
  H   H6        1.0  0.46180  0.31350  0.98680  1.0000
  C   C45       1.0  0.66840  0.84460  0.15800  1.0000
  C   C46       1.0  0.33160  0.34460  0.84200  1.0000
  H   H7        1.0  0.61630  0.83040  0.21090  1.0000
  H   H8        1.0  0.38370  0.33040  0.78910  1.0000
  C   C47       1.0  0.79100  0.87550  0.19810  1.0000
  C   C48       1.0  0.20900  0.37550  0.80190  1.0000
  H   H9        1.0  0.82270  0.88230  0.27840  1.0000
  H   H10       1.0  0.17730  0.38230  0.72160  1.0000
  C   C49       1.0  0.86710  0.89630  0.12070  1.0000
  C   C50       1.0  0.13290  0.39630  0.87930  1.0000
  H   H11       1.0  0.95090  0.91740  0.14810  1.0000
  H   H12       1.0  0.04910  0.41740  0.85190  1.0000
