data_image0
_chemical_formula_structural       Cr2O12Mn2O6C2Br2C6Br2C6Br2C6Br2C4O4C2Br2C6Br2C4O4C2H2C4H2C2H2C2H2C2H2C2H2
_chemical_formula_sum              "Cr2 O26 Mn2 C50 Br12 H12"
_cell_length_a       9.9474
_cell_length_b       23.1114
_cell_length_c       12.1907
_cell_angle_alpha    90
_cell_angle_beta     104.656
_cell_angle_gamma    90

_space_group_name_H-M_alt    "P 1"
_space_group_IT_number       1

loop_
  _space_group_symop_operation_xyz
  'x, y, z'

loop_
  _atom_site_type_symbol
  _atom_site_label
  _atom_site_symmetry_multiplicity
  _atom_site_fract_x
  _atom_site_fract_y
  _atom_site_fract_z
  _atom_site_occupancy
  Cr  Cr1       1.0  0.80782  0.56812  0.31408  1.0000
  Cr  Cr2       1.0  0.19218  0.06812  0.68592  1.0000
  O   O1        1.0  0.66370  0.50890  0.31140  1.0000
  O   O2        1.0  0.33630  0.00890  0.68860  1.0000
  O   O3        1.0  0.76410  0.55010  0.15130  1.0000
  O   O4        1.0  0.23590  0.05010  0.84870  1.0000
  O   O5        1.0  0.93900  0.63140  0.30520  1.0000
  O   O6        1.0  0.06100  0.13140  0.69480  1.0000
  O   O7        1.0  0.67350  0.63240  0.28400  1.0000
  O   O8        1.0  0.32650  0.13240  0.71600  1.0000
  O   O9        1.0  0.95070  0.50760  0.35550  1.0000
  O   O10       1.0  0.04930  0.00760  0.64450  1.0000
  O   O11       1.0  0.84530  0.57610  0.48060  1.0000
  O   O12       1.0  0.15470  0.07610  0.51940  1.0000
  Mn  Mn1       1.0  0.78095  0.90067  0.13196  1.0000
  Mn  Mn2       1.0  0.21905  0.40067  0.86804  1.0000
  O   O13       1.0  0.41230  0.45450  0.87980  1.0000
  O   O14       1.0  0.58770  0.95450  0.12020  1.0000
  O   O15       1.0  0.33190  0.40280  0.04450  1.0000
  O   O16       1.0  0.66810  0.90280  0.95550  1.0000
  O   O17       1.0  0.94440  0.90670  0.02860  1.0000
  O   O18       1.0  0.05560  0.40670  0.97140  1.0000
  C   C1        1.0  0.49830  0.45090  0.18780  1.0000
  C   C2        1.0  0.50170  0.95090  0.81220  1.0000
  Br  Br1       1.0  0.43995  0.41435  0.30472  1.0000
  Br  Br2       1.0  0.56005  0.91435  0.69528  1.0000
  C   C3        1.0  0.60530  0.49140  0.21280  1.0000
  C   C4        1.0  0.39470  0.99140  0.78720  1.0000
  C   C5        1.0  0.66190  0.51560  0.11660  1.0000
  C   C6        1.0  0.33810  0.01560  0.88340  1.0000
  C   C7        1.0  0.60140  0.50160  0.00570  1.0000
  C   C8        1.0  0.39860  0.00160  0.99430  1.0000
  Br  Br3       1.0  0.67966  0.52810  0.89051  1.0000
  Br  Br4       1.0  0.32034  0.02810  0.10949  1.0000
  C   C9        1.0  0.48090  0.46630  0.97640  1.0000
  C   C10       1.0  0.51910  0.96630  0.02360  1.0000
  C   C11       1.0  0.43120  0.43760  0.07430  1.0000
  C   C12       1.0  0.56880  0.93760  0.92570  1.0000
  C   C13       1.0  0.94610  0.73020  0.25710  1.0000
  C   C14       1.0  0.05390  0.23020  0.74290  1.0000
  Br  Br5       1.0  0.14138  0.73160  0.28101  1.0000
  Br  Br6       1.0  0.85862  0.23160  0.71899  1.0000
  C   C15       1.0  0.88150  0.67950  0.27430  1.0000
  C   C16       1.0  0.11850  0.17950  0.72570  1.0000
  C   C17       1.0  0.72230  0.68010  0.25520  1.0000
  C   C18       1.0  0.27770  0.18010  0.74480  1.0000
  C   C19       1.0  0.64740  0.72910  0.21850  1.0000
  C   C20       1.0  0.35260  0.22910  0.78150  1.0000
  Br  Br7       1.0  0.45219  0.72713  0.19472  1.0000
  Br  Br8       1.0  0.54781  0.22713  0.80528  1.0000
  C   C21       1.0  0.71040  0.77990  0.19180  1.0000
  C   C22       1.0  0.28960  0.27990  0.80820  1.0000
  C   C23       1.0  0.87170  0.77940  0.21530  1.0000
  C   C24       1.0  0.12830  0.27940  0.78470  1.0000
  O   O19       1.0  0.65080  0.82410  0.15210  1.0000
  O   O20       1.0  0.34920  0.32410  0.84790  1.0000
  O   O21       1.0  0.92160  0.82720  0.19170  1.0000
  O   O22       1.0  0.07840  0.32720  0.80830  1.0000
  C   C25       1.0  0.07890  0.45320  0.51010  1.0000
  C   C26       1.0  0.92110  0.95320  0.48990  1.0000
  Br  Br9       1.0  0.14518  0.40076  0.41949  1.0000
  Br  Br10      1.0  0.85482  0.90076  0.58051  1.0000
  C   C27       1.0  0.99150  0.49630  0.46310  1.0000
  C   C28       1.0  0.00850  0.99630  0.53690  1.0000
  C   C29       1.0  0.93270  0.53870  0.53540  1.0000
  C   C30       1.0  0.06730  0.03870  0.46460  1.0000
  C   C31       1.0  0.97500  0.53390  0.65260  1.0000
  C   C32       1.0  0.02500  0.03390  0.34740  1.0000
  Br  Br11      1.0  0.90763  0.58645  0.74539  1.0000
  Br  Br12      1.0  0.09237  0.08645  0.25461  1.0000
  C   C33       1.0  0.06330  0.48940  0.70330  1.0000
  C   C34       1.0  0.93670  0.98940  0.29670  1.0000
  C   C35       1.0  0.11920  0.44650  0.62910  1.0000
  C   C36       1.0  0.88080  0.94650  0.37090  1.0000
  O   O23       1.0  0.10290  0.48110  0.80820  1.0000
  O   O24       1.0  0.89710  0.98110  0.19180  1.0000
  O   O25       1.0  0.19570  0.40700  0.68000  1.0000
  O   O26       1.0  0.80430  0.90700  0.32000  1.0000
  C   C37       1.0  0.07410  0.89530  0.05920  1.0000
  C   C38       1.0  0.92590  0.39530  0.94080  1.0000
  H   H1        1.0  0.11900  0.89530  0.13780  1.0000
  H   H2        1.0  0.88100  0.39530  0.86220  1.0000
  C   C39       1.0  0.15470  0.88260  0.98090  1.0000
  C   C40       1.0  0.84530  0.38260  0.01910  1.0000
  C   C41       1.0  0.35480  0.83400  0.95110  1.0000
  C   C42       1.0  0.64520  0.33400  0.04890  1.0000
  H   H3        1.0  0.43990  0.81400  0.97980  1.0000
  H   H4        1.0  0.56010  0.31400  0.02020  1.0000
  C   C43       1.0  0.28010  0.85420  0.02520  1.0000
  C   C44       1.0  0.71990  0.35420  0.97480  1.0000
  H   H5        1.0  0.31380  0.84870  0.10470  1.0000
  H   H6        1.0  0.68620  0.34870  0.89530  1.0000
  C   C45       1.0  0.30760  0.84260  0.83930  1.0000
  C   C46       1.0  0.69240  0.34260  0.16070  1.0000
  H   H7        1.0  0.35990  0.82830  0.78980  1.0000
  H   H8        1.0  0.64010  0.32830  0.21020  1.0000
  C   C47       1.0  0.18110  0.87260  0.79260  1.0000
  C   C48       1.0  0.81890  0.37260  0.20740  1.0000
  H   H9        1.0  0.14840  0.87890  0.71330  1.0000
  H   H10       1.0  0.85160  0.37890  0.28670  1.0000
  C   C49       1.0  0.11030  0.89150  0.86560  1.0000
  C   C50       1.0  0.88970  0.39150  0.13440  1.0000
  H   H11       1.0  0.02580  0.91190  0.83660  1.0000
  H   H12       1.0  0.97420  0.41190  0.16340  1.0000
