data_image0
_chemical_formula_structural       U2Fe2MgO4H4O22H4O10C6H4C4H4C8H4C6H4
_chemical_formula_sum              "U2 Fe2 Mg1 O36 H24 C24"
_cell_length_a       9.2106
_cell_length_b       9.8799
_cell_length_c       15.1866
_cell_angle_alpha    84.12
_cell_angle_beta     88.101
_cell_angle_gamma    83.115

_space_group_name_H-M_alt    "P 1"
_space_group_IT_number       1

loop_
  _space_group_symop_operation_xyz
  'x, y, z'

loop_
  _atom_site_type_symbol
  _atom_site_label
  _atom_site_symmetry_multiplicity
  _atom_site_fract_x
  _atom_site_fract_y
  _atom_site_fract_z
  _atom_site_occupancy
  U   U1        1.0  0.98101  0.31775  0.09550  1.0000
  U   U2        1.0  0.01899  0.68225  0.90450  1.0000
  Fe  Fe1       1.0  0.24040  0.17535  0.25732  1.0000
  Fe  Fe2       1.0  0.75960  0.82465  0.74268  1.0000
  Mg  Mg1       1.0  0.00000  0.50000  0.50000  1.0000
  O   O1        1.0  0.16610  0.32620  0.33630  1.0000
  O   O2        1.0  0.83390  0.67380  0.66370  1.0000
  O   O3        1.0  0.05400  0.29120  0.50210  1.0000
  O   O4        1.0  0.94600  0.70880  0.49790  1.0000
  H   H1        1.0  0.09500  0.28500  0.44400  1.0000
  H   H2        1.0  0.90500  0.71500  0.55600  1.0000
  H   H3        1.0  0.98000  0.23200  0.51300  1.0000
  H   H4        1.0  0.02000  0.76800  0.48700  1.0000
  O   O5        1.0  0.22160  0.31840  0.15710  1.0000
  O   O6        1.0  0.77840  0.68160  0.84290  1.0000
  O   O7        1.0  0.22480  0.04780  0.36670  1.0000
  O   O8        1.0  0.77520  0.95220  0.63330  1.0000
  O   O9        1.0  0.43940  0.23220  0.26190  1.0000
  O   O10       1.0  0.56060  0.76780  0.73810  1.0000
  O   O11       1.0  0.04690  0.15430  0.21880  1.0000
  O   O12       1.0  0.95310  0.84570  0.78120  1.0000
  O   O13       1.0  0.10040  0.53320  0.37650  1.0000
  O   O14       1.0  0.89960  0.46680  0.62350  1.0000
  O   O15       1.0  0.81720  0.14450  0.13990  1.0000
  O   O16       1.0  0.18280  0.85550  0.86010  1.0000
  O   O17       1.0  0.14540  0.88050  0.45160  1.0000
  O   O18       1.0  0.85460  0.11950  0.54840  1.0000
  O   O19       1.0  0.32060  0.01360  0.19580  1.0000
  O   O20       1.0  0.67940  0.98640  0.80420  1.0000
  O   O21       1.0  0.11840  0.51270  0.03210  1.0000
  O   O22       1.0  0.88160  0.48730  0.96790  1.0000
  O   O23       1.0  0.05970  0.20900  0.01730  1.0000
  O   O24       1.0  0.94030  0.79100  0.98270  1.0000
  O   O25       1.0  0.19690  0.50600  0.55950  1.0000
  O   O26       1.0  0.80310  0.49400  0.44050  1.0000
  H   H5        1.0  0.20100  0.57500  0.59800  1.0000
  H   H6        1.0  0.79900  0.42500  0.40200  1.0000
  H   H7        1.0  0.24400  0.54300  0.50750  1.0000
  H   H8        1.0  0.75600  0.45700  0.49250  1.0000
  O   O27       1.0  0.90120  0.42880  0.17270  1.0000
  O   O28       1.0  0.09880  0.57120  0.82730  1.0000
  O   O29       1.0  0.26560  0.65580  0.97600  1.0000
  O   O30       1.0  0.73440  0.34420  0.02400  1.0000
  O   O31       1.0  0.76040  0.95260  0.21770  1.0000
  O   O32       1.0  0.23960  0.04740  0.78230  1.0000
  O   O33       1.0  0.54040  0.42380  0.24680  1.0000
  O   O34       1.0  0.45960  0.57620  0.75320  1.0000
  O   O35       1.0  0.32620  0.80430  0.16560  1.0000
  O   O36       1.0  0.67380  0.19570  0.83440  1.0000
  C   C1        1.0  0.12760  0.96530  0.38760  1.0000
  C   C2        1.0  0.87240  0.03470  0.61240  1.0000
  C   C3        1.0  0.99770  0.02360  0.23570  1.0000
  C   C4        1.0  0.00230  0.97640  0.76430  1.0000
  C   C5        1.0  0.98850  0.98090  0.33600  1.0000
  C   C6        1.0  0.01150  0.01910  0.66400  1.0000
  H   H9        1.0  0.91780  0.04940  0.36270  1.0000
  H   H10       1.0  0.08220  0.95060  0.63730  1.0000
  H   H11       1.0  0.94710  0.89240  0.34460  1.0000
  H   H12       1.0  0.05290  0.10760  0.65540  1.0000
  C   C7        1.0  0.25650  0.90950  0.18430  1.0000
  C   C8        1.0  0.74350  0.09050  0.81570  1.0000
  C   C9        1.0  0.09060  0.91820  0.18370  1.0000
  C   C10       1.0  0.90940  0.08180  0.81630  1.0000
  H   H13       1.0  0.06350  0.82670  0.20590  1.0000
  H   H14       1.0  0.93650  0.17330  0.79410  1.0000
  H   H15       1.0  0.06060  0.93590  0.12110  1.0000
  H   H16       1.0  0.93940  0.06410  0.87890  1.0000
  C   C11       1.0  0.84450  0.04030  0.19610  1.0000
  C   C12       1.0  0.15550  0.95970  0.80390  1.0000
  C   C13       1.0  0.44390  0.35640  0.23290  1.0000
  C   C14       1.0  0.55610  0.64360  0.76710  1.0000
  C   C15       1.0  0.24300  0.56080  0.03210  1.0000
  C   C16       1.0  0.75700  0.43920  0.96790  1.0000
  C   C17       1.0  0.36160  0.49850  0.09480  1.0000
  C   C18       1.0  0.63840  0.50150  0.90520  1.0000
  H   H17       1.0  0.41670  0.57220  0.11090  1.0000
  H   H18       1.0  0.58330  0.42780  0.88910  1.0000
  H   H19       1.0  0.43050  0.43360  0.06380  1.0000
  H   H20       1.0  0.56950  0.56640  0.93620  1.0000
  C   C19       1.0  0.30670  0.42380  0.17880  1.0000
  C   C20       1.0  0.69330  0.57620  0.82120  1.0000
  C   C21       1.0  0.15540  0.45610  0.32210  1.0000
  C   C22       1.0  0.84460  0.54390  0.67790  1.0000
  C   C23       1.0  0.21220  0.52190  0.23620  1.0000
  C   C24       1.0  0.78780  0.47810  0.76380  1.0000
  H   H21       1.0  0.27080  0.59470  0.24950  1.0000
  H   H22       1.0  0.72920  0.40530  0.75050  1.0000
  H   H23       1.0  0.12770  0.56650  0.20110  1.0000
  H   H24       1.0  0.87230  0.43350  0.79890  1.0000
