data_image0
_chemical_formula_structural       Mn4O32H8C12H8C8H8C4H4
_chemical_formula_sum              "Mn4 O32 H28 C24"
_cell_length_a       11.8952
_cell_length_b       8.4967
_cell_length_c       9.6999
_cell_angle_alpha    90
_cell_angle_beta     96.439
_cell_angle_gamma    90

_space_group_name_H-M_alt    "P 1"
_space_group_IT_number       1

loop_
  _space_group_symop_operation_xyz
  'x, y, z'

loop_
  _atom_site_type_symbol
  _atom_site_label
  _atom_site_symmetry_multiplicity
  _atom_site_fract_x
  _atom_site_fract_y
  _atom_site_fract_z
  _atom_site_occupancy
  Mn  Mn1       1.0  0.19929  0.10885  0.02461  1.0000
  Mn  Mn2       1.0  0.80071  0.60885  0.47539  1.0000
  Mn  Mn3       1.0  0.80071  0.89115  0.97539  1.0000
  Mn  Mn4       1.0  0.19929  0.39115  0.52461  1.0000
  O   O1        1.0  0.16997  0.10205  0.79628  1.0000
  O   O2        1.0  0.83003  0.60205  0.70372  1.0000
  O   O3        1.0  0.83003  0.89795  0.20372  1.0000
  O   O4        1.0  0.16997  0.39795  0.29628  1.0000
  O   O5        1.0  0.32800  0.95802  0.95012  1.0000
  O   O6        1.0  0.67200  0.45802  0.54988  1.0000
  O   O7        1.0  0.67200  0.04198  0.04988  1.0000
  O   O8        1.0  0.32800  0.54198  0.45012  1.0000
  O   O9        1.0  0.32243  0.74178  0.82063  1.0000
  O   O10       1.0  0.67757  0.24178  0.67937  1.0000
  O   O11       1.0  0.67757  0.25822  0.17937  1.0000
  O   O12       1.0  0.32243  0.75822  0.32063  1.0000
  O   O13       1.0  0.09520  0.89551  0.00289  1.0000
  O   O14       1.0  0.90480  0.39551  0.49711  1.0000
  O   O15       1.0  0.90480  0.10449  0.99711  1.0000
  O   O16       1.0  0.09520  0.60449  0.50289  1.0000
  O   O17       1.0  0.94476  0.76875  0.90442  1.0000
  O   O18       1.0  0.05524  0.26875  0.59558  1.0000
  O   O19       1.0  0.05524  0.23125  0.09558  1.0000
  O   O20       1.0  0.94476  0.73125  0.40442  1.0000
  O   O21       1.0  0.29356  0.18086  0.50539  1.0000
  O   O22       1.0  0.70644  0.68086  0.99461  1.0000
  O   O23       1.0  0.70644  0.81914  0.49461  1.0000
  O   O24       1.0  0.29356  0.31914  0.00539  1.0000
  O   O25       1.0  0.40886  0.03494  0.64823  1.0000
  O   O26       1.0  0.59114  0.53494  0.85177  1.0000
  O   O27       1.0  0.59114  0.96506  0.35177  1.0000
  O   O28       1.0  0.40886  0.46506  0.14823  1.0000
  O   O29       1.0  0.26270  0.04710  0.23340  1.0000
  O   O30       1.0  0.73730  0.54710  0.26660  1.0000
  O   O31       1.0  0.73730  0.95290  0.76660  1.0000
  O   O32       1.0  0.26270  0.45290  0.73340  1.0000
  H   H1        1.0  0.26600  0.09900  0.30700  1.0000
  H   H2        1.0  0.73400  0.59900  0.19300  1.0000
  H   H3        1.0  0.73400  0.90100  0.69300  1.0000
  H   H4        1.0  0.26600  0.40100  0.80700  1.0000
  H   H5        1.0  0.27900  0.95160  0.24800  1.0000
  H   H6        1.0  0.72100  0.45160  0.25200  1.0000
  H   H7        1.0  0.72100  0.04840  0.75200  1.0000
  H   H8        1.0  0.27900  0.54840  0.74800  1.0000
  C   C1        1.0  0.18832  0.94370  0.74890  1.0000
  C   C2        1.0  0.81168  0.44370  0.75110  1.0000
  C   C3        1.0  0.81168  0.05630  0.25110  1.0000
  C   C4        1.0  0.18832  0.55630  0.24890  1.0000
  C   C5        1.0  0.28862  0.87450  0.84760  1.0000
  C   C6        1.0  0.71138  0.37450  0.65240  1.0000
  C   C7        1.0  0.71138  0.12550  0.15240  1.0000
  C   C8        1.0  0.28862  0.62550  0.34760  1.0000
  C   C9        1.0  0.08086  0.84550  0.75750  1.0000
  C   C10       1.0  0.91914  0.34550  0.74250  1.0000
  C   C11       1.0  0.91914  0.15450  0.24250  1.0000
  C   C12       1.0  0.08086  0.65450  0.25750  1.0000
  H   H9        1.0  0.02090  0.88840  0.69220  1.0000
  H   H10       1.0  0.97910  0.38840  0.80780  1.0000
  H   H11       1.0  0.97910  0.11160  0.30780  1.0000
  H   H12       1.0  0.02090  0.61160  0.19220  1.0000
  H   H13       1.0  0.09530  0.73900  0.72800  1.0000
  H   H14       1.0  0.90470  0.23900  0.77200  1.0000
  H   H15       1.0  0.90470  0.26100  0.27200  1.0000
  H   H16       1.0  0.09530  0.76100  0.22800  1.0000
  C   C13       1.0  0.03896  0.83790  0.89880  1.0000
  C   C14       1.0  0.96104  0.33790  0.60120  1.0000
  C   C15       1.0  0.96104  0.16210  0.10120  1.0000
  C   C16       1.0  0.03896  0.66210  0.39880  1.0000
  C   C17       1.0  0.21769  0.94880  0.60000  1.0000
  C   C18       1.0  0.78231  0.44880  0.90000  1.0000
  C   C19       1.0  0.78231  0.05120  0.40000  1.0000
  C   C20       1.0  0.21769  0.55120  0.10000  1.0000
  H   H17       1.0  0.15150  0.98090  0.53890  1.0000
  H   H18       1.0  0.84850  0.48090  0.96110  1.0000
  H   H19       1.0  0.84850  0.01910  0.46110  1.0000
  H   H20       1.0  0.15150  0.51910  0.03890  1.0000
  H   H21       1.0  0.23900  0.84420  0.57240  1.0000
  H   H22       1.0  0.76100  0.34420  0.92760  1.0000
  H   H23       1.0  0.76100  0.15580  0.42760  1.0000
  H   H24       1.0  0.23900  0.65580  0.07240  1.0000
  C   C21       1.0  0.31436  0.06270  0.58430  1.0000
  C   C22       1.0  0.68564  0.56270  0.91570  1.0000
  C   C23       1.0  0.68564  0.93730  0.41570  1.0000
  C   C24       1.0  0.31436  0.43730  0.08430  1.0000
  H   H25       1.0  0.12470  0.15100  0.73800  1.0000
  H   H26       1.0  0.87530  0.65100  0.76200  1.0000
  H   H27       1.0  0.87530  0.84900  0.26200  1.0000
  H   H28       1.0  0.12470  0.34900  0.23800  1.0000
