data_image0
_chemical_formula_structural       NiO8N4H2C6H2C6H2C2H2C2H2O2H4
_chemical_formula_sum              "Ni1 O10 N4 H14 C16"
_cell_length_a       7.6399
_cell_length_b       10.7925
_cell_length_c       11.4616
_cell_angle_alpha    73.224
_cell_angle_beta     74.613
_cell_angle_gamma    71.287

_space_group_name_H-M_alt    "P 1"
_space_group_IT_number       1

loop_
  _space_group_symop_operation_xyz
  'x, y, z'

loop_
  _atom_site_type_symbol
  _atom_site_label
  _atom_site_symmetry_multiplicity
  _atom_site_fract_x
  _atom_site_fract_y
  _atom_site_fract_z
  _atom_site_occupancy
  Ni  Ni1       1.0  0.00000  0.50000  0.00000  1.0000
  O   O1        1.0  0.22450  0.73470  0.53800  1.0000
  O   O2        1.0  0.77550  0.26530  0.46200  1.0000
  O   O3        1.0  0.92460  0.78430  0.63230  1.0000
  O   O4        1.0  0.07540  0.21570  0.36770  1.0000
  O   O5        1.0  0.02760  0.51080  0.81139  1.0000
  O   O6        1.0  0.97240  0.48920  0.18861  1.0000
  O   O7        1.0  0.76810  0.45100  0.82450  1.0000
  O   O8        1.0  0.23190  0.54900  0.17550  1.0000
  N   N1        1.0  0.23300  0.33580  0.00640  1.0000
  N   N2        1.0  0.76700  0.66420  0.99360  1.0000
  N   N3        1.0  0.26350  0.24570  0.11200  1.0000
  N   N4        1.0  0.73650  0.75430  0.88800  1.0000
  H   H1        1.0  0.18670  0.24850  0.18190  1.0000
  H   H2        1.0  0.81330  0.75150  0.81810  1.0000
  C   C1        1.0  0.03840  0.59660  0.54140  1.0000
  C   C2        1.0  0.96160  0.40340  0.45860  1.0000
  C   C3        1.0  0.95440  0.50050  0.62740  1.0000
  C   C4        1.0  0.04560  0.49950  0.37260  1.0000
  C   C5        1.0  0.08300  0.59410  0.41640  1.0000
  C   C6        1.0  0.91700  0.40590  0.58360  1.0000
  H   H3        1.0  0.13970  0.65780  0.36010  1.0000
  H   H4        1.0  0.86030  0.34220  0.63990  1.0000
  C   C7        1.0  0.06610  0.71280  0.57500  1.0000
  C   C8        1.0  0.93390  0.28720  0.42500  1.0000
  C   C9        1.0  0.91150  0.48710  0.76610  1.0000
  C   C10       1.0  0.08850  0.51290  0.23390  1.0000
  C   C11       1.0  0.42300  0.15250  0.09790  1.0000
  C   C12       1.0  0.57700  0.84750  0.90210  1.0000
  H   H5        1.0  0.47070  0.08060  0.15890  1.0000
  H   H6        1.0  0.52930  0.91940  0.84110  1.0000
  C   C13       1.0  0.50280  0.18190  0.97840  1.0000
  C   C14       1.0  0.49720  0.81810  0.02160  1.0000
  H   H7        1.0  0.61820  0.13500  0.93990  1.0000
  H   H8        1.0  0.38180  0.86500  0.06010  1.0000
  C   C15       1.0  0.37950  0.29700  0.92200  1.0000
  C   C16       1.0  0.62050  0.70300  0.07800  1.0000
  H   H9        1.0  0.39820  0.33910  0.83830  1.0000
  H   H10       1.0  0.60180  0.66090  0.16170  1.0000
  O   O9        1.0  0.16540  0.63500  0.94350  1.0000
  O   O10       1.0  0.83460  0.36500  0.05650  1.0000
  H   H11       1.0  0.24670  0.63030  0.87680  1.0000
  H   H12       1.0  0.75330  0.36970  0.12320  1.0000
  H   H13       1.0  0.22460  0.61720  0.00210  1.0000
  H   H14       1.0  0.77540  0.38280  0.99790  1.0000
