data_image0
_chemical_formula_structural       Mo20Zn4P8O40N4O8N4H4O8N4H4C4H4O4N4O4C4H4O4N4O4C4H4C4H4O4C8O4C4O4C8H4O4N4C4H4C8H4C4H4C4H4C4H4C8H4C12H4C4H4C4H4C4H4C4H4O8H8
_chemical_formula_sum              "Mo20 Zn4 P8 O96 N24 H80 C96"
_cell_length_a       10.1704
_cell_length_b       21.3474
_cell_length_c       29.3979
_cell_angle_alpha    90
_cell_angle_beta     90.589
_cell_angle_gamma    90

_space_group_name_H-M_alt    "P 1"
_space_group_IT_number       1

loop_
  _space_group_symop_operation_xyz
  'x, y, z'

loop_
  _atom_site_type_symbol
  _atom_site_label
  _atom_site_symmetry_multiplicity
  _atom_site_fract_x
  _atom_site_fract_y
  _atom_site_fract_z
  _atom_site_occupancy
  Mo  Mo1       1.0  0.24687  0.15513  0.42060  1.0000
  Mo  Mo2       1.0  0.75313  0.65513  0.07940  1.0000
  Mo  Mo3       1.0  0.75313  0.84487  0.57940  1.0000
  Mo  Mo4       1.0  0.24687  0.34487  0.92060  1.0000
  Mo  Mo5       1.0  0.23194  0.08182  0.31844  1.0000
  Mo  Mo6       1.0  0.76806  0.58182  0.18156  1.0000
  Mo  Mo7       1.0  0.76806  0.91818  0.68156  1.0000
  Mo  Mo8       1.0  0.23194  0.41818  0.81844  1.0000
  Mo  Mo9       1.0  0.29769  0.33237  0.28403  1.0000
  Mo  Mo10      1.0  0.70231  0.83237  0.21597  1.0000
  Mo  Mo11      1.0  0.70231  0.66763  0.71597  1.0000
  Mo  Mo12      1.0  0.29769  0.16763  0.78403  1.0000
  Mo  Mo13      1.0  0.22997  0.32258  0.39576  1.0000
  Mo  Mo14      1.0  0.77003  0.82258  0.10424  1.0000
  Mo  Mo15      1.0  0.77003  0.67742  0.60424  1.0000
  Mo  Mo16      1.0  0.22997  0.17742  0.89575  1.0000
  Mo  Mo17      1.0  0.27579  0.18949  0.23636  1.0000
  Mo  Mo18      1.0  0.72421  0.68949  0.26364  1.0000
  Mo  Mo19      1.0  0.72421  0.81051  0.76364  1.0000
  Mo  Mo20      1.0  0.27579  0.31051  0.73636  1.0000
  Zn  Zn1       1.0  0.75688  0.17666  0.33272  1.0000
  Zn  Zn2       1.0  0.24312  0.67666  0.16728  1.0000
  Zn  Zn3       1.0  0.24312  0.82334  0.66728  1.0000
  Zn  Zn4       1.0  0.75688  0.32334  0.83272  1.0000
  P   P1        1.0  0.44400  0.20912  0.33813  1.0000
  P   P2        1.0  0.55600  0.70912  0.16187  1.0000
  P   P3        1.0  0.55600  0.79088  0.66187  1.0000
  P   P4        1.0  0.44400  0.29088  0.83813  1.0000
  P   P5        1.0  0.06975  0.22158  0.32728  1.0000
  P   P6        1.0  0.93025  0.72158  0.17272  1.0000
  P   P7        1.0  0.93025  0.77842  0.67272  1.0000
  P   P8        1.0  0.06975  0.27842  0.82728  1.0000
  O   O1        1.0  0.17500  0.12174  0.26119  1.0000
  O   O2        1.0  0.82500  0.62174  0.23881  1.0000
  O   O3        1.0  0.82500  0.87826  0.73881  1.0000
  O   O4        1.0  0.17500  0.37826  0.76119  1.0000
  O   O5        1.0  0.24040  0.24250  0.42631  1.0000
  O   O6        1.0  0.75960  0.74250  0.07369  1.0000
  O   O7        1.0  0.75960  0.75750  0.57369  1.0000
  O   O8        1.0  0.24040  0.25750  0.92631  1.0000
  O   O9        1.0  0.93610  0.19800  0.31139  1.0000
  O   O10       1.0  0.06390  0.69800  0.18861  1.0000
  O   O11       1.0  0.06390  0.80200  0.68861  1.0000
  O   O12       1.0  0.93610  0.30200  0.81139  1.0000
  O   O13       1.0  0.36710  0.27237  0.33921  1.0000
  O   O14       1.0  0.63290  0.77237  0.16079  1.0000
  O   O15       1.0  0.63290  0.72763  0.66079  1.0000
  O   O16       1.0  0.36710  0.22763  0.83921  1.0000
  O   O17       1.0  0.43460  0.37800  0.28121  1.0000
  O   O18       1.0  0.56540  0.87800  0.21879  1.0000
  O   O19       1.0  0.56540  0.62200  0.71879  1.0000
  O   O20       1.0  0.43460  0.12200  0.78121  1.0000
  O   O21       1.0  0.21770  0.36662  0.33873  1.0000
  O   O22       1.0  0.78230  0.86662  0.16127  1.0000
  O   O23       1.0  0.78230  0.63338  0.66127  1.0000
  O   O24       1.0  0.21770  0.13338  0.83873  1.0000
  O   O25       1.0  0.36850  0.26595  0.24647  1.0000
  O   O26       1.0  0.63150  0.76595  0.25353  1.0000
  O   O27       1.0  0.63150  0.73405  0.75353  1.0000
  O   O28       1.0  0.36850  0.23405  0.74647  1.0000
  O   O29       1.0  0.15050  0.24619  0.28616  1.0000
  O   O30       1.0  0.84950  0.74619  0.21384  1.0000
  O   O31       1.0  0.84950  0.75381  0.71384  1.0000
  O   O32       1.0  0.15050  0.25381  0.78616  1.0000
  O   O33       1.0  0.43670  0.18138  0.38596  1.0000
  O   O34       1.0  0.56330  0.68138  0.11404  1.0000
  O   O35       1.0  0.56330  0.81862  0.61404  1.0000
  O   O36       1.0  0.43670  0.31862  0.88596  1.0000
  O   O37       1.0  0.39730  0.14900  0.20924  1.0000
  O   O38       1.0  0.60270  0.64900  0.29076  1.0000
  O   O39       1.0  0.60270  0.85100  0.79076  1.0000
  O   O40       1.0  0.39730  0.35100  0.70924  1.0000
  N   N1        1.0  0.74380  0.11060  0.27463  1.0000
  N   N2        1.0  0.25620  0.61060  0.22537  1.0000
  N   N3        1.0  0.25620  0.88940  0.72537  1.0000
  N   N4        1.0  0.74380  0.38940  0.77463  1.0000
  O   O41       1.0  0.06080  0.27315  0.36276  1.0000
  O   O42       1.0  0.93920  0.77315  0.13724  1.0000
  O   O43       1.0  0.93920  0.72685  0.63724  1.0000
  O   O44       1.0  0.06080  0.22685  0.86276  1.0000
  O   O45       1.0  0.09510  0.13570  0.44095  1.0000
  O   O46       1.0  0.90490  0.63570  0.05905  1.0000
  O   O47       1.0  0.90490  0.86430  0.55905  1.0000
  O   O48       1.0  0.09510  0.36430  0.94095  1.0000
  N   N5        1.0  0.41200  0.00020  0.42903  1.0000
  N   N6        1.0  0.58800  0.50020  0.07097  1.0000
  N   N7        1.0  0.58800  0.99980  0.57097  1.0000
  N   N8        1.0  0.41200  0.49980  0.92903  1.0000
  H   H1        1.0  0.38920  0.03140  0.41220  1.0000
  H   H2        1.0  0.61080  0.53140  0.08780  1.0000
  H   H3        1.0  0.61080  0.96860  0.58780  1.0000
  H   H4        1.0  0.38920  0.46860  0.91220  1.0000
  O   O49       1.0  0.11690  0.36270  0.42637  1.0000
  O   O50       1.0  0.88310  0.86270  0.07363  1.0000
  O   O51       1.0  0.88310  0.63730  0.57363  1.0000
  O   O52       1.0  0.11690  0.13730  0.92637  1.0000
  O   O53       1.0  0.28350  0.08190  0.38203  1.0000
  O   O54       1.0  0.71650  0.58190  0.11797  1.0000
  O   O55       1.0  0.71650  0.91810  0.61797  1.0000
  O   O56       1.0  0.28350  0.41810  0.88203  1.0000
  N   N9        1.0  0.96410  0.95430  0.18103  1.0000
  N   N10       1.0  0.03590  0.45430  0.31897  1.0000
  N   N11       1.0  0.03590  0.04570  0.81897  1.0000
  N   N12       1.0  0.96410  0.54570  0.68103  1.0000
  H   H5        1.0  0.89830  0.93000  0.17550  1.0000
  H   H6        1.0  0.10170  0.43000  0.32450  1.0000
  H   H7        1.0  0.10170  0.07000  0.82450  1.0000
  H   H8        1.0  0.89830  0.57000  0.67550  1.0000
  C   C1        1.0  0.85100  0.08670  0.25420  1.0000
  C   C2        1.0  0.14900  0.58670  0.24580  1.0000
  C   C3        1.0  0.14900  0.91330  0.74580  1.0000
  C   C4        1.0  0.85100  0.41330  0.75420  1.0000
  H   H9        1.0  0.93250  0.10510  0.25960  1.0000
  H   H10       1.0  0.06750  0.60510  0.24040  1.0000
  H   H11       1.0  0.06750  0.89490  0.74040  1.0000
  H   H12       1.0  0.93250  0.39490  0.75960  1.0000
  O   O57       1.0  0.34620  0.13430  0.46597  1.0000
  O   O58       1.0  0.65380  0.63430  0.03403  1.0000
  O   O59       1.0  0.65380  0.86570  0.53403  1.0000
  O   O60       1.0  0.34620  0.36570  0.96597  1.0000
  N   N13       1.0  0.53180  0.92980  0.46303  1.0000
  N   N14       1.0  0.46820  0.42980  0.03697  1.0000
  N   N15       1.0  0.46820  0.07020  0.53697  1.0000
  N   N16       1.0  0.53180  0.57020  0.96303  1.0000
  O   O61       1.0  0.80410  0.22840  0.39253  1.0000
  O   O62       1.0  0.19590  0.72840  0.10747  1.0000
  O   O63       1.0  0.19590  0.77160  0.60747  1.0000
  O   O64       1.0  0.80410  0.27160  0.89253  1.0000
  C   C5        1.0  0.77090  0.97710  0.41630  1.0000
  C   C6        1.0  0.22910  0.47710  0.08370  1.0000
  C   C7        1.0  0.22910  0.02290  0.58370  1.0000
  C   C8        1.0  0.77090  0.52290  0.91630  1.0000
  H   H13       1.0  0.77920  0.93800  0.43010  1.0000
  H   H14       1.0  0.22080  0.43800  0.06990  1.0000
  H   H15       1.0  0.22080  0.06200  0.56990  1.0000
  H   H16       1.0  0.77920  0.56200  0.93010  1.0000
  O   O65       1.0  0.09660  0.03400  0.32027  1.0000
  O   O66       1.0  0.90340  0.53400  0.17973  1.0000
  O   O67       1.0  0.90340  0.96600  0.67973  1.0000
  O   O68       1.0  0.09660  0.46600  0.82027  1.0000
  N   N17       1.0  0.74710  0.09310  0.37400  1.0000
  N   N18       1.0  0.25290  0.59310  0.12600  1.0000
  N   N19       1.0  0.25290  0.90690  0.62600  1.0000
  N   N20       1.0  0.74710  0.40690  0.87400  1.0000
  O   O69       1.0  0.37400  0.16379  0.30409  1.0000
  O   O70       1.0  0.62600  0.66379  0.19591  1.0000
  O   O71       1.0  0.62600  0.83621  0.69591  1.0000
  O   O72       1.0  0.37400  0.33621  0.80409  1.0000
  C   C9        1.0  0.34650  0.87670  0.50610  1.0000
  C   C10       1.0  0.65350  0.37670  0.99390  1.0000
  C   C11       1.0  0.65350  0.12330  0.49390  1.0000
  C   C12       1.0  0.34650  0.62330  0.00610  1.0000
  H   H17       1.0  0.39720  0.84670  0.52120  1.0000
  H   H18       1.0  0.60280  0.34670  0.97880  1.0000
  H   H19       1.0  0.60280  0.15330  0.47880  1.0000
  H   H20       1.0  0.39720  0.65330  0.02120  1.0000
  C   C13       1.0  0.71650  0.00960  0.21680  1.0000
  C   C14       1.0  0.28350  0.50960  0.28320  1.0000
  C   C15       1.0  0.28350  0.99040  0.78320  1.0000
  C   C16       1.0  0.71650  0.49040  0.71680  1.0000
  H   H21       1.0  0.70650  0.97580  0.19720  1.0000
  H   H22       1.0  0.29350  0.47580  0.30280  1.0000
  H   H23       1.0  0.29350  0.02420  0.80280  1.0000
  H   H24       1.0  0.70650  0.52420  0.69720  1.0000
  O   O73       1.0  0.17260  0.21050  0.19237  1.0000
  O   O74       1.0  0.82740  0.71050  0.30763  1.0000
  O   O75       1.0  0.82740  0.78950  0.80763  1.0000
  O   O76       1.0  0.17260  0.28950  0.69237  1.0000
  C   C17       1.0  0.95970  0.00820  0.20420  1.0000
  C   C18       1.0  0.04030  0.50820  0.29580  1.0000
  C   C19       1.0  0.04030  0.99180  0.79580  1.0000
  C   C20       1.0  0.95970  0.49180  0.70420  1.0000
  C   C21       1.0  0.09340  0.94410  0.16740  1.0000
  C   C22       1.0  0.90660  0.44410  0.33260  1.0000
  C   C23       1.0  0.90660  0.05590  0.83260  1.0000
  C   C24       1.0  0.09340  0.55590  0.66740  1.0000
  O   O77       1.0  0.37660  0.35270  0.41588  1.0000
  O   O78       1.0  0.62340  0.85270  0.08412  1.0000
  O   O79       1.0  0.62340  0.64730  0.58412  1.0000
  O   O80       1.0  0.37660  0.14730  0.91588  1.0000
  C   C25       1.0  0.84300  0.03480  0.22490  1.0000
  C   C26       1.0  0.15700  0.53480  0.27510  1.0000
  C   C27       1.0  0.15700  0.96520  0.77510  1.0000
  C   C28       1.0  0.84300  0.46520  0.72490  1.0000
  O   O81       1.0  0.35180  0.03340  0.29928  1.0000
  O   O82       1.0  0.64820  0.53340  0.20072  1.0000
  O   O83       1.0  0.64820  0.96660  0.70072  1.0000
  O   O84       1.0  0.35180  0.46660  0.79928  1.0000
  C   C29       1.0  0.64930  0.00700  0.41370  1.0000
  C   C30       1.0  0.35070  0.50700  0.08630  1.0000
  C   C31       1.0  0.35070  0.99300  0.58630  1.0000
  C   C32       1.0  0.64930  0.49300  0.91370  1.0000
  C   C33       1.0  0.86310  0.06520  0.37820  1.0000
  C   C34       1.0  0.13690  0.56520  0.12180  1.0000
  C   C35       1.0  0.13690  0.93480  0.62180  1.0000
  C   C36       1.0  0.86310  0.43480  0.87820  1.0000
  H   H25       1.0  0.93680  0.08610  0.36740  1.0000
  H   H26       1.0  0.06320  0.58610  0.13260  1.0000
  H   H27       1.0  0.06320  0.91390  0.63260  1.0000
  H   H28       1.0  0.93680  0.41390  0.86740  1.0000
  O   O85       1.0  0.18690  0.36830  0.24782  1.0000
  O   O86       1.0  0.81310  0.86830  0.25218  1.0000
  O   O87       1.0  0.81310  0.63170  0.75218  1.0000
  O   O88       1.0  0.18690  0.13170  0.74782  1.0000
  N   N21       1.0  0.08080  0.03260  0.20668  1.0000
  N   N22       1.0  0.91920  0.53260  0.29332  1.0000
  N   N23       1.0  0.91920  0.96740  0.79332  1.0000
  N   N24       1.0  0.08080  0.46740  0.70668  1.0000
  C   C37       1.0  0.30060  0.99780  0.17610  1.0000
  C   C38       1.0  0.69940  0.49780  0.32390  1.0000
  C   C39       1.0  0.69940  0.00220  0.82390  1.0000
  C   C40       1.0  0.30060  0.50220  0.67610  1.0000
  H   H29       1.0  0.34990  0.03130  0.18710  1.0000
  H   H30       1.0  0.65010  0.53130  0.31290  1.0000
  H   H31       1.0  0.65010  0.96870  0.81290  1.0000
  H   H32       1.0  0.34990  0.46870  0.68710  1.0000
  C   C41       1.0  0.16620  0.99370  0.18360  1.0000
  C   C42       1.0  0.83380  0.49370  0.31640  1.0000
  C   C43       1.0  0.83380  0.00630  0.81640  1.0000
  C   C44       1.0  0.16620  0.50630  0.68360  1.0000
  C   C45       1.0  0.62690  0.08470  0.26600  1.0000
  C   C46       1.0  0.37310  0.58470  0.23400  1.0000
  C   C47       1.0  0.37310  0.91530  0.73400  1.0000
  C   C48       1.0  0.62690  0.41530  0.76600  1.0000
  H   H33       1.0  0.55270  0.10110  0.27990  1.0000
  H   H34       1.0  0.44730  0.60110  0.22010  1.0000
  H   H35       1.0  0.44730  0.89890  0.72010  1.0000
  H   H36       1.0  0.55270  0.39890  0.77990  1.0000
  C   C49       1.0  0.64260  0.06500  0.39137  1.0000
  C   C50       1.0  0.35740  0.56500  0.10863  1.0000
  C   C51       1.0  0.35740  0.93500  0.60863  1.0000
  C   C52       1.0  0.64260  0.43500  0.89137  1.0000
  H   H37       1.0  0.56130  0.08460  0.38860  1.0000
  H   H38       1.0  0.43870  0.58460  0.11140  1.0000
  H   H39       1.0  0.43870  0.91540  0.61140  1.0000
  H   H40       1.0  0.56130  0.41540  0.88860  1.0000
  C   C53       1.0  0.61270  0.03360  0.23680  1.0000
  C   C54       1.0  0.38730  0.53360  0.26320  1.0000
  C   C55       1.0  0.38730  0.96640  0.76320  1.0000
  C   C56       1.0  0.61270  0.46640  0.73680  1.0000
  H   H41       1.0  0.52990  0.01660  0.23130  1.0000
  H   H42       1.0  0.47010  0.51660  0.26870  1.0000
  H   H43       1.0  0.47010  0.98340  0.76870  1.0000
  H   H44       1.0  0.52990  0.48340  0.73130  1.0000
  C   C57       1.0  0.19270  0.97060  0.46200  1.0000
  C   C58       1.0  0.80730  0.47060  0.03800  1.0000
  C   C59       1.0  0.80730  0.02940  0.53800  1.0000
  C   C60       1.0  0.19270  0.52940  0.96200  1.0000
  H   H45       1.0  0.14350  0.00230  0.44850  1.0000
  H   H46       1.0  0.85650  0.50230  0.05150  1.0000
  H   H47       1.0  0.85650  0.99770  0.55150  1.0000
  H   H48       1.0  0.14350  0.49770  0.94850  1.0000
  C   C61       1.0  0.40240  0.91930  0.47700  1.0000
  C   C62       1.0  0.59760  0.41930  0.02300  1.0000
  C   C63       1.0  0.59760  0.08070  0.52300  1.0000
  C   C64       1.0  0.40240  0.58070  0.97700  1.0000
  C   C65       1.0  0.14930  0.89360  0.14370  1.0000
  C   C66       1.0  0.85070  0.39360  0.35630  1.0000
  C   C67       1.0  0.85070  0.10640  0.85630  1.0000
  C   C68       1.0  0.14930  0.60640  0.64370  1.0000
  H   H49       1.0  0.10040  0.85950  0.13350  1.0000
  H   H50       1.0  0.89960  0.35950  0.36650  1.0000
  H   H51       1.0  0.89960  0.14050  0.86650  1.0000
  H   H52       1.0  0.10040  0.64050  0.63350  1.0000
  C   C69       1.0  0.32630  0.96450  0.45500  1.0000
  C   C70       1.0  0.67370  0.46450  0.04500  1.0000
  C   C71       1.0  0.67370  0.03550  0.54500  1.0000
  C   C72       1.0  0.32630  0.53550  0.95500  1.0000
  C   C73       1.0  0.53330  0.97930  0.43390  1.0000
  C   C74       1.0  0.46670  0.47930  0.06610  1.0000
  C   C75       1.0  0.46670  0.02070  0.56610  1.0000
  C   C76       1.0  0.53330  0.52070  0.93390  1.0000
  C   C77       1.0  0.35700  0.95090  0.15200  1.0000
  C   C78       1.0  0.64300  0.45090  0.34800  1.0000
  C   C79       1.0  0.64300  0.04910  0.84800  1.0000
  C   C80       1.0  0.35700  0.54910  0.65200  1.0000
  H   H53       1.0  0.44600  0.95330  0.14530  1.0000
  H   H54       1.0  0.55400  0.45330  0.35470  1.0000
  H   H55       1.0  0.55400  0.04670  0.85470  1.0000
  H   H56       1.0  0.44600  0.54670  0.64530  1.0000
  C   C81       1.0  0.21420  0.88020  0.51210  1.0000
  C   C82       1.0  0.78580  0.38020  0.98790  1.0000
  C   C83       1.0  0.78580  0.11980  0.48790  1.0000
  C   C84       1.0  0.21420  0.61980  0.01210  1.0000
  H   H57       1.0  0.17380  0.85120  0.53100  1.0000
  H   H58       1.0  0.82620  0.35120  0.96900  1.0000
  H   H59       1.0  0.82620  0.14880  0.46900  1.0000
  H   H60       1.0  0.17380  0.64880  0.03100  1.0000
  C   C85       1.0  0.13630  0.92620  0.49060  1.0000
  C   C86       1.0  0.86370  0.42620  0.00940  1.0000
  C   C87       1.0  0.86370  0.07380  0.50940  1.0000
  C   C88       1.0  0.13630  0.57380  0.99060  1.0000
  H   H61       1.0  0.04620  0.92700  0.49560  1.0000
  H   H62       1.0  0.95380  0.42700  0.00440  1.0000
  H   H63       1.0  0.95380  0.07300  0.50440  1.0000
  H   H64       1.0  0.04620  0.57300  0.99560  1.0000
  C   C89       1.0  0.88020  0.00690  0.39770  1.0000
  C   C90       1.0  0.11980  0.50690  0.10230  1.0000
  C   C91       1.0  0.11980  0.99310  0.60230  1.0000
  C   C92       1.0  0.88020  0.49310  0.89770  1.0000
  H   H65       1.0  0.96250  0.98790  0.39840  1.0000
  H   H66       1.0  0.03750  0.48790  0.10160  1.0000
  H   H67       1.0  0.03750  0.01210  0.60160  1.0000
  H   H68       1.0  0.96250  0.51210  0.89840  1.0000
  C   C93       1.0  0.28440  0.89900  0.13690  1.0000
  C   C94       1.0  0.71560  0.39900  0.36310  1.0000
  C   C95       1.0  0.71560  0.10100  0.86310  1.0000
  C   C96       1.0  0.28440  0.60100  0.63690  1.0000
  H   H69       1.0  0.32790  0.86690  0.12180  1.0000
  H   H70       1.0  0.67210  0.36690  0.37820  1.0000
  H   H71       1.0  0.67210  0.13310  0.87820  1.0000
  H   H72       1.0  0.32790  0.63310  0.62180  1.0000
  O   O89       1.0  0.14720  0.16611  0.35008  1.0000
  O   O90       1.0  0.85280  0.66611  0.14992  1.0000
  O   O91       1.0  0.85280  0.83389  0.64992  1.0000
  O   O92       1.0  0.14720  0.33389  0.85008  1.0000
  O   O93       1.0  0.58550  0.21883  0.32308  1.0000
  O   O94       1.0  0.41450  0.71883  0.17692  1.0000
  O   O95       1.0  0.41450  0.78117  0.67692  1.0000
  O   O96       1.0  0.58550  0.28117  0.82308  1.0000
  H   H73       1.0  0.73300  0.24100  0.40300  1.0000
  H   H74       1.0  0.26700  0.74100  0.09700  1.0000
  H   H75       1.0  0.26700  0.75900  0.59700  1.0000
  H   H76       1.0  0.73300  0.25900  0.90300  1.0000
  H   H77       1.0  0.83100  0.25400  0.37310  1.0000
  H   H78       1.0  0.16900  0.75400  0.12690  1.0000
  H   H79       1.0  0.16900  0.74600  0.62690  1.0000
  H   H80       1.0  0.83100  0.24600  0.87310  1.0000
