data_image0
_chemical_formula_structural       Fe12Cl24S8O80C72
_chemical_formula_sum              "Fe12 Cl24 S8 O80 C72"
_cell_length_a       18.1779
_cell_length_b       18.1779
_cell_length_c       17.9824
_cell_angle_alpha    90
_cell_angle_beta     90
_cell_angle_gamma    120

_space_group_name_H-M_alt    "P 1"
_space_group_IT_number       1

loop_
  _space_group_symop_operation_xyz
  'x, y, z'

loop_
  _atom_site_type_symbol
  _atom_site_label
  _atom_site_symmetry_multiplicity
  _atom_site_fract_x
  _atom_site_fract_y
  _atom_site_fract_z
  _atom_site_occupancy
  Fe  Fe1       1.0  0.75030  0.24970  0.50000  1.0000
  Fe  Fe2       1.0  0.75030  0.50060  0.50000  1.0000
  Fe  Fe3       1.0  0.49940  0.24970  0.50000  1.0000
  Fe  Fe4       1.0  0.24970  0.75030  0.00000  1.0000
  Fe  Fe5       1.0  0.24970  0.49940  0.00000  1.0000
  Fe  Fe6       1.0  0.50060  0.75030  0.00000  1.0000
  Fe  Fe7       1.0  0.24970  0.75030  0.50000  1.0000
  Fe  Fe8       1.0  0.24970  0.49940  0.50000  1.0000
  Fe  Fe9       1.0  0.50060  0.75030  0.50000  1.0000
  Fe  Fe10      1.0  0.75030  0.24970  0.00000  1.0000
  Fe  Fe11      1.0  0.75030  0.50060  0.00000  1.0000
  Fe  Fe12      1.0  0.49940  0.24970  0.00000  1.0000
  Cl  Cl1       1.0  0.72240  0.00000  0.34990  1.0000
  Cl  Cl2       1.0  0.00000  0.72240  0.34990  1.0000
  Cl  Cl3       1.0  0.27760  0.27760  0.34990  1.0000
  Cl  Cl4       1.0  0.27760  0.00000  0.84990  1.0000
  Cl  Cl5       1.0  0.00000  0.27760  0.84990  1.0000
  Cl  Cl6       1.0  0.72240  0.72240  0.84990  1.0000
  Cl  Cl7       1.0  0.00000  0.72240  0.15010  1.0000
  Cl  Cl8       1.0  0.72240  0.00000  0.15010  1.0000
  Cl  Cl9       1.0  0.27760  0.27760  0.15010  1.0000
  Cl  Cl10      1.0  0.00000  0.27760  0.65010  1.0000
  Cl  Cl11      1.0  0.27760  0.00000  0.65010  1.0000
  Cl  Cl12      1.0  0.72240  0.72240  0.65010  1.0000
  Cl  Cl13      1.0  0.53530  0.00000  0.64702  1.0000
  Cl  Cl14      1.0  0.00000  0.53530  0.64702  1.0000
  Cl  Cl15      1.0  0.46470  0.46470  0.64702  1.0000
  Cl  Cl16      1.0  0.46470  0.00000  0.14702  1.0000
  Cl  Cl17      1.0  0.00000  0.46470  0.14702  1.0000
  Cl  Cl18      1.0  0.53530  0.53530  0.14702  1.0000
  Cl  Cl19      1.0  0.00000  0.53530  0.85298  1.0000
  Cl  Cl20      1.0  0.53530  0.00000  0.85298  1.0000
  Cl  Cl21      1.0  0.46470  0.46470  0.85298  1.0000
  Cl  Cl22      1.0  0.00000  0.46470  0.35298  1.0000
  Cl  Cl23      1.0  0.46470  0.00000  0.35298  1.0000
  Cl  Cl24      1.0  0.53530  0.53530  0.35298  1.0000
  S   S1        1.0  0.66667  0.33333  0.39780  1.0000
  S   S2        1.0  0.33333  0.66667  0.89780  1.0000
  S   S3        1.0  0.33333  0.66667  0.10220  1.0000
  S   S4        1.0  0.66667  0.33333  0.60220  1.0000
  S   S5        1.0  0.33333  0.66667  0.60220  1.0000
  S   S6        1.0  0.66667  0.33333  0.10220  1.0000
  S   S7        1.0  0.66667  0.33333  0.89780  1.0000
  S   S8        1.0  0.33333  0.66667  0.39780  1.0000
  O   O1        1.0  0.67410  0.26070  0.42500  1.0000
  O   O2        1.0  0.73930  0.41340  0.42500  1.0000
  O   O3        1.0  0.58660  0.32590  0.42500  1.0000
  O   O4        1.0  0.32590  0.73930  0.92500  1.0000
  O   O5        1.0  0.26070  0.58660  0.92500  1.0000
  O   O6        1.0  0.41340  0.67410  0.92500  1.0000
  O   O7        1.0  0.26070  0.67410  0.07500  1.0000
  O   O8        1.0  0.41340  0.73930  0.07500  1.0000
  O   O9        1.0  0.32590  0.58660  0.07500  1.0000
  O   O10       1.0  0.73930  0.32590  0.57500  1.0000
  O   O11       1.0  0.58660  0.26070  0.57500  1.0000
  O   O12       1.0  0.67410  0.41340  0.57500  1.0000
  O   O13       1.0  0.32590  0.73930  0.57500  1.0000
  O   O14       1.0  0.26070  0.58660  0.57500  1.0000
  O   O15       1.0  0.41340  0.67410  0.57500  1.0000
  O   O16       1.0  0.67410  0.26070  0.07500  1.0000
  O   O17       1.0  0.73930  0.41340  0.07500  1.0000
  O   O18       1.0  0.58660  0.32590  0.07500  1.0000
  O   O19       1.0  0.73930  0.32590  0.92500  1.0000
  O   O20       1.0  0.58660  0.26070  0.92500  1.0000
  O   O21       1.0  0.67410  0.41340  0.92500  1.0000
  O   O22       1.0  0.26070  0.67410  0.42500  1.0000
  O   O23       1.0  0.41340  0.73930  0.42500  1.0000
  O   O24       1.0  0.32590  0.58660  0.42500  1.0000
  O   O25       1.0  0.66667  0.33333  0.31880  1.0000
  O   O26       1.0  0.33333  0.66667  0.81880  1.0000
  O   O27       1.0  0.33333  0.66667  0.18120  1.0000
  O   O28       1.0  0.66667  0.33333  0.68120  1.0000
  O   O29       1.0  0.33333  0.66667  0.68120  1.0000
  O   O30       1.0  0.66667  0.33333  0.18120  1.0000
  O   O31       1.0  0.66667  0.33333  0.81880  1.0000
  O   O32       1.0  0.33333  0.66667  0.31880  1.0000
  O   O33       1.0  0.73920  0.14950  0.43770  1.0000
  O   O34       1.0  0.85050  0.58970  0.43770  1.0000
  O   O35       1.0  0.41030  0.26080  0.43770  1.0000
  O   O36       1.0  0.26080  0.85050  0.93770  1.0000
  O   O37       1.0  0.14950  0.41030  0.93770  1.0000
  O   O38       1.0  0.58970  0.73920  0.93770  1.0000
  O   O39       1.0  0.14950  0.73920  0.06230  1.0000
  O   O40       1.0  0.58970  0.85050  0.06230  1.0000
  O   O41       1.0  0.26080  0.41030  0.06230  1.0000
  O   O42       1.0  0.85050  0.26080  0.56230  1.0000
  O   O43       1.0  0.41030  0.14950  0.56230  1.0000
  O   O44       1.0  0.73920  0.58970  0.56230  1.0000
  O   O45       1.0  0.26080  0.85050  0.56230  1.0000
  O   O46       1.0  0.14950  0.41030  0.56230  1.0000
  O   O47       1.0  0.58970  0.73920  0.56230  1.0000
  O   O48       1.0  0.73920  0.14950  0.06230  1.0000
  O   O49       1.0  0.85050  0.58970  0.06230  1.0000
  O   O50       1.0  0.41030  0.26080  0.06230  1.0000
  O   O51       1.0  0.85050  0.26080  0.93770  1.0000
  O   O52       1.0  0.41030  0.14950  0.93770  1.0000
  O   O53       1.0  0.73920  0.58970  0.93770  1.0000
  O   O54       1.0  0.14950  0.73920  0.43770  1.0000
  O   O55       1.0  0.58970  0.85050  0.43770  1.0000
  O   O56       1.0  0.26080  0.41030  0.43770  1.0000
  O   O57       1.0  0.66690  0.14950  0.56140  1.0000
  O   O58       1.0  0.85050  0.51740  0.56140  1.0000
  O   O59       1.0  0.48260  0.33310  0.56140  1.0000
  O   O60       1.0  0.33310  0.85050  0.06140  1.0000
  O   O61       1.0  0.14950  0.48260  0.06140  1.0000
  O   O62       1.0  0.51740  0.66690  0.06140  1.0000
  O   O63       1.0  0.14950  0.66690  0.93860  1.0000
  O   O64       1.0  0.51740  0.85050  0.93860  1.0000
  O   O65       1.0  0.33310  0.48260  0.93860  1.0000
  O   O66       1.0  0.85050  0.33310  0.43860  1.0000
  O   O67       1.0  0.48260  0.14950  0.43860  1.0000
  O   O68       1.0  0.66690  0.51740  0.43860  1.0000
  O   O69       1.0  0.33310  0.85050  0.43860  1.0000
  O   O70       1.0  0.14950  0.48260  0.43860  1.0000
  O   O71       1.0  0.51740  0.66690  0.43860  1.0000
  O   O72       1.0  0.66690  0.14950  0.93860  1.0000
  O   O73       1.0  0.85050  0.51740  0.93860  1.0000
  O   O74       1.0  0.48260  0.33310  0.93860  1.0000
  O   O75       1.0  0.85050  0.33310  0.06140  1.0000
  O   O76       1.0  0.48260  0.14950  0.06140  1.0000
  O   O77       1.0  0.66690  0.51740  0.06140  1.0000
  O   O78       1.0  0.14950  0.66690  0.56140  1.0000
  O   O79       1.0  0.51740  0.85050  0.56140  1.0000
  O   O80       1.0  0.33310  0.48260  0.56140  1.0000
  C   C1        1.0  0.67120  0.00000  0.43260  1.0000
  C   C2        1.0  0.00000  0.67120  0.43260  1.0000
  C   C3        1.0  0.32880  0.32880  0.43260  1.0000
  C   C4        1.0  0.32880  0.00000  0.93260  1.0000
  C   C5        1.0  0.00000  0.32880  0.93260  1.0000
  C   C6        1.0  0.67120  0.67120  0.93260  1.0000
  C   C7        1.0  0.00000  0.67120  0.06740  1.0000
  C   C8        1.0  0.67120  0.00000  0.06740  1.0000
  C   C9        1.0  0.32880  0.32880  0.06740  1.0000
  C   C10       1.0  0.00000  0.32880  0.56740  1.0000
  C   C11       1.0  0.32880  0.00000  0.56740  1.0000
  C   C12       1.0  0.67120  0.67120  0.56740  1.0000
  C   C13       1.0  0.68800  0.07730  0.46290  1.0000
  C   C14       1.0  0.92270  0.61070  0.46290  1.0000
  C   C15       1.0  0.38930  0.31200  0.46290  1.0000
  C   C16       1.0  0.31200  0.92270  0.96290  1.0000
  C   C17       1.0  0.07730  0.38930  0.96290  1.0000
  C   C18       1.0  0.61070  0.68800  0.96290  1.0000
  C   C19       1.0  0.07730  0.68800  0.03710  1.0000
  C   C20       1.0  0.61070  0.92270  0.03710  1.0000
  C   C21       1.0  0.31200  0.38930  0.03710  1.0000
  C   C22       1.0  0.92270  0.31200  0.53710  1.0000
  C   C23       1.0  0.38930  0.07730  0.53710  1.0000
  C   C24       1.0  0.68800  0.61070  0.53710  1.0000
  C   C25       1.0  0.31200  0.92270  0.53710  1.0000
  C   C26       1.0  0.07730  0.38930  0.53710  1.0000
  C   C27       1.0  0.61070  0.68800  0.53710  1.0000
  C   C28       1.0  0.68800  0.07730  0.03710  1.0000
  C   C29       1.0  0.92270  0.61070  0.03710  1.0000
  C   C30       1.0  0.38930  0.31200  0.03710  1.0000
  C   C31       1.0  0.92270  0.31200  0.96290  1.0000
  C   C32       1.0  0.38930  0.07730  0.96290  1.0000
  C   C33       1.0  0.68800  0.61070  0.96290  1.0000
  C   C34       1.0  0.07730  0.68800  0.46290  1.0000
  C   C35       1.0  0.61070  0.92270  0.46290  1.0000
  C   C36       1.0  0.31200  0.38930  0.46290  1.0000
  C   C37       1.0  0.64560  0.07880  0.53520  1.0000
  C   C38       1.0  0.92120  0.56680  0.53520  1.0000
  C   C39       1.0  0.43320  0.35440  0.53520  1.0000
  C   C40       1.0  0.35440  0.92120  0.03520  1.0000
  C   C41       1.0  0.07880  0.43320  0.03520  1.0000
  C   C42       1.0  0.56680  0.64560  0.03520  1.0000
  C   C43       1.0  0.07880  0.64560  0.96480  1.0000
  C   C44       1.0  0.56680  0.92120  0.96480  1.0000
  C   C45       1.0  0.35440  0.43320  0.96480  1.0000
  C   C46       1.0  0.92120  0.35440  0.46480  1.0000
  C   C47       1.0  0.43320  0.07880  0.46480  1.0000
  C   C48       1.0  0.64560  0.56680  0.46480  1.0000
  C   C49       1.0  0.35440  0.92120  0.46480  1.0000
  C   C50       1.0  0.07880  0.43320  0.46480  1.0000
  C   C51       1.0  0.56680  0.64560  0.46480  1.0000
  C   C52       1.0  0.64560  0.07880  0.96480  1.0000
  C   C53       1.0  0.92120  0.56680  0.96480  1.0000
  C   C54       1.0  0.43320  0.35440  0.96480  1.0000
  C   C55       1.0  0.92120  0.35440  0.03520  1.0000
  C   C56       1.0  0.43320  0.07880  0.03520  1.0000
  C   C57       1.0  0.64560  0.56680  0.03520  1.0000
  C   C58       1.0  0.07880  0.64560  0.53520  1.0000
  C   C59       1.0  0.56680  0.92120  0.53520  1.0000
  C   C60       1.0  0.35440  0.43320  0.53520  1.0000
  C   C61       1.0  0.58690  0.00000  0.56650  1.0000
  C   C62       1.0  0.00000  0.58690  0.56650  1.0000
  C   C63       1.0  0.41310  0.41310  0.56650  1.0000
  C   C64       1.0  0.41310  0.00000  0.06650  1.0000
  C   C65       1.0  0.00000  0.41310  0.06650  1.0000
  C   C66       1.0  0.58690  0.58690  0.06650  1.0000
  C   C67       1.0  0.00000  0.58690  0.93350  1.0000
  C   C68       1.0  0.58690  0.00000  0.93350  1.0000
  C   C69       1.0  0.41310  0.41310  0.93350  1.0000
  C   C70       1.0  0.00000  0.41310  0.43350  1.0000
  C   C71       1.0  0.41310  0.00000  0.43350  1.0000
  C   C72       1.0  0.58690  0.58690  0.43350  1.0000
