data_image0
_chemical_formula_structural       Cd4O28H8C20H4C8H4C4H4C4
_chemical_formula_sum              "Cd4 O28 H20 C36"
_cell_length_a       10.241
_cell_length_b       13.769
_cell_length_c       13.326
_cell_angle_alpha    90
_cell_angle_beta     90.768
_cell_angle_gamma    90

_space_group_name_H-M_alt    "P 1"
_space_group_IT_number       1

loop_
  _space_group_symop_operation_xyz
  'x, y, z'

loop_
  _atom_site_type_symbol
  _atom_site_label
  _atom_site_symmetry_multiplicity
  _atom_site_fract_x
  _atom_site_fract_y
  _atom_site_fract_z
  _atom_site_occupancy
  Cd  Cd1       1.0  0.14403  0.42412  0.06183  1.0000
  Cd  Cd2       1.0  0.35596  0.92412  0.43817  1.0000
  Cd  Cd3       1.0  0.85596  0.57588  0.93817  1.0000
  Cd  Cd4       1.0  0.64404  0.07588  0.56183  1.0000
  O   O1        1.0  0.62268  0.54692  0.92271  1.0000
  O   O2        1.0  0.87732  0.04692  0.57729  1.0000
  O   O3        1.0  0.37732  0.45308  0.07729  1.0000
  O   O4        1.0  0.12268  0.95308  0.42271  1.0000
  O   O5        1.0  0.71302  0.65649  0.82574  1.0000
  O   O6        1.0  0.78698  0.15649  0.67426  1.0000
  O   O7        1.0  0.28698  0.34351  0.17426  1.0000
  O   O8        1.0  0.21302  0.84351  0.32574  1.0000
  O   O9        1.0  0.01745  0.64862  0.85162  1.0000
  O   O10       1.0  0.48255  0.14862  0.64838  1.0000
  O   O11       1.0  0.98255  0.35138  0.14838  1.0000
  O   O12       1.0  0.51745  0.85138  0.35162  1.0000
  O   O13       1.0  0.43765  0.83245  0.57318  1.0000
  O   O14       1.0  0.06235  0.33245  0.92682  1.0000
  O   O15       1.0  0.56235  0.16755  0.42682  1.0000
  O   O16       1.0  0.93765  0.66755  0.07318  1.0000
  O   O17       1.0  0.12753  0.54545  0.94673  1.0000
  O   O18       1.0  0.37247  0.04545  0.55327  1.0000
  O   O19       1.0  0.87247  0.45455  0.05327  1.0000
  O   O20       1.0  0.62753  0.95455  0.44673  1.0000
  O   O21       1.0  0.23048  0.79380  0.55910  1.0000
  O   O22       1.0  0.26952  0.29380  0.94090  1.0000
  O   O23       1.0  0.76952  0.20620  0.44090  1.0000
  O   O24       1.0  0.73048  0.70620  0.05910  1.0000
  O   O25       1.0  0.11448  0.55287  0.17493  1.0000
  O   O26       1.0  0.38552  0.05287  0.32507  1.0000
  O   O27       1.0  0.88552  0.44713  0.82507  1.0000
  O   O28       1.0  0.61448  0.94713  0.67493  1.0000
  H   H1        1.0  0.06460  0.59560  0.14830  1.0000
  H   H2        1.0  0.43540  0.09560  0.35170  1.0000
  H   H3        1.0  0.93540  0.40440  0.85170  1.0000
  H   H4        1.0  0.56460  0.90440  0.64830  1.0000
  H   H5        1.0  0.07960  0.53130  0.22830  1.0000
  H   H6        1.0  0.42040  0.03130  0.27170  1.0000
  H   H7        1.0  0.92040  0.46870  0.77170  1.0000
  H   H8        1.0  0.57960  0.96870  0.72830  1.0000
  C   C1        1.0  0.34970  0.73074  0.69893  1.0000
  C   C2        1.0  0.15030  0.23074  0.80107  1.0000
  C   C3        1.0  0.65030  0.26926  0.30107  1.0000
  C   C4        1.0  0.84970  0.76926  0.19893  1.0000
  C   C5        1.0  0.24620  0.64335  0.83316  1.0000
  C   C6        1.0  0.25380  0.14335  0.66684  1.0000
  C   C7        1.0  0.75380  0.35665  0.16684  1.0000
  C   C8        1.0  0.74620  0.85665  0.33316  1.0000
  C   C9        1.0  0.48110  0.64542  0.82233  1.0000
  C   C10       1.0  0.01890  0.14542  0.67767  1.0000
  C   C11       1.0  0.51890  0.35458  0.17767  1.0000
  C   C12       1.0  0.98110  0.85458  0.32233  1.0000
  C   C13       1.0  0.12160  0.61041  0.88138  1.0000
  C   C14       1.0  0.37840  0.11041  0.61862  1.0000
  C   C15       1.0  0.87840  0.38959  0.11862  1.0000
  C   C16       1.0  0.62160  0.88959  0.38138  1.0000
  C   C17       1.0  0.23730  0.70098  0.74706  1.0000
  C   C18       1.0  0.26270  0.20098  0.75294  1.0000
  C   C19       1.0  0.76270  0.29902  0.25294  1.0000
  C   C20       1.0  0.73730  0.79902  0.24706  1.0000
  H   H9        1.0  0.15590  0.71940  0.72200  1.0000
  H   H10       1.0  0.34410  0.21940  0.77800  1.0000
  H   H11       1.0  0.84410  0.28060  0.27800  1.0000
  H   H12       1.0  0.65590  0.78060  0.22200  1.0000
  C   C21       1.0  0.61410  0.61455  0.85938  1.0000
  C   C22       1.0  0.88590  0.11455  0.64062  1.0000
  C   C23       1.0  0.38590  0.38545  0.14062  1.0000
  C   C24       1.0  0.11410  0.88545  0.35938  1.0000
  C   C25       1.0  0.36810  0.61487  0.86970  1.0000
  C   C26       1.0  0.13190  0.11487  0.63030  1.0000
  C   C27       1.0  0.63190  0.38513  0.13030  1.0000
  C   C28       1.0  0.86810  0.88513  0.36970  1.0000
  H   H13       1.0  0.37410  0.57520  0.92610  1.0000
  H   H14       1.0  0.12590  0.07520  0.57390  1.0000
  H   H15       1.0  0.62590  0.42480  0.07390  1.0000
  H   H16       1.0  0.87410  0.92480  0.42610  1.0000
  C   C29       1.0  0.47110  0.70474  0.73775  1.0000
  C   C30       1.0  0.02890  0.20474  0.76225  1.0000
  C   C31       1.0  0.52890  0.29526  0.26225  1.0000
  C   C32       1.0  0.97110  0.79526  0.23775  1.0000
  H   H17       1.0  0.54640  0.72710  0.70710  1.0000
  H   H18       1.0  0.95360  0.22710  0.79290  1.0000
  H   H19       1.0  0.45360  0.27290  0.29290  1.0000
  H   H20       1.0  0.04640  0.77290  0.20710  1.0000
  C   C33       1.0  0.33780  0.79026  0.60425  1.0000
  C   C34       1.0  0.16220  0.29026  0.89575  1.0000
  C   C35       1.0  0.66220  0.20974  0.39575  1.0000
  C   C36       1.0  0.83780  0.70974  0.10425  1.0000
