data_image0
_chemical_formula_structural       Cd4O4H8O24C20H4C4H4C12H4
_chemical_formula_sum              "Cd4 O28 H20 C36"
_cell_length_a       10.2857
_cell_length_b       13.8579
_cell_length_c       13.2746
_cell_angle_alpha    90
_cell_angle_beta     90.001
_cell_angle_gamma    90

_space_group_name_H-M_alt    "P 1"
_space_group_IT_number       1

loop_
  _space_group_symop_operation_xyz
  'x, y, z'

loop_
  _atom_site_type_symbol
  _atom_site_label
  _atom_site_symmetry_multiplicity
  _atom_site_fract_x
  _atom_site_fract_y
  _atom_site_fract_z
  _atom_site_occupancy
  Cd  Cd1       1.0  0.85539  0.57802  0.93957  1.0000
  Cd  Cd2       1.0  0.64461  0.07802  0.56043  1.0000
  Cd  Cd3       1.0  0.14461  0.42198  0.06043  1.0000
  Cd  Cd4       1.0  0.35539  0.92198  0.43957  1.0000
  O   O1        1.0  0.88490  0.44790  0.82720  1.0000
  O   O2        1.0  0.61510  0.94790  0.67280  1.0000
  O   O3        1.0  0.11510  0.55210  0.17280  1.0000
  O   O4        1.0  0.38490  0.05210  0.32720  1.0000
  H   H1        1.0  0.81161  0.41683  0.81740  1.0000
  H   H2        1.0  0.68839  0.91683  0.68260  1.0000
  H   H3        1.0  0.18839  0.58317  0.18260  1.0000
  H   H4        1.0  0.31161  0.08317  0.31740  1.0000
  H   H5        1.0  0.93529  0.40378  0.85409  1.0000
  H   H6        1.0  0.56471  0.90378  0.64591  1.0000
  H   H7        1.0  0.06471  0.59622  0.14591  1.0000
  H   H8        1.0  0.43529  0.09622  0.35409  1.0000
  O   O5        1.0  0.28700  0.34140  0.17030  1.0000
  O   O6        1.0  0.21300  0.84140  0.32970  1.0000
  O   O7        1.0  0.71300  0.65860  0.82970  1.0000
  O   O8        1.0  0.78700  0.15860  0.67030  1.0000
  O   O9        1.0  0.76170  0.19860  0.43680  1.0000
  O   O10       1.0  0.73830  0.69860  0.06320  1.0000
  O   O11       1.0  0.23830  0.80140  0.56320  1.0000
  O   O12       1.0  0.26170  0.30140  0.93680  1.0000
  O   O13       1.0  0.87040  0.45820  0.05590  1.0000
  O   O14       1.0  0.62960  0.95820  0.44410  1.0000
  O   O15       1.0  0.12960  0.54180  0.94410  1.0000
  O   O16       1.0  0.37040  0.04180  0.55590  1.0000
  O   O17       1.0  0.37780  0.45430  0.07860  1.0000
  O   O18       1.0  0.12220  0.95430  0.42140  1.0000
  O   O19       1.0  0.62220  0.54570  0.92140  1.0000
  O   O20       1.0  0.87780  0.04570  0.57860  1.0000
  O   O21       1.0  0.55440  0.17010  0.42790  1.0000
  O   O22       1.0  0.94560  0.67010  0.07210  1.0000
  O   O23       1.0  0.44560  0.82990  0.57210  1.0000
  O   O24       1.0  0.05440  0.32990  0.92790  1.0000
  O   O25       1.0  0.97980  0.35690  0.15130  1.0000
  O   O26       1.0  0.52020  0.85690  0.34870  1.0000
  O   O27       1.0  0.02020  0.64310  0.84870  1.0000
  O   O28       1.0  0.47980  0.14310  0.65130  1.0000
  C   C1        1.0  0.87600  0.39420  0.12190  1.0000
  C   C2        1.0  0.62400  0.89420  0.37810  1.0000
  C   C3        1.0  0.12400  0.60580  0.87810  1.0000
  C   C4        1.0  0.37600  0.10580  0.62190  1.0000
  C   C5        1.0  0.75230  0.36000  0.16970  1.0000
  C   C6        1.0  0.74770  0.86000  0.33030  1.0000
  C   C7        1.0  0.24770  0.64000  0.83030  1.0000
  C   C8        1.0  0.25230  0.14000  0.66970  1.0000
  C   C9        1.0  0.38590  0.38640  0.13960  1.0000
  C   C10       1.0  0.11410  0.88640  0.36040  1.0000
  C   C11       1.0  0.61410  0.61360  0.86040  1.0000
  C   C12       1.0  0.88590  0.11360  0.63960  1.0000
  C   C13       1.0  0.65520  0.20740  0.39420  1.0000
  C   C14       1.0  0.84480  0.70740  0.10580  1.0000
  C   C15       1.0  0.34480  0.79260  0.60580  1.0000
  C   C16       1.0  0.15520  0.29260  0.89420  1.0000
  C   C17       1.0  0.75850  0.30060  0.25420  1.0000
  C   C18       1.0  0.74150  0.80060  0.24580  1.0000
  C   C19       1.0  0.24150  0.69940  0.74580  1.0000
  C   C20       1.0  0.25850  0.19940  0.75420  1.0000
  H   H9        1.0  0.84081  0.28192  0.28015  1.0000
  H   H10       1.0  0.65919  0.78192  0.21985  1.0000
  H   H11       1.0  0.15919  0.71808  0.71985  1.0000
  H   H12       1.0  0.34081  0.21808  0.78015  1.0000
  C   C21       1.0  0.52590  0.29520  0.26190  1.0000
  C   C22       1.0  0.97410  0.79520  0.23810  1.0000
  C   C23       1.0  0.47410  0.70480  0.73810  1.0000
  C   C24       1.0  0.02590  0.20480  0.76190  1.0000
  H   H13       1.0  0.44870  0.27194  0.29270  1.0000
  H   H14       1.0  0.05130  0.77194  0.20730  1.0000
  H   H15       1.0  0.55130  0.72806  0.70730  1.0000
  H   H16       1.0  0.94870  0.22806  0.79270  1.0000
  C   C25       1.0  0.64670  0.26860  0.30060  1.0000
  C   C26       1.0  0.85330  0.76860  0.19940  1.0000
  C   C27       1.0  0.35330  0.73140  0.69940  1.0000
  C   C28       1.0  0.14670  0.23140  0.80060  1.0000
  C   C29       1.0  0.51750  0.35570  0.17820  1.0000
  C   C30       1.0  0.98250  0.85570  0.32180  1.0000
  C   C31       1.0  0.48250  0.64430  0.82180  1.0000
  C   C32       1.0  0.01750  0.14430  0.67820  1.0000
  C   C33       1.0  0.63070  0.38820  0.13260  1.0000
  C   C34       1.0  0.86930  0.88820  0.36740  1.0000
  C   C35       1.0  0.36930  0.61180  0.86740  1.0000
  C   C36       1.0  0.13070  0.11180  0.63260  1.0000
  H   H17       1.0  0.62567  0.42983  0.07585  1.0000
  H   H18       1.0  0.87433  0.92983  0.42415  1.0000
  H   H19       1.0  0.37433  0.57017  0.92415  1.0000
  H   H20       1.0  0.12567  0.07017  0.57585  1.0000
