data_image0
_chemical_formula_structural       Ce4S4O36H8C8
_chemical_formula_sum              "Ce4 S4 O36 H8 C8"
_cell_length_a       6.9346
_cell_length_b       8.2731
_cell_length_c       14.3934
_cell_angle_alpha    90
_cell_angle_beta     93.998
_cell_angle_gamma    90

_space_group_name_H-M_alt    "P 1"
_space_group_IT_number       1

loop_
  _space_group_symop_operation_xyz
  'x, y, z'

loop_
  _atom_site_type_symbol
  _atom_site_label
  _atom_site_symmetry_multiplicity
  _atom_site_fract_x
  _atom_site_fract_y
  _atom_site_fract_z
  _atom_site_occupancy
  Ce  Ce1       1.0  0.25442  0.21949  0.41353  1.0000
  Ce  Ce2       1.0  0.24558  0.71949  0.08647  1.0000
  Ce  Ce3       1.0  0.74558  0.78051  0.58647  1.0000
  Ce  Ce4       1.0  0.75442  0.28051  0.91353  1.0000
  S   S1        1.0  0.24260  0.86160  0.49776  1.0000
  S   S2        1.0  0.25740  0.36160  0.00224  1.0000
  S   S3        1.0  0.75740  0.13840  0.50224  1.0000
  S   S4        1.0  0.74260  0.63840  0.99776  1.0000
  O   O1        1.0  0.28510  0.01930  0.54430  1.0000
  O   O2        1.0  0.21490  0.51930  0.95570  1.0000
  O   O3        1.0  0.71490  0.98070  0.45570  1.0000
  O   O4        1.0  0.78510  0.48070  0.04430  1.0000
  O   O5        1.0  0.41060  0.75480  0.51290  1.0000
  O   O6        1.0  0.08940  0.25480  0.98710  1.0000
  O   O7        1.0  0.58940  0.24520  0.48710  1.0000
  O   O8        1.0  0.91060  0.74520  0.01290  1.0000
  O   O9        1.0  0.20180  0.89980  0.39890  1.0000
  O   O10       1.0  0.29820  0.39980  0.10110  1.0000
  O   O11       1.0  0.79820  0.10020  0.60110  1.0000
  O   O12       1.0  0.70180  0.60020  0.89890  1.0000
  O   O13       1.0  0.07670  0.78260  0.53720  1.0000
  O   O14       1.0  0.42330  0.28260  0.96280  1.0000
  O   O15       1.0  0.92330  0.21740  0.46280  1.0000
  O   O16       1.0  0.57670  0.71740  0.03720  1.0000
  O   O17       1.0  0.45040  0.12200  0.28070  1.0000
  O   O18       1.0  0.04960  0.62200  0.21930  1.0000
  O   O19       1.0  0.54960  0.87800  0.71930  1.0000
  O   O20       1.0  0.95040  0.37800  0.78070  1.0000
  O   O21       1.0  0.44250  0.96090  0.15630  1.0000
  O   O22       1.0  0.05750  0.46090  0.34370  1.0000
  O   O23       1.0  0.55750  0.03910  0.84370  1.0000
  O   O24       1.0  0.94250  0.53910  0.65630  1.0000
  O   O25       1.0  0.06290  0.14130  0.26320  1.0000
  O   O26       1.0  0.43710  0.64130  0.23680  1.0000
  O   O27       1.0  0.93710  0.85870  0.73680  1.0000
  O   O28       1.0  0.56290  0.35870  0.76320  1.0000
  O   O29       1.0  0.05890  0.95410  0.15140  1.0000
  O   O30       1.0  0.44110  0.45410  0.34860  1.0000
  O   O31       1.0  0.94110  0.04590  0.84860  1.0000
  O   O32       1.0  0.55890  0.54590  0.65140  1.0000
  O   O33       1.0  0.24290  0.40780  0.55130  1.0000
  O   O34       1.0  0.25710  0.90780  0.94870  1.0000
  O   O35       1.0  0.75710  0.59220  0.44870  1.0000
  O   O36       1.0  0.74290  0.09220  0.05130  1.0000
  H   H1        1.0  0.13930  0.39120  0.57810  1.0000
  H   H2        1.0  0.36070  0.89120  0.92190  1.0000
  H   H3        1.0  0.86070  0.60880  0.42190  1.0000
  H   H4        1.0  0.63930  0.10880  0.07810  1.0000
  H   H5        1.0  0.33980  0.38980  0.58930  1.0000
  H   H6        1.0  0.16020  0.88980  0.91070  1.0000
  H   H7        1.0  0.66020  0.61020  0.41070  1.0000
  H   H8        1.0  0.83980  0.11020  0.08930  1.0000
  C   C1        1.0  0.36510  0.04340  0.21590  1.0000
  C   C2        1.0  0.13490  0.54340  0.28410  1.0000
  C   C3        1.0  0.63490  0.95660  0.78410  1.0000
  C   C4        1.0  0.86510  0.45660  0.71590  1.0000
  C   C5        1.0  0.14150  0.04830  0.20990  1.0000
  C   C6        1.0  0.35850  0.54830  0.29010  1.0000
  C   C7        1.0  0.85850  0.95170  0.79010  1.0000
  C   C8        1.0  0.64150  0.45170  0.70990  1.0000
