data_image0
_chemical_formula_structural       Tb4S4O36H8C8
_chemical_formula_sum              "Tb4 S4 O36 H8 C8"
_cell_length_a       6.5786
_cell_length_b       8.6025
_cell_length_c       13.7919
_cell_angle_alpha    90
_cell_angle_beta     93.015
_cell_angle_gamma    90

_space_group_name_H-M_alt    "P 1"
_space_group_IT_number       1

loop_
  _space_group_symop_operation_xyz
  'x, y, z'

loop_
  _atom_site_type_symbol
  _atom_site_label
  _atom_site_symmetry_multiplicity
  _atom_site_fract_x
  _atom_site_fract_y
  _atom_site_fract_z
  _atom_site_occupancy
  Tb  Tb1       1.0  0.24568  0.24042  0.91055  1.0000
  Tb  Tb2       1.0  0.25432  0.74042  0.58945  1.0000
  Tb  Tb3       1.0  0.75432  0.75958  0.08945  1.0000
  Tb  Tb4       1.0  0.74568  0.25958  0.41055  1.0000
  S   S1        1.0  0.24003  0.83345  0.97480  1.0000
  S   S2        1.0  0.25997  0.33345  0.52520  1.0000
  S   S3        1.0  0.75997  0.16655  0.02520  1.0000
  S   S4        1.0  0.74003  0.66655  0.47480  1.0000
  O   O1        1.0  0.24910  0.00320  0.99337  1.0000
  O   O2        1.0  0.25090  0.50320  0.50663  1.0000
  O   O3        1.0  0.75090  0.99680  0.00663  1.0000
  O   O4        1.0  0.74910  0.49680  0.49337  1.0000
  O   O5        1.0  0.43860  0.76240  0.00190  1.0000
  O   O6        1.0  0.06140  0.26240  0.49810  1.0000
  O   O7        1.0  0.56140  0.23760  0.99810  1.0000
  O   O8        1.0  0.93860  0.73760  0.50190  1.0000
  O   O9        1.0  0.18690  0.80420  0.87239  1.0000
  O   O10       1.0  0.31310  0.30420  0.62761  1.0000
  O   O11       1.0  0.81310  0.19580  0.12761  1.0000
  O   O12       1.0  0.68690  0.69580  0.37239  1.0000
  O   O13       1.0  0.08580  0.76420  0.03580  1.0000
  O   O14       1.0  0.41420  0.26420  0.46420  1.0000
  O   O15       1.0  0.91420  0.23580  0.96420  1.0000
  O   O16       1.0  0.58580  0.73580  0.53580  1.0000
  O   O17       1.0  0.44750  0.44430  0.84116  1.0000
  O   O18       1.0  0.05250  0.94430  0.65884  1.0000
  O   O19       1.0  0.55250  0.55570  0.15884  1.0000
  O   O20       1.0  0.94750  0.05570  0.34116  1.0000
  O   O21       1.0  0.04460  0.44370  0.82790  1.0000
  O   O22       1.0  0.45540  0.94370  0.67210  1.0000
  O   O23       1.0  0.95540  0.55630  0.17210  1.0000
  O   O24       1.0  0.54460  0.05630  0.32790  1.0000
  O   O25       1.0  0.04580  0.60540  0.70034  1.0000
  O   O26       1.0  0.45420  0.10540  0.79966  1.0000
  O   O27       1.0  0.95420  0.39460  0.29966  1.0000
  O   O28       1.0  0.54580  0.89460  0.20034  1.0000
  O   O29       1.0  0.45390  0.62140  0.72188  1.0000
  O   O30       1.0  0.04610  0.12140  0.77812  1.0000
  O   O31       1.0  0.54610  0.37860  0.27812  1.0000
  O   O32       1.0  0.95390  0.87860  0.22188  1.0000
  O   O33       1.0  0.23630  0.42090  0.04350  1.0000
  O   O34       1.0  0.26370  0.92090  0.45650  1.0000
  O   O35       1.0  0.76370  0.57910  0.95650  1.0000
  O   O36       1.0  0.73630  0.07910  0.54350  1.0000
  H   H1        1.0  0.30160  0.38310  0.09280  1.0000
  H   H2        1.0  0.19840  0.88310  0.40720  1.0000
  H   H3        1.0  0.69840  0.61690  0.90720  1.0000
  H   H4        1.0  0.80160  0.11690  0.59280  1.0000
  H   H5        1.0  0.29110  0.50610  0.02760  1.0000
  H   H6        1.0  0.20890  0.00610  0.47240  1.0000
  H   H7        1.0  0.70890  0.49390  0.97240  1.0000
  H   H8        1.0  0.79110  0.99390  0.52760  1.0000
  C   C1        1.0  0.36460  0.53280  0.77790  1.0000
  C   C2        1.0  0.13540  0.03280  0.72210  1.0000
  C   C3        1.0  0.63540  0.46720  0.22210  1.0000
  C   C4        1.0  0.86460  0.96720  0.27790  1.0000
  C   C5        1.0  0.13070  0.52800  0.76810  1.0000
  C   C6        1.0  0.36930  0.02800  0.73190  1.0000
  C   C7        1.0  0.86930  0.47200  0.23190  1.0000
  C   C8        1.0  0.63070  0.97200  0.26810  1.0000
