data_image0
_chemical_formula_structural       Gd4S4O36H8C8
_chemical_formula_sum              "Gd4 S4 O36 H8 C8"
_cell_length_a       8.0845
_cell_length_b       11.7544
_cell_length_c       9.3323
_cell_angle_alpha    90
_cell_angle_beta     108.846
_cell_angle_gamma    90

_space_group_name_H-M_alt    "P 1"
_space_group_IT_number       1

loop_
  _space_group_symop_operation_xyz
  'x, y, z'

loop_
  _atom_site_type_symbol
  _atom_site_label
  _atom_site_symmetry_multiplicity
  _atom_site_fract_x
  _atom_site_fract_y
  _atom_site_fract_z
  _atom_site_occupancy
  Gd  Gd1       1.0  0.87722  0.09095  0.16291  1.0000
  Gd  Gd2       1.0  0.12278  0.59095  0.33709  1.0000
  Gd  Gd3       1.0  0.12278  0.90905  0.83709  1.0000
  Gd  Gd4       1.0  0.87722  0.40905  0.66291  1.0000
  S   S1        1.0  0.21820  0.87160  0.21251  1.0000
  S   S2        1.0  0.78180  0.37160  0.28749  1.0000
  S   S3        1.0  0.78180  0.12840  0.78749  1.0000
  S   S4        1.0  0.21820  0.62840  0.71251  1.0000
  O   O1        1.0  0.07460  0.95230  0.14420  1.0000
  O   O2        1.0  0.92540  0.45230  0.35580  1.0000
  O   O3        1.0  0.92540  0.04770  0.85580  1.0000
  O   O4        1.0  0.07460  0.54770  0.64420  1.0000
  O   O5        1.0  0.26160  0.82230  0.08400  1.0000
  O   O6        1.0  0.73840  0.32230  0.41600  1.0000
  O   O7        1.0  0.73840  0.17770  0.91600  1.0000
  O   O8        1.0  0.26160  0.67770  0.58400  1.0000
  O   O9        1.0  0.36780  0.93020  0.31420  1.0000
  O   O10       1.0  0.63220  0.43020  0.18580  1.0000
  O   O11       1.0  0.63220  0.06980  0.68580  1.0000
  O   O12       1.0  0.36780  0.56980  0.81420  1.0000
  O   O13       1.0  0.15680  0.78310  0.29140  1.0000
  O   O14       1.0  0.84320  0.28310  0.20860  1.0000
  O   O15       1.0  0.84320  0.21690  0.70860  1.0000
  O   O16       1.0  0.15680  0.71690  0.79140  1.0000
  O   O17       1.0  0.56740  0.11190  0.12960  1.0000
  O   O18       1.0  0.43260  0.61190  0.37040  1.0000
  O   O19       1.0  0.43260  0.88810  0.87040  1.0000
  O   O20       1.0  0.56740  0.38810  0.62960  1.0000
  O   O21       1.0  0.29840  0.06180  0.98220  1.0000
  O   O22       1.0  0.70160  0.56180  0.51780  1.0000
  O   O23       1.0  0.70160  0.93820  0.01780  1.0000
  O   O24       1.0  0.29840  0.43820  0.48220  1.0000
  O   O25       1.0  0.82270  0.96010  0.34550  1.0000
  O   O26       1.0  0.17730  0.46010  0.15450  1.0000
  O   O27       1.0  0.17730  0.03990  0.65450  1.0000
  O   O28       1.0  0.82270  0.53990  0.84550  1.0000
  O   O29       1.0  0.92110  0.88680  0.57910  1.0000
  O   O30       1.0  0.07890  0.38680  0.92090  1.0000
  O   O31       1.0  0.07890  0.11320  0.42090  1.0000
  O   O32       1.0  0.92110  0.61320  0.07910  1.0000
  O   O33       1.0  0.13050  0.19050  0.13600  1.0000
  O   O34       1.0  0.86950  0.69050  0.36400  1.0000
  O   O35       1.0  0.86950  0.80950  0.86400  1.0000
  O   O36       1.0  0.13050  0.30950  0.63600  1.0000
  H   H1        1.0  0.09900  0.23030  0.05560  1.0000
  H   H2        1.0  0.90100  0.73030  0.44440  1.0000
  H   H3        1.0  0.90100  0.76970  0.94440  1.0000
  H   H4        1.0  0.09900  0.26970  0.55560  1.0000
  H   H5        1.0  0.20650  0.14210  0.13080  1.0000
  H   H6        1.0  0.79350  0.64210  0.36920  1.0000
  H   H7        1.0  0.79350  0.85790  0.86920  1.0000
  H   H8        1.0  0.20650  0.35790  0.63080  1.0000
  C   C1        1.0  0.46250  0.05050  0.03350  1.0000
  C   C2        1.0  0.53750  0.55050  0.46650  1.0000
  C   C3        1.0  0.53750  0.94950  0.96650  1.0000
  C   C4        1.0  0.46250  0.44950  0.53350  1.0000
  C   C5        1.0  0.92480  0.95640  0.47760  1.0000
  C   C6        1.0  0.07520  0.45640  0.02240  1.0000
  C   C7        1.0  0.07520  0.04360  0.52240  1.0000
  C   C8        1.0  0.92480  0.54360  0.97760  1.0000
