data_image0
_chemical_formula_structural       Nd4S4O36H8C8
_chemical_formula_sum              "Nd4 S4 O36 H8 C8"
_cell_length_a       8.1876
_cell_length_b       11.7787
_cell_length_c       9.2798
_cell_angle_alpha    90
_cell_angle_beta     107.885
_cell_angle_gamma    90

_space_group_name_H-M_alt    "P 1"
_space_group_IT_number       1

loop_
  _space_group_symop_operation_xyz
  'x, y, z'

loop_
  _atom_site_type_symbol
  _atom_site_label
  _atom_site_symmetry_multiplicity
  _atom_site_fract_x
  _atom_site_fract_y
  _atom_site_fract_z
  _atom_site_occupancy
  Nd  Nd1       1.0  0.88041  0.58838  0.15391  1.0000
  Nd  Nd2       1.0  0.11959  0.08838  0.34609  1.0000
  Nd  Nd3       1.0  0.11959  0.41162  0.84609  1.0000
  Nd  Nd4       1.0  0.88041  0.91162  0.65391  1.0000
  S   S1        1.0  0.77796  0.63255  0.78856  1.0000
  S   S2        1.0  0.22204  0.13255  0.71144  1.0000
  S   S3        1.0  0.22204  0.36745  0.21144  1.0000
  S   S4        1.0  0.77796  0.86745  0.28856  1.0000
  O   O1        1.0  0.91960  0.55370  0.87250  1.0000
  O   O2        1.0  0.08040  0.05370  0.62750  1.0000
  O   O3        1.0  0.08040  0.44630  0.12750  1.0000
  O   O4        1.0  0.91960  0.94630  0.37250  1.0000
  O   O5        1.0  0.72210  0.68570  0.90860  1.0000
  O   O6        1.0  0.27790  0.18570  0.59140  1.0000
  O   O7        1.0  0.27790  0.31430  0.09140  1.0000
  O   O8        1.0  0.72210  0.81430  0.40860  1.0000
  O   O9        1.0  0.63990  0.56980  0.68390  1.0000
  O   O10       1.0  0.36010  0.06980  0.81610  1.0000
  O   O11       1.0  0.36010  0.43020  0.31610  1.0000
  O   O12       1.0  0.63990  0.93020  0.18390  1.0000
  O   O13       1.0  0.84730  0.71590  0.70730  1.0000
  O   O14       1.0  0.15270  0.21590  0.79270  1.0000
  O   O15       1.0  0.15270  0.28410  0.29270  1.0000
  O   O16       1.0  0.84730  0.78410  0.20730  1.0000
  O   O17       1.0  0.57010  0.60860  0.13120  1.0000
  O   O18       1.0  0.42990  0.10860  0.36880  1.0000
  O   O19       1.0  0.42990  0.39140  0.86880  1.0000
  O   O20       1.0  0.57010  0.89140  0.63120  1.0000
  O   O21       1.0  0.30540  0.56660  0.98490  1.0000
  O   O22       1.0  0.69460  0.06660  0.51510  1.0000
  O   O23       1.0  0.69460  0.43340  0.01510  1.0000
  O   O24       1.0  0.30540  0.93340  0.48490  1.0000
  O   O25       1.0  0.83490  0.45160  0.34580  1.0000
  O   O26       1.0  0.16510  0.95160  0.15420  1.0000
  O   O27       1.0  0.16510  0.54840  0.65420  1.0000
  O   O28       1.0  0.83490  0.04840  0.84580  1.0000
  O   O29       1.0  0.91770  0.39130  0.58410  1.0000
  O   O30       1.0  0.08230  0.89130  0.91590  1.0000
  O   O31       1.0  0.08230  0.60870  0.41590  1.0000
  O   O32       1.0  0.91770  0.10870  0.08410  1.0000
  O   O33       1.0  0.13900  0.69420  0.13910  1.0000
  O   O34       1.0  0.86100  0.19420  0.36090  1.0000
  O   O35       1.0  0.86100  0.30580  0.86090  1.0000
  O   O36       1.0  0.13900  0.80580  0.63910  1.0000
  H   H1        1.0  0.10900  0.75940  0.10080  1.0000
  H   H2        1.0  0.89100  0.25940  0.39920  1.0000
  H   H3        1.0  0.89100  0.24060  0.89920  1.0000
  H   H4        1.0  0.10900  0.74060  0.60080  1.0000
  H   H5        1.0  0.18640  0.65760  0.08380  1.0000
  H   H6        1.0  0.81360  0.15760  0.41620  1.0000
  H   H7        1.0  0.81360  0.34240  0.91620  1.0000
  H   H8        1.0  0.18640  0.84240  0.58380  1.0000
  C   C1        1.0  0.46550  0.55080  0.03480  1.0000
  C   C2        1.0  0.53450  0.05080  0.46520  1.0000
  C   C3        1.0  0.53450  0.44920  0.96520  1.0000
  C   C4        1.0  0.46550  0.94920  0.53480  1.0000
  C   C5        1.0  0.92790  0.45610  0.47950  1.0000
  C   C6        1.0  0.07210  0.95610  0.02050  1.0000
  C   C7        1.0  0.07210  0.54390  0.52050  1.0000
  C   C8        1.0  0.92790  0.04390  0.97950  1.0000
