data_image0
_chemical_formula_structural       Eu4S4O36H8C8
_chemical_formula_sum              "Eu4 S4 O36 H8 C8"
_cell_length_a       8.1083
_cell_length_b       11.7568
_cell_length_c       9.2983
_cell_angle_alpha    90
_cell_angle_beta     108.519
_cell_angle_gamma    90

_space_group_name_H-M_alt    "P 1"
_space_group_IT_number       1

loop_
  _space_group_symop_operation_xyz
  'x, y, z'

loop_
  _atom_site_type_symbol
  _atom_site_label
  _atom_site_symmetry_multiplicity
  _atom_site_fract_x
  _atom_site_fract_y
  _atom_site_fract_z
  _atom_site_occupancy
  Eu  Eu1       1.0  0.87814  0.59014  0.16032  1.0000
  Eu  Eu2       1.0  0.12186  0.09014  0.33968  1.0000
  Eu  Eu3       1.0  0.12186  0.40986  0.83968  1.0000
  Eu  Eu4       1.0  0.87814  0.90986  0.66032  1.0000
  S   S1        1.0  0.21888  0.37039  0.21210  1.0000
  S   S2        1.0  0.78112  0.87039  0.28790  1.0000
  S   S3        1.0  0.78112  0.62961  0.78790  1.0000
  S   S4        1.0  0.21888  0.12961  0.71210  1.0000
  O   O1        1.0  0.07630  0.45070  0.13950  1.0000
  O   O2        1.0  0.92370  0.95070  0.36050  1.0000
  O   O3        1.0  0.92370  0.54930  0.86050  1.0000
  O   O4        1.0  0.07630  0.04930  0.63950  1.0000
  O   O5        1.0  0.26500  0.31950  0.08550  1.0000
  O   O6        1.0  0.73500  0.81950  0.41450  1.0000
  O   O7        1.0  0.73500  0.68050  0.91450  1.0000
  O   O8        1.0  0.26500  0.18050  0.58550  1.0000
  O   O9        1.0  0.36580  0.43000  0.31480  1.0000
  O   O10       1.0  0.63420  0.93000  0.18520  1.0000
  O   O11       1.0  0.63420  0.57000  0.68520  1.0000
  O   O12       1.0  0.36580  0.07000  0.81480  1.0000
  O   O13       1.0  0.15610  0.28280  0.29210  1.0000
  O   O14       1.0  0.84390  0.78280  0.20790  1.0000
  O   O15       1.0  0.84390  0.71720  0.70790  1.0000
  O   O16       1.0  0.15610  0.21720  0.79210  1.0000
  O   O17       1.0  0.56880  0.61140  0.12970  1.0000
  O   O18       1.0  0.43120  0.11140  0.37030  1.0000
  O   O19       1.0  0.43120  0.38860  0.87030  1.0000
  O   O20       1.0  0.56880  0.88860  0.62970  1.0000
  O   O21       1.0  0.30070  0.56320  0.98360  1.0000
  O   O22       1.0  0.69930  0.06320  0.51640  1.0000
  O   O23       1.0  0.69930  0.43680  0.01640  1.0000
  O   O24       1.0  0.30070  0.93680  0.48360  1.0000
  O   O25       1.0  0.82630  0.45770  0.34550  1.0000
  O   O26       1.0  0.17370  0.95770  0.15450  1.0000
  O   O27       1.0  0.17370  0.54230  0.65450  1.0000
  O   O28       1.0  0.82630  0.04230  0.84550  1.0000
  O   O29       1.0  0.91960  0.38810  0.58110  1.0000
  O   O30       1.0  0.08040  0.88810  0.91890  1.0000
  O   O31       1.0  0.08040  0.61190  0.41890  1.0000
  O   O32       1.0  0.91960  0.11190  0.08110  1.0000
  O   O33       1.0  0.13260  0.69130  0.13640  1.0000
  O   O34       1.0  0.86740  0.19130  0.36360  1.0000
  O   O35       1.0  0.86740  0.30870  0.86360  1.0000
  O   O36       1.0  0.13260  0.80870  0.63640  1.0000
  H   H1        1.0  0.10100  0.75550  0.09450  1.0000
  H   H2        1.0  0.89900  0.25550  0.40550  1.0000
  H   H3        1.0  0.89900  0.24450  0.90550  1.0000
  H   H4        1.0  0.10100  0.74450  0.59450  1.0000
  H   H5        1.0  0.17860  0.65220  0.08220  1.0000
  H   H6        1.0  0.82140  0.15220  0.41780  1.0000
  H   H7        1.0  0.82140  0.34780  0.91780  1.0000
  H   H8        1.0  0.17860  0.84780  0.58220  1.0000
  C   C1        1.0  0.46390  0.55040  0.03370  1.0000
  C   C2        1.0  0.53610  0.05040  0.46630  1.0000
  C   C3        1.0  0.53610  0.44960  0.96630  1.0000
  C   C4        1.0  0.46390  0.94960  0.53370  1.0000
  C   C5        1.0  0.92590  0.45620  0.47860  1.0000
  C   C6        1.0  0.07410  0.95620  0.02140  1.0000
  C   C7        1.0  0.07410  0.54380  0.52140  1.0000
  C   C8        1.0  0.92590  0.04380  0.97860  1.0000
