data_image0
_chemical_formula_structural       Dy4S4O36H8C8
_chemical_formula_sum              "Dy4 S4 O36 H8 C8"
_cell_length_a       6.5535
_cell_length_b       8.5529
_cell_length_c       13.7537
_cell_angle_alpha    90
_cell_angle_beta     92.921
_cell_angle_gamma    90

_space_group_name_H-M_alt    "P 1"
_space_group_IT_number       1

loop_
  _space_group_symop_operation_xyz
  'x, y, z'

loop_
  _atom_site_type_symbol
  _atom_site_label
  _atom_site_symmetry_multiplicity
  _atom_site_fract_x
  _atom_site_fract_y
  _atom_site_fract_z
  _atom_site_occupancy
  Dy  Dy1       1.0  0.24569  0.24041  0.91016  1.0000
  Dy  Dy2       1.0  0.25431  0.74041  0.58984  1.0000
  Dy  Dy3       1.0  0.75431  0.75959  0.08984  1.0000
  Dy  Dy4       1.0  0.74569  0.25959  0.41016  1.0000
  S   S1        1.0  0.24021  0.83348  0.97484  1.0000
  S   S2        1.0  0.25979  0.33348  0.52516  1.0000
  S   S3        1.0  0.75979  0.16652  0.02516  1.0000
  S   S4        1.0  0.74021  0.66652  0.47484  1.0000
  O   O1        1.0  0.24880  0.00400  0.99279  1.0000
  O   O2        1.0  0.25120  0.50400  0.50721  1.0000
  O   O3        1.0  0.75120  0.99600  0.00721  1.0000
  O   O4        1.0  0.74880  0.49600  0.49279  1.0000
  O   O5        1.0  0.43940  0.76210  0.00260  1.0000
  O   O6        1.0  0.06060  0.26210  0.49740  1.0000
  O   O7        1.0  0.56060  0.23790  0.99740  1.0000
  O   O8        1.0  0.93940  0.73790  0.50260  1.0000
  O   O9        1.0  0.18890  0.80310  0.87235  1.0000
  O   O10       1.0  0.31110  0.30310  0.62765  1.0000
  O   O11       1.0  0.81110  0.19690  0.12765  1.0000
  O   O12       1.0  0.68890  0.69690  0.37235  1.0000
  O   O13       1.0  0.08470  0.76440  0.03560  1.0000
  O   O14       1.0  0.41530  0.26440  0.46440  1.0000
  O   O15       1.0  0.91530  0.23560  0.96440  1.0000
  O   O16       1.0  0.58470  0.73560  0.53560  1.0000
  O   O17       1.0  0.44730  0.44310  0.84081  1.0000
  O   O18       1.0  0.05270  0.94310  0.65919  1.0000
  O   O19       1.0  0.55270  0.55690  0.15919  1.0000
  O   O20       1.0  0.94730  0.05690  0.34081  1.0000
  O   O21       1.0  0.04460  0.44280  0.82778  1.0000
  O   O22       1.0  0.45540  0.94280  0.67222  1.0000
  O   O23       1.0  0.95540  0.55720  0.17222  1.0000
  O   O24       1.0  0.54460  0.05720  0.32778  1.0000
  O   O25       1.0  0.04530  0.60550  0.70010  1.0000
  O   O26       1.0  0.45470  0.10550  0.79990  1.0000
  O   O27       1.0  0.95470  0.39450  0.29990  1.0000
  O   O28       1.0  0.54530  0.89450  0.20010  1.0000
  O   O29       1.0  0.45360  0.62040  0.72105  1.0000
  O   O30       1.0  0.04640  0.12040  0.77895  1.0000
  O   O31       1.0  0.54640  0.37960  0.27895  1.0000
  O   O32       1.0  0.95360  0.87960  0.22105  1.0000
  O   O33       1.0  0.23790  0.42100  0.04255  1.0000
  O   O34       1.0  0.26210  0.92100  0.45745  1.0000
  O   O35       1.0  0.76210  0.57900  0.95745  1.0000
  O   O36       1.0  0.73790  0.07900  0.54255  1.0000
  H   H1        1.0  0.11460  0.43720  0.05630  1.0000
  H   H2        1.0  0.38540  0.93720  0.44370  1.0000
  H   H3        1.0  0.88540  0.56280  0.94370  1.0000
  H   H4        1.0  0.61460  0.06280  0.55630  1.0000
  H   H5        1.0  0.29230  0.50670  0.02630  1.0000
  H   H6        1.0  0.20770  0.00670  0.47370  1.0000
  H   H7        1.0  0.70770  0.49330  0.97370  1.0000
  H   H8        1.0  0.79230  0.99330  0.52630  1.0000
  C   C1        1.0  0.36510  0.53200  0.77760  1.0000
  C   C2        1.0  0.13490  0.03200  0.72240  1.0000
  C   C3        1.0  0.63490  0.46800  0.22240  1.0000
  C   C4        1.0  0.86510  0.96800  0.27760  1.0000
  C   C5        1.0  0.13060  0.52760  0.76750  1.0000
  C   C6        1.0  0.36940  0.02760  0.73250  1.0000
  C   C7        1.0  0.86940  0.47240  0.23250  1.0000
  C   C8        1.0  0.63060  0.97240  0.26750  1.0000
