data_image0
_chemical_formula_structural       Gd4S4O36H8C8
_chemical_formula_sum              "Gd4 S4 O36 H8 C8"
_cell_length_a       6.5902
_cell_length_b       8.61
_cell_length_c       13.8089
_cell_angle_alpha    90
_cell_angle_beta     93.133
_cell_angle_gamma    90

_space_group_name_H-M_alt    "P 1"
_space_group_IT_number       1

loop_
  _space_group_symop_operation_xyz
  'x, y, z'

loop_
  _atom_site_type_symbol
  _atom_site_label
  _atom_site_symmetry_multiplicity
  _atom_site_fract_x
  _atom_site_fract_y
  _atom_site_fract_z
  _atom_site_occupancy
  Gd  Gd1       1.0  0.24576  0.24062  0.91090  1.0000
  Gd  Gd2       1.0  0.25424  0.74062  0.58910  1.0000
  Gd  Gd3       1.0  0.75424  0.75938  0.08910  1.0000
  Gd  Gd4       1.0  0.74576  0.25938  0.41090  1.0000
  S   S1        1.0  0.23941  0.83335  0.97472  1.0000
  S   S2        1.0  0.26059  0.33335  0.52528  1.0000
  S   S3        1.0  0.76059  0.16665  0.02528  1.0000
  S   S4        1.0  0.73941  0.66665  0.47472  1.0000
  O   O1        1.0  0.24940  0.00260  0.99390  1.0000
  O   O2        1.0  0.25060  0.50260  0.50610  1.0000
  O   O3        1.0  0.75060  0.99740  0.00610  1.0000
  O   O4        1.0  0.74940  0.49740  0.49390  1.0000
  O   O5        1.0  0.43790  0.76240  0.00120  1.0000
  O   O6        1.0  0.06210  0.26240  0.49880  1.0000
  O   O7        1.0  0.56210  0.23760  0.99880  1.0000
  O   O8        1.0  0.93790  0.73760  0.50120  1.0000
  O   O9        1.0  0.18600  0.80540  0.87300  1.0000
  O   O10       1.0  0.31400  0.30540  0.62700  1.0000
  O   O11       1.0  0.81400  0.19460  0.12700  1.0000
  O   O12       1.0  0.68600  0.69460  0.37300  1.0000
  O   O13       1.0  0.08740  0.76470  0.03550  1.0000
  O   O14       1.0  0.41260  0.26470  0.46450  1.0000
  O   O15       1.0  0.91260  0.23530  0.96450  1.0000
  O   O16       1.0  0.58740  0.73530  0.53550  1.0000
  O   O17       1.0  0.44760  0.44500  0.84150  1.0000
  O   O18       1.0  0.05240  0.94500  0.65850  1.0000
  O   O19       1.0  0.55240  0.55500  0.15850  1.0000
  O   O20       1.0  0.94760  0.05500  0.34150  1.0000
  O   O21       1.0  0.04570  0.44420  0.82840  1.0000
  O   O22       1.0  0.45430  0.94420  0.67160  1.0000
  O   O23       1.0  0.95430  0.55580  0.17160  1.0000
  O   O24       1.0  0.54570  0.05580  0.32840  1.0000
  O   O25       1.0  0.04580  0.60580  0.70050  1.0000
  O   O26       1.0  0.45420  0.10580  0.79950  1.0000
  O   O27       1.0  0.95420  0.39420  0.29950  1.0000
  O   O28       1.0  0.54580  0.89420  0.20050  1.0000
  O   O29       1.0  0.45280  0.62200  0.72310  1.0000
  O   O30       1.0  0.04720  0.12200  0.77690  1.0000
  O   O31       1.0  0.54720  0.37800  0.27690  1.0000
  O   O32       1.0  0.95280  0.87800  0.22310  1.0000
  O   O33       1.0  0.23440  0.42030  0.04460  1.0000
  O   O34       1.0  0.26560  0.92030  0.45540  1.0000
  O   O35       1.0  0.76560  0.57970  0.95540  1.0000
  O   O36       1.0  0.73440  0.07970  0.54460  1.0000
  H   H1        1.0  0.29930  0.38210  0.09400  1.0000
  H   H2        1.0  0.20070  0.88210  0.40600  1.0000
  H   H3        1.0  0.70070  0.61790  0.90600  1.0000
  H   H4        1.0  0.79930  0.11790  0.59400  1.0000
  H   H5        1.0  0.28890  0.50570  0.02930  1.0000
  H   H6        1.0  0.21110  0.00570  0.47070  1.0000
  H   H7        1.0  0.71110  0.49430  0.97070  1.0000
  H   H8        1.0  0.78890  0.99430  0.52930  1.0000
  C   C1        1.0  0.36510  0.53330  0.77830  1.0000
  C   C2        1.0  0.13490  0.03330  0.72170  1.0000
  C   C3        1.0  0.63490  0.46670  0.22170  1.0000
  C   C4        1.0  0.86510  0.96670  0.27830  1.0000
  C   C5        1.0  0.13110  0.52880  0.76820  1.0000
  C   C6        1.0  0.36890  0.02880  0.73180  1.0000
  C   C7        1.0  0.86890  0.47120  0.23180  1.0000
  C   C8        1.0  0.63110  0.97120  0.26820  1.0000
