data_image0
_chemical_formula_structural       Er4S4O36H8C8
_chemical_formula_sum              "Er4 S4 O36 H8 C8"
_cell_length_a       6.4752
_cell_length_b       8.4502
_cell_length_c       13.627
_cell_angle_alpha    90
_cell_angle_beta     93.028
_cell_angle_gamma    90

_space_group_name_H-M_alt    "P 1"
_space_group_IT_number       1

loop_
  _space_group_symop_operation_xyz
  'x, y, z'

loop_
  _atom_site_type_symbol
  _atom_site_label
  _atom_site_symmetry_multiplicity
  _atom_site_fract_x
  _atom_site_fract_y
  _atom_site_fract_z
  _atom_site_occupancy
  Er  Er1       1.0  0.24576  0.24042  0.90952  1.0000
  Er  Er2       1.0  0.25424  0.74042  0.59048  1.0000
  Er  Er3       1.0  0.75424  0.75958  0.09048  1.0000
  Er  Er4       1.0  0.74576  0.25958  0.40952  1.0000
  S   S1        1.0  0.24180  0.83320  0.97529  1.0000
  S   S2        1.0  0.25820  0.33320  0.52471  1.0000
  S   S3        1.0  0.75820  0.16680  0.02471  1.0000
  S   S4        1.0  0.74180  0.66680  0.47529  1.0000
  O   O1        1.0  0.25140  0.00660  0.99220  1.0000
  O   O2        1.0  0.24860  0.50660  0.50780  1.0000
  O   O3        1.0  0.74860  0.99340  0.00780  1.0000
  O   O4        1.0  0.75140  0.49340  0.49220  1.0000
  O   O5        1.0  0.44110  0.76310  0.00420  1.0000
  O   O6        1.0  0.05890  0.26310  0.49580  1.0000
  O   O7        1.0  0.55890  0.23690  0.99580  1.0000
  O   O8        1.0  0.94110  0.73690  0.50420  1.0000
  O   O9        1.0  0.19380  0.80200  0.87190  1.0000
  O   O10       1.0  0.30620  0.30200  0.62810  1.0000
  O   O11       1.0  0.80620  0.19800  0.12810  1.0000
  O   O12       1.0  0.69380  0.69800  0.37190  1.0000
  O   O13       1.0  0.08490  0.76510  0.03570  1.0000
  O   O14       1.0  0.41510  0.26510  0.46430  1.0000
  O   O15       1.0  0.91510  0.23490  0.96430  1.0000
  O   O16       1.0  0.58490  0.73490  0.53570  1.0000
  O   O17       1.0  0.44910  0.44230  0.84020  1.0000
  O   O18       1.0  0.05090  0.94230  0.65980  1.0000
  O   O19       1.0  0.55090  0.55770  0.15980  1.0000
  O   O20       1.0  0.94910  0.05770  0.34020  1.0000
  O   O21       1.0  0.04550  0.44170  0.82740  1.0000
  O   O22       1.0  0.45450  0.94170  0.67260  1.0000
  O   O23       1.0  0.95450  0.55830  0.17260  1.0000
  O   O24       1.0  0.54550  0.05830  0.32740  1.0000
  O   O25       1.0  0.04560  0.60490  0.70000  1.0000
  O   O26       1.0  0.45440  0.10490  0.80000  1.0000
  O   O27       1.0  0.95440  0.39510  0.30000  1.0000
  O   O28       1.0  0.54560  0.89510  0.20000  1.0000
  O   O29       1.0  0.45280  0.61790  0.71940  1.0000
  O   O30       1.0  0.04720  0.11790  0.78060  1.0000
  O   O31       1.0  0.54720  0.38210  0.28060  1.0000
  O   O32       1.0  0.95280  0.88210  0.21940  1.0000
  O   O33       1.0  0.23690  0.42100  0.04030  1.0000
  O   O34       1.0  0.26310  0.92100  0.45970  1.0000
  O   O35       1.0  0.76310  0.57900  0.95970  1.0000
  O   O36       1.0  0.73690  0.07900  0.54030  1.0000
  H   H1        1.0  0.30370  0.38310  0.09030  1.0000
  H   H2        1.0  0.19630  0.88310  0.40970  1.0000
  H   H3        1.0  0.69630  0.61690  0.90970  1.0000
  H   H4        1.0  0.80370  0.11690  0.59030  1.0000
  H   H5        1.0  0.29210  0.50760  0.02370  1.0000
  H   H6        1.0  0.20790  0.00760  0.47630  1.0000
  H   H7        1.0  0.70790  0.49240  0.97630  1.0000
  H   H8        1.0  0.79210  0.99240  0.52370  1.0000
  C   C1        1.0  0.36150  0.53000  0.77540  1.0000
  C   C2        1.0  0.13850  0.03000  0.72460  1.0000
  C   C3        1.0  0.63850  0.47000  0.22460  1.0000
  C   C4        1.0  0.86150  0.97000  0.27540  1.0000
  C   C5        1.0  0.13140  0.52730  0.76690  1.0000
  C   C6        1.0  0.36860  0.02730  0.73310  1.0000
  C   C7        1.0  0.86860  0.47270  0.23310  1.0000
  C   C8        1.0  0.63140  0.97270  0.26690  1.0000
