data_image0
_chemical_formula_structural       Yb4S4O36H8C8
_chemical_formula_sum              "Yb4 S4 O36 H8 C8"
_cell_length_a       6.4884
_cell_length_b       8.4666
_cell_length_c       13.683
_cell_angle_alpha    90
_cell_angle_beta     92.663
_cell_angle_gamma    90

_space_group_name_H-M_alt    "P 1"
_space_group_IT_number       1

loop_
  _space_group_symop_operation_xyz
  'x, y, z'

loop_
  _atom_site_type_symbol
  _atom_site_label
  _atom_site_symmetry_multiplicity
  _atom_site_fract_x
  _atom_site_fract_y
  _atom_site_fract_z
  _atom_site_occupancy
  Yb  Yb1       1.0  0.24567  0.24019  0.90891  1.0000
  Yb  Yb2       1.0  0.25433  0.74019  0.59109  1.0000
  Yb  Yb3       1.0  0.75433  0.75981  0.09109  1.0000
  Yb  Yb4       1.0  0.74567  0.25981  0.40891  1.0000
  S   S1        1.0  0.24140  0.83349  0.97457  1.0000
  S   S2        1.0  0.25860  0.33349  0.52543  1.0000
  S   S3        1.0  0.75860  0.16651  0.02543  1.0000
  S   S4        1.0  0.74140  0.66651  0.47457  1.0000
  O   O1        1.0  0.24800  0.00690  0.99010  1.0000
  O   O2        1.0  0.25200  0.50690  0.50990  1.0000
  O   O3        1.0  0.75200  0.99310  0.00990  1.0000
  O   O4        1.0  0.74800  0.49310  0.49010  1.0000
  O   O5        1.0  0.44120  0.76280  0.00470  1.0000
  O   O6        1.0  0.05880  0.26280  0.49530  1.0000
  O   O7        1.0  0.55880  0.23720  0.99530  1.0000
  O   O8        1.0  0.94120  0.73720  0.50470  1.0000
  O   O9        1.0  0.19470  0.79990  0.87190  1.0000
  O   O10       1.0  0.30530  0.29990  0.62810  1.0000
  O   O11       1.0  0.80530  0.20010  0.12810  1.0000
  O   O12       1.0  0.69470  0.70010  0.37190  1.0000
  O   O13       1.0  0.08190  0.76500  0.03500  1.0000
  O   O14       1.0  0.41810  0.26500  0.46500  1.0000
  O   O15       1.0  0.91810  0.23500  0.96500  1.0000
  O   O16       1.0  0.58190  0.73500  0.53500  1.0000
  O   O17       1.0  0.44900  0.44060  0.83920  1.0000
  O   O18       1.0  0.05100  0.94060  0.66080  1.0000
  O   O19       1.0  0.55100  0.55940  0.16080  1.0000
  O   O20       1.0  0.94900  0.05940  0.33920  1.0000
  O   O21       1.0  0.04270  0.43990  0.82700  1.0000
  O   O22       1.0  0.45730  0.93990  0.67300  1.0000
  O   O23       1.0  0.95730  0.56010  0.17300  1.0000
  O   O24       1.0  0.54270  0.06010  0.32700  1.0000
  O   O25       1.0  0.04410  0.60490  0.69970  1.0000
  O   O26       1.0  0.45590  0.10490  0.80030  1.0000
  O   O27       1.0  0.95590  0.39510  0.30030  1.0000
  O   O28       1.0  0.54410  0.89510  0.19970  1.0000
  O   O29       1.0  0.45590  0.61750  0.71820  1.0000
  O   O30       1.0  0.04410  0.11750  0.78180  1.0000
  O   O31       1.0  0.54410  0.38250  0.28180  1.0000
  O   O32       1.0  0.95590  0.88250  0.21820  1.0000
  O   O33       1.0  0.23800  0.42330  0.03770  1.0000
  O   O34       1.0  0.26200  0.92330  0.46230  1.0000
  O   O35       1.0  0.76200  0.57670  0.96230  1.0000
  O   O36       1.0  0.73800  0.07670  0.53770  1.0000
  H   H1        1.0  0.20550  0.37660  0.08880  1.0000
  H   H2        1.0  0.29450  0.87660  0.41120  1.0000
  H   H3        1.0  0.79450  0.62340  0.91120  1.0000
  H   H4        1.0  0.70550  0.12340  0.58880  1.0000
  H   H5        1.0  0.35510  0.46630  0.04540  1.0000
  H   H6        1.0  0.14490  0.96630  0.45460  1.0000
  H   H7        1.0  0.64490  0.53370  0.95460  1.0000
  H   H8        1.0  0.85510  0.03370  0.54540  1.0000
  C   C1        1.0  0.36610  0.52930  0.77540  1.0000
  C   C2        1.0  0.13390  0.02930  0.72460  1.0000
  C   C3        1.0  0.63390  0.47070  0.22460  1.0000
  C   C4        1.0  0.86610  0.97070  0.27540  1.0000
  C   C5        1.0  0.13030  0.52510  0.76660  1.0000
  C   C6        1.0  0.36970  0.02510  0.73340  1.0000
  C   C7        1.0  0.86970  0.47490  0.23340  1.0000
  C   C8        1.0  0.63030  0.97490  0.26660  1.0000
