data_image0
_chemical_formula_structural       Cu3P4O14H2C4H6
_chemical_formula_sum              "Cu3 P4 O14 H8 C4"
_cell_length_a       7.489
_cell_length_b       8.0174
_cell_length_c       9.9864
_cell_angle_alpha    111.688
_cell_angle_beta     96.053
_cell_angle_gamma    97.149

_space_group_name_H-M_alt    "P 1"
_space_group_IT_number       1

loop_
  _space_group_symop_operation_xyz
  'x, y, z'

loop_
  _atom_site_type_symbol
  _atom_site_label
  _atom_site_symmetry_multiplicity
  _atom_site_fract_x
  _atom_site_fract_y
  _atom_site_fract_z
  _atom_site_occupancy
  Cu  Cu1       1.0  0.37203  0.72350  0.50586  1.0000
  Cu  Cu2       1.0  0.62797  0.27650  0.49414  1.0000
  Cu  Cu3       1.0  0.50000  0.50000  0.00000  1.0000
  P   P1        1.0  0.60803  0.50546  0.31260  1.0000
  P   P2        1.0  0.39197  0.49454  0.68740  1.0000
  P   P3        1.0  0.55730  0.85837  0.29676  1.0000
  P   P4        1.0  0.44270  0.14163  0.70324  1.0000
  O   O1        1.0  0.73030  0.41520  0.38790  1.0000
  O   O2        1.0  0.26970  0.58480  0.61210  1.0000
  O   O3        1.0  0.42090  0.50580  0.35860  1.0000
  O   O4        1.0  0.57910  0.49420  0.64140  1.0000
  O   O5        1.0  0.38200  0.84530  0.36310  1.0000
  O   O6        1.0  0.61800  0.15470  0.63690  1.0000
  O   O7        1.0  0.59980  0.41980  0.14790  1.0000
  O   O8        1.0  0.40020  0.58020  0.85210  1.0000
  O   O9        1.0  0.64590  0.05520  0.33570  1.0000
  O   O10       1.0  0.35410  0.94480  0.66430  1.0000
  O   O11       1.0  0.52760  0.75640  0.13220  1.0000
  O   O12       1.0  0.47240  0.24360  0.86780  1.0000
  O   O13       1.0  0.71600  0.82010  0.53410  1.0000
  O   O14       1.0  0.28400  0.17990  0.46590  1.0000
  H   H1        1.0  0.77940  0.76680  0.57080  1.0000
  H   H2        1.0  0.22060  0.23320  0.42920  1.0000
  C   C1        1.0  0.71260  0.74820  0.37720  1.0000
  C   C2        1.0  0.28740  0.25180  0.62280  1.0000
  C   C3        1.0  0.90290  0.77410  0.33930  1.0000
  C   C4        1.0  0.09710  0.22590  0.66070  1.0000
  H   H3        1.0  0.89570  0.72570  0.23510  1.0000
  H   H4        1.0  0.10430  0.27430  0.76490  1.0000
  H   H5        1.0  0.97910  0.71120  0.38030  1.0000
  H   H6        1.0  0.02090  0.28880  0.61970  1.0000
  H   H7        1.0  0.95410  0.90170  0.37870  1.0000
  H   H8        1.0  0.04590  0.09830  0.62130  1.0000
