data_image0
_chemical_formula_structural       Zn4N4O36H12C48H12C12H24
_chemical_formula_sum              "Zn4 N4 O36 H48 C60"
_cell_length_a       18.018
_cell_length_b       18.018
_cell_length_c       20.174
_cell_angle_alpha    90
_cell_angle_beta     90
_cell_angle_gamma    120

_space_group_name_H-M_alt    "P 1"
_space_group_IT_number       1

loop_
  _space_group_symop_operation_xyz
  'x, y, z'

loop_
  _atom_site_type_symbol
  _atom_site_label
  _atom_site_symmetry_multiplicity
  _atom_site_fract_x
  _atom_site_fract_y
  _atom_site_fract_z
  _atom_site_occupancy
  Zn  Zn1       1.0  0.66670  0.33330  0.58574  1.0000
  Zn  Zn2       1.0  0.33330  0.66670  0.08574  1.0000
  Zn  Zn3       1.0  0.33330  0.66670  0.41426  1.0000
  Zn  Zn4       1.0  0.66670  0.33330  0.91426  1.0000
  N   N1        1.0  0.66670  0.33330  0.68600  1.0000
  N   N2        1.0  0.33330  0.66670  0.18600  1.0000
  N   N3        1.0  0.33330  0.66670  0.31400  1.0000
  N   N4        1.0  0.66670  0.33330  0.81400  1.0000
  O   O1        1.0  0.63370  0.41100  0.54693  1.0000
  O   O2        1.0  0.58900  0.22270  0.54693  1.0000
  O   O3        1.0  0.77730  0.36630  0.54693  1.0000
  O   O4        1.0  0.36630  0.58900  0.04693  1.0000
  O   O5        1.0  0.41100  0.77730  0.04693  1.0000
  O   O6        1.0  0.22270  0.63370  0.04693  1.0000
  O   O7        1.0  0.36630  0.58900  0.45307  1.0000
  O   O8        1.0  0.41100  0.77730  0.45307  1.0000
  O   O9        1.0  0.22270  0.63370  0.45307  1.0000
  O   O10       1.0  0.63370  0.41100  0.95307  1.0000
  O   O11       1.0  0.58900  0.22270  0.95307  1.0000
  O   O12       1.0  0.77730  0.36630  0.95307  1.0000
  O   O13       1.0  0.51080  0.33920  0.60290  1.0000
  O   O14       1.0  0.66080  0.17160  0.60290  1.0000
  O   O15       1.0  0.82840  0.48920  0.60290  1.0000
  O   O16       1.0  0.48920  0.66080  0.10290  1.0000
  O   O17       1.0  0.33920  0.82840  0.10290  1.0000
  O   O18       1.0  0.17160  0.51080  0.10290  1.0000
  O   O19       1.0  0.48920  0.66080  0.39710  1.0000
  O   O20       1.0  0.33920  0.82840  0.39710  1.0000
  O   O21       1.0  0.17160  0.51080  0.39710  1.0000
  O   O22       1.0  0.51080  0.33920  0.89710  1.0000
  O   O23       1.0  0.66080  0.17160  0.89710  1.0000
  O   O24       1.0  0.82840  0.48920  0.89710  1.0000
  O   O25       1.0  0.39130  0.37460  0.58650  1.0000
  O   O26       1.0  0.62540  0.01670  0.58650  1.0000
  O   O27       1.0  0.98330  0.60870  0.58650  1.0000
  O   O28       1.0  0.60870  0.62540  0.08650  1.0000
  O   O29       1.0  0.37460  0.98330  0.08650  1.0000
  O   O30       1.0  0.01670  0.39130  0.08650  1.0000
  O   O31       1.0  0.60870  0.62540  0.41350  1.0000
  O   O32       1.0  0.37460  0.98330  0.41350  1.0000
  O   O33       1.0  0.01670  0.39130  0.41350  1.0000
  O   O34       1.0  0.39130  0.37460  0.91350  1.0000
  O   O35       1.0  0.62540  0.01670  0.91350  1.0000
  O   O36       1.0  0.98330  0.60870  0.91350  1.0000
  H   H1        1.0  0.41420  0.34740  0.60170  1.0000
  H   H2        1.0  0.65260  0.06680  0.60170  1.0000
  H   H3        1.0  0.93320  0.58580  0.60170  1.0000
  H   H4        1.0  0.58580  0.65260  0.10170  1.0000
  H   H5        1.0  0.34740  0.93320  0.10170  1.0000
  H   H6        1.0  0.06680  0.41420  0.10170  1.0000
  H   H7        1.0  0.58580  0.65260  0.39830  1.0000
  H   H8        1.0  0.34740  0.93320  0.39830  1.0000
  H   H9        1.0  0.06680  0.41420  0.39830  1.0000
  H   H10       1.0  0.41420  0.34740  0.89830  1.0000
  H   H11       1.0  0.65260  0.06680  0.89830  1.0000
  H   H12       1.0  0.93320  0.58580  0.89830  1.0000
  C   C1        1.0  0.55850  0.39400  0.56210  1.0000
  C   C2        1.0  0.60600  0.16450  0.56210  1.0000
  C   C3        1.0  0.83550  0.44150  0.56210  1.0000
  C   C4        1.0  0.44150  0.60600  0.06210  1.0000
  C   C5        1.0  0.39400  0.83550  0.06210  1.0000
  C   C6        1.0  0.16450  0.55850  0.06210  1.0000
  C   C7        1.0  0.44150  0.60600  0.43790  1.0000
  C   C8        1.0  0.39400  0.83550  0.43790  1.0000
  C   C9        1.0  0.16450  0.55850  0.43790  1.0000
  C   C10       1.0  0.55850  0.39400  0.93790  1.0000
  C   C11       1.0  0.60600  0.16450  0.93790  1.0000
  C   C12       1.0  0.83550  0.44150  0.93790  1.0000
  C   C13       1.0  0.52790  0.45050  0.52940  1.0000
  C   C14       1.0  0.54950  0.07740  0.52940  1.0000
  C   C15       1.0  0.92260  0.47210  0.52940  1.0000
  C   C16       1.0  0.47210  0.54950  0.02940  1.0000
  C   C17       1.0  0.45050  0.92260  0.02940  1.0000
  C   C18       1.0  0.07740  0.52790  0.02940  1.0000
  C   C19       1.0  0.47210  0.54950  0.47060  1.0000
  C   C20       1.0  0.45050  0.92260  0.47060  1.0000
  C   C21       1.0  0.07740  0.52790  0.47060  1.0000
  C   C22       1.0  0.52790  0.45050  0.97060  1.0000
  C   C23       1.0  0.54950  0.07740  0.97060  1.0000
  C   C24       1.0  0.92260  0.47210  0.97060  1.0000
  C   C25       1.0  0.44810  0.43790  0.54310  1.0000
  C   C26       1.0  0.56210  0.01020  0.54310  1.0000
  C   C27       1.0  0.98980  0.55190  0.54310  1.0000
  C   C28       1.0  0.55190  0.56210  0.04310  1.0000
  C   C29       1.0  0.43790  0.98980  0.04310  1.0000
  C   C30       1.0  0.01020  0.44810  0.04310  1.0000
  C   C31       1.0  0.55190  0.56210  0.45690  1.0000
  C   C32       1.0  0.43790  0.98980  0.45690  1.0000
  C   C33       1.0  0.01020  0.44810  0.45690  1.0000
  C   C34       1.0  0.44810  0.43790  0.95690  1.0000
  C   C35       1.0  0.56210  0.01020  0.95690  1.0000
  C   C36       1.0  0.98980  0.55190  0.95690  1.0000
  C   C37       1.0  0.58200  0.51350  0.48540  1.0000
  C   C38       1.0  0.48650  0.06850  0.48540  1.0000
  C   C39       1.0  0.93150  0.41800  0.48540  1.0000
  C   C40       1.0  0.41800  0.48650  0.98540  1.0000
  C   C41       1.0  0.51350  0.93150  0.98540  1.0000
  C   C42       1.0  0.06850  0.58200  0.98540  1.0000
  C   C43       1.0  0.41800  0.48650  0.51460  1.0000
  C   C44       1.0  0.51350  0.93150  0.51460  1.0000
  C   C45       1.0  0.06850  0.58200  0.51460  1.0000
  C   C46       1.0  0.58200  0.51350  0.01460  1.0000
  C   C47       1.0  0.48650  0.06850  0.01460  1.0000
  C   C48       1.0  0.93150  0.41800  0.01460  1.0000
  H   H13       1.0  0.63740  0.52260  0.47560  1.0000
  H   H14       1.0  0.47740  0.11480  0.47560  1.0000
  H   H15       1.0  0.88520  0.36260  0.47560  1.0000
  H   H16       1.0  0.36260  0.47740  0.97560  1.0000
  H   H17       1.0  0.52260  0.88520  0.97560  1.0000
  H   H18       1.0  0.11480  0.63740  0.97560  1.0000
  H   H19       1.0  0.36260  0.47740  0.52440  1.0000
  H   H20       1.0  0.52260  0.88520  0.52440  1.0000
  H   H21       1.0  0.11480  0.63740  0.52440  1.0000
  H   H22       1.0  0.63740  0.52260  0.02440  1.0000
  H   H23       1.0  0.47740  0.11480  0.02440  1.0000
  H   H24       1.0  0.88520  0.36260  0.02440  1.0000
  C   C49       1.0  0.58540  0.26070  0.71210  1.0000
  C   C50       1.0  0.73930  0.32470  0.71210  1.0000
  C   C51       1.0  0.67530  0.41460  0.71210  1.0000
  C   C52       1.0  0.41460  0.73930  0.21210  1.0000
  C   C53       1.0  0.26070  0.67530  0.21210  1.0000
  C   C54       1.0  0.32470  0.58540  0.21210  1.0000
  C   C55       1.0  0.41460  0.73930  0.28790  1.0000
  C   C56       1.0  0.26070  0.67530  0.28790  1.0000
  C   C57       1.0  0.32470  0.58540  0.28790  1.0000
  C   C58       1.0  0.58540  0.26070  0.78790  1.0000
  C   C59       1.0  0.73930  0.32470  0.78790  1.0000
  C   C60       1.0  0.67530  0.41460  0.78790  1.0000
  H   H25       1.0  0.57880  0.20590  0.69570  1.0000
  H   H26       1.0  0.79410  0.37290  0.69570  1.0000
  H   H27       1.0  0.62710  0.42120  0.69570  1.0000
  H   H28       1.0  0.42120  0.79410  0.19570  1.0000
  H   H29       1.0  0.20590  0.62710  0.19570  1.0000
  H   H30       1.0  0.37290  0.57880  0.19570  1.0000
  H   H31       1.0  0.42120  0.79410  0.30430  1.0000
  H   H32       1.0  0.20590  0.62710  0.30430  1.0000
  H   H33       1.0  0.37290  0.57880  0.30430  1.0000
  H   H34       1.0  0.57880  0.20590  0.80430  1.0000
  H   H35       1.0  0.79410  0.37290  0.80430  1.0000
  H   H36       1.0  0.62710  0.42120  0.80430  1.0000
  H   H37       1.0  0.53620  0.26560  0.69570  1.0000
  H   H38       1.0  0.73440  0.27060  0.69570  1.0000
  H   H39       1.0  0.72940  0.46380  0.69570  1.0000
  H   H40       1.0  0.46380  0.73440  0.19570  1.0000
  H   H41       1.0  0.26560  0.72940  0.19570  1.0000
  H   H42       1.0  0.27060  0.53620  0.19570  1.0000
  H   H43       1.0  0.46380  0.73440  0.30430  1.0000
  H   H44       1.0  0.26560  0.72940  0.30430  1.0000
  H   H45       1.0  0.27060  0.53620  0.30430  1.0000
  H   H46       1.0  0.53620  0.26560  0.80430  1.0000
  H   H47       1.0  0.73440  0.27060  0.80430  1.0000
  H   H48       1.0  0.72940  0.46380  0.80430  1.0000
