data_image0
_chemical_formula_structural       Co2S2O20N2H2N2H2C6H2C4H2C4H2C8H2C2H2C6H2C4H2C4H2C6
_chemical_formula_sum              "Co2 S2 O20 N4 H20 C44"
_cell_length_a       9.552
_cell_length_b       9.963
_cell_length_c       17.856
_cell_angle_alpha    102.23
_cell_angle_beta     100.55
_cell_angle_gamma    97.842

_space_group_name_H-M_alt    "P 1"
_space_group_IT_number       1

loop_
  _space_group_symop_operation_xyz
  'x, y, z'

loop_
  _atom_site_type_symbol
  _atom_site_label
  _atom_site_symmetry_multiplicity
  _atom_site_fract_x
  _atom_site_fract_y
  _atom_site_fract_z
  _atom_site_occupancy
  Co  Co1       1.0  0.89629  0.44188  0.64582  1.0000
  Co  Co2       1.0  0.10371  0.55812  0.35418  1.0000
  S   S1        1.0  0.57113  0.80814  0.16499  1.0000
  S   S2        1.0  0.42887  0.19186  0.83501  1.0000
  O   O1        1.0  0.84140  0.25300  0.57716  1.0000
  O   O2        1.0  0.15860  0.74700  0.42284  1.0000
  O   O3        1.0  0.86170  0.18280  0.68545  1.0000
  O   O4        1.0  0.13830  0.81720  0.31455  1.0000
  O   O5        1.0  0.95470  0.71170  0.67807  1.0000
  O   O6        1.0  0.04530  0.28830  0.32193  1.0000
  O   O7        1.0  0.87420  0.55400  0.56803  1.0000
  O   O8        1.0  0.12580  0.44600  0.43197  1.0000
  O   O9        1.0  0.75970  0.47100  0.71083  1.0000
  O   O10       1.0  0.24030  0.52900  0.28917  1.0000
  O   O11       1.0  0.58120  0.48290  0.61464  1.0000
  O   O12       1.0  0.41880  0.51710  0.38536  1.0000
  O   O13       1.0  0.09300  0.54590  0.80229  1.0000
  O   O14       1.0  0.90700  0.45410  0.19771  1.0000
  O   O15       1.0  0.10120  0.44280  0.68256  1.0000
  O   O16       1.0  0.89880  0.55720  0.31744  1.0000
  O   O17       1.0  0.44460  0.74860  0.00125  1.0000
  O   O18       1.0  0.55540  0.25140  0.99875  1.0000
  O   O19       1.0  0.65260  0.96420  0.33387  1.0000
  O   O20       1.0  0.34740  0.03580  0.66613  1.0000
  N   N1        1.0  0.60130  0.62660  0.95677  1.0000
  N   N2        1.0  0.39870  0.37340  0.04323  1.0000
  H   H1        1.0  0.68191  0.59961  0.97025  1.0000
  H   H2        1.0  0.31809  0.40039  0.02975  1.0000
  N   N3        1.0  0.80350  0.82370  0.36473  1.0000
  N   N4        1.0  0.19650  0.17630  0.63527  1.0000
  H   H3        1.0  0.84871  0.76066  0.34514  1.0000
  H   H4        1.0  0.15129  0.23934  0.65486  1.0000
  C   C1        1.0  0.84820  0.15960  0.61460  1.0000
  C   C2        1.0  0.15180  0.84040  0.38540  1.0000
  C   C3        1.0  0.84480  0.01830  0.56873  1.0000
  C   C4        1.0  0.15520  0.98170  0.43127  1.0000
  C   C5        1.0  0.87440  0.91800  0.60677  1.0000
  C   C6        1.0  0.12560  0.08200  0.39323  1.0000
  H   H5        1.0  0.89296  0.93844  0.66134  1.0000
  H   H6        1.0  0.10704  0.06156  0.33866  1.0000
  C   C7        1.0  0.87710  0.78670  0.56510  1.0000
  C   C8        1.0  0.12290  0.21330  0.43490  1.0000
  C   C9        1.0  0.85080  0.75700  0.48531  1.0000
  C   C10       1.0  0.14920  0.24300  0.51469  1.0000
  H   H7        1.0  0.85251  0.66762  0.45702  1.0000
  H   H8        1.0  0.14749  0.33238  0.54298  1.0000
  C   C11       1.0  0.82200  0.85810  0.44655  1.0000
  C   C12       1.0  0.17800  0.14190  0.55345  1.0000
  C   C13       1.0  0.81910  0.98810  0.48788  1.0000
  C   C14       1.0  0.18090  0.01190  0.51212  1.0000
  H   H9        1.0  0.79977  0.05703  0.46167  1.0000
  H   H10       1.0  0.20023  0.94297  0.53833  1.0000
  C   C15       1.0  0.90550  0.68000  0.60750  1.0000
  C   C16       1.0  0.09450  0.32000  0.39250  1.0000
  C   C17       1.0  0.72380  0.87830  0.31440  1.0000
  C   C18       1.0  0.27620  0.12170  0.68560  1.0000
  C   C19       1.0  0.72420  0.82340  0.23220  1.0000
  C   C20       1.0  0.27580  0.17660  0.76780  1.0000
  C   C21       1.0  0.82970  0.78060  0.19940  1.0000
  C   C22       1.0  0.17030  0.21940  0.80060  1.0000
  H   H11       1.0  0.92209  0.78159  0.22753  1.0000
  H   H12       1.0  0.07791  0.21841  0.77247  1.0000
  C   C23       1.0  0.78580  0.73400  0.11810  1.0000
  C   C24       1.0  0.21420  0.26600  0.88190  1.0000
  H   H13       1.0  0.84627  0.70118  0.08593  1.0000
  H   H14       1.0  0.15373  0.29882  0.91407  1.0000
  C   C25       1.0  0.64830  0.74140  0.09120  1.0000
  C   C26       1.0  0.35170  0.25860  0.90880  1.0000
  C   C27       1.0  0.55560  0.70470  0.01210  1.0000
  C   C28       1.0  0.44440  0.29530  0.98790  1.0000
  C   C29       1.0  0.38370  0.56470  0.85405  1.0000
  C   C30       1.0  0.61630  0.43530  0.14595  1.0000
  H   H15       1.0  0.32807  0.58209  0.89147  1.0000
  H   H16       1.0  0.67193  0.41791  0.10853  1.0000
  C   C31       1.0  0.53050  0.58210  0.87663  1.0000
  C   C32       1.0  0.46950  0.41790  0.12337  1.0000
  C   C33       1.0  0.61150  0.55400  0.82250  1.0000
  C   C34       1.0  0.38850  0.44600  0.17750  1.0000
  H   H17       1.0  0.71134  0.56292  0.83818  1.0000
  H   H18       1.0  0.28866  0.43708  0.16182  1.0000
  C   C35       1.0  0.54470  0.51210  0.74370  1.0000
  C   C36       1.0  0.45530  0.48790  0.25630  1.0000
  C   C37       1.0  0.39950  0.49550  0.72074  1.0000
  C   C38       1.0  0.60050  0.50450  0.27926  1.0000
  H   H19       1.0  0.35503  0.46658  0.66768  1.0000
  H   H20       1.0  0.64497  0.53342  0.33232  1.0000
  C   C39       1.0  0.31850  0.52130  0.77574  1.0000
  C   C40       1.0  0.68150  0.47870  0.22426  1.0000
  C   C41       1.0  0.15960  0.50370  0.75320  1.0000
  C   C42       1.0  0.84040  0.49630  0.24680  1.0000
  C   C43       1.0  0.63270  0.48460  0.68370  1.0000
  C   C44       1.0  0.36730  0.51540  0.31630  1.0000
