data_image0
_chemical_formula_structural       Zn8S4O52H8O4H8C16
_chemical_formula_sum              "Zn8 S4 O56 H16 C16"
_cell_length_a       8.8573
_cell_length_b       11.4278
_cell_length_c       16.8421
_cell_angle_alpha    90
_cell_angle_beta     90
_cell_angle_gamma    90

_space_group_name_H-M_alt    "P 1"
_space_group_IT_number       1

loop_
  _space_group_symop_operation_xyz
  'x, y, z'

loop_
  _atom_site_type_symbol
  _atom_site_label
  _atom_site_symmetry_multiplicity
  _atom_site_fract_x
  _atom_site_fract_y
  _atom_site_fract_z
  _atom_site_occupancy
  Zn  Zn1       1.0  0.45335  0.57247  0.40666  1.0000
  Zn  Zn2       1.0  0.04665  0.42753  0.90666  1.0000
  Zn  Zn3       1.0  0.95335  0.92753  0.59334  1.0000
  Zn  Zn4       1.0  0.54665  0.07247  0.09334  1.0000
  Zn  Zn5       1.0  0.94934  0.44206  0.57560  1.0000
  Zn  Zn6       1.0  0.55066  0.55794  0.07560  1.0000
  Zn  Zn7       1.0  0.44934  0.05794  0.42440  1.0000
  Zn  Zn8       1.0  0.05066  0.94206  0.92440  1.0000
  S   S1        1.0  0.64806  0.47121  0.25693  1.0000
  S   S2        1.0  0.85194  0.52879  0.75693  1.0000
  S   S3        1.0  0.14806  0.02879  0.74307  1.0000
  S   S4        1.0  0.35194  0.97121  0.24307  1.0000
  O   O1        1.0  0.54160  0.55260  0.29300  1.0000
  O   O2        1.0  0.95840  0.44740  0.79300  1.0000
  O   O3        1.0  0.04160  0.94740  0.70700  1.0000
  O   O4        1.0  0.45840  0.05260  0.20700  1.0000
  O   O5        1.0  0.58210  0.35500  0.25710  1.0000
  O   O6        1.0  0.91790  0.64500  0.75710  1.0000
  O   O7        1.0  0.08210  0.14500  0.74290  1.0000
  O   O8        1.0  0.41790  0.85500  0.24290  1.0000
  O   O9        1.0  0.78990  0.47310  0.29990  1.0000
  O   O10       1.0  0.71010  0.52690  0.79990  1.0000
  O   O11       1.0  0.28990  0.02690  0.70010  1.0000
  O   O12       1.0  0.21010  0.97310  0.20010  1.0000
  O   O13       1.0  0.67440  0.50760  0.17420  1.0000
  O   O14       1.0  0.82560  0.49240  0.67420  1.0000
  O   O15       1.0  0.17440  0.99240  0.82580  1.0000
  O   O16       1.0  0.32560  0.00760  0.32580  1.0000
  O   O17       1.0  0.65000  0.64420  0.45260  1.0000
  O   O18       1.0  0.85000  0.35580  0.95260  1.0000
  O   O19       1.0  0.15000  0.85580  0.54740  1.0000
  O   O20       1.0  0.35000  0.14420  0.04740  1.0000
  O   O21       1.0  0.85860  0.59170  0.51580  1.0000
  O   O22       1.0  0.64140  0.40830  0.01580  1.0000
  O   O23       1.0  0.35860  0.90830  0.48420  1.0000
  O   O24       1.0  0.14140  0.09170  0.98420  1.0000
  O   O25       1.0  0.55290  0.42170  0.45480  1.0000
  O   O26       1.0  0.94710  0.57830  0.95480  1.0000
  O   O27       1.0  0.05290  0.07830  0.54520  1.0000
  O   O28       1.0  0.44710  0.92170  0.04520  1.0000
  O   O29       1.0  0.75460  0.36980  0.52400  1.0000
  O   O30       1.0  0.74540  0.63020  0.02400  1.0000
  O   O31       1.0  0.25460  0.13020  0.47600  1.0000
  O   O32       1.0  0.24540  0.86980  0.97600  1.0000
  O   O33       1.0  0.14830  0.53590  0.59290  1.0000
  O   O34       1.0  0.35170  0.46410  0.09290  1.0000
  O   O35       1.0  0.64830  0.96410  0.40710  1.0000
  O   O36       1.0  0.85170  0.03590  0.90710  1.0000
  O   O37       1.0  0.34730  0.60110  0.52670  1.0000
  O   O38       1.0  0.15270  0.39890  0.02670  1.0000
  O   O39       1.0  0.84730  0.89890  0.47330  1.0000
  O   O40       1.0  0.65270  0.10110  0.97330  1.0000
  O   O41       1.0  0.06340  0.41180  0.46510  1.0000
  O   O42       1.0  0.43660  0.58820  0.96510  1.0000
  O   O43       1.0  0.56340  0.08820  0.53490  1.0000
  O   O44       1.0  0.93660  0.91180  0.03490  1.0000
  O   O45       1.0  0.25130  0.48730  0.39550  1.0000
  O   O46       1.0  0.24870  0.51270  0.89550  1.0000
  O   O47       1.0  0.75130  0.01270  0.60450  1.0000
  O   O48       1.0  0.74870  0.98730  0.10450  1.0000
  O   O49       1.0  0.37370  0.73410  0.37780  1.0000
  O   O50       1.0  0.12630  0.26590  0.87780  1.0000
  O   O51       1.0  0.87370  0.76590  0.62220  1.0000
  O   O52       1.0  0.62630  0.23410  0.12220  1.0000
  H   H1        1.0  0.42380  0.76380  0.33770  1.0000
  H   H2        1.0  0.07620  0.23620  0.83770  1.0000
  H   H3        1.0  0.92380  0.73620  0.66230  1.0000
  H   H4        1.0  0.57620  0.26380  0.16230  1.0000
  H   H5        1.0  0.38230  0.78240  0.41790  1.0000
  H   H6        1.0  0.11770  0.21760  0.91790  1.0000
  H   H7        1.0  0.88230  0.71760  0.58210  1.0000
  H   H8        1.0  0.61770  0.28240  0.08210  1.0000
  O   O53       1.0  0.00840  0.28310  0.61950  1.0000
  O   O54       1.0  0.49160  0.71690  0.11950  1.0000
  O   O55       1.0  0.50840  0.21690  0.38050  1.0000
  O   O56       1.0  0.99160  0.78310  0.88050  1.0000
  H   H9        1.0  0.08410  0.28940  0.65210  1.0000
  H   H10       1.0  0.41590  0.71060  0.15210  1.0000
  H   H11       1.0  0.58410  0.21060  0.34790  1.0000
  H   H12       1.0  0.91590  0.78940  0.84790  1.0000
  H   H13       1.0  0.03460  0.23610  0.58130  1.0000
  H   H14       1.0  0.46540  0.76390  0.08130  1.0000
  H   H15       1.0  0.53460  0.26390  0.41870  1.0000
  H   H16       1.0  0.96540  0.73610  0.91870  1.0000
  C   C1        1.0  0.73360  0.57110  0.48570  1.0000
  C   C2        1.0  0.76640  0.42890  0.98570  1.0000
  C   C3        1.0  0.23360  0.92890  0.51430  1.0000
  C   C4        1.0  0.26640  0.07110  0.01430  1.0000
  C   C5        1.0  0.67630  0.44150  0.48870  1.0000
  C   C6        1.0  0.82370  0.55850  0.98870  1.0000
  C   C7        1.0  0.17630  0.05850  0.51130  1.0000
  C   C8        1.0  0.32370  0.94150  0.01130  1.0000
  C   C9        1.0  0.22740  0.54320  0.53320  1.0000
  C   C10       1.0  0.27260  0.45680  0.03320  1.0000
  C   C11       1.0  0.72740  0.95680  0.46680  1.0000
  C   C12       1.0  0.77260  0.04320  0.96680  1.0000
  C   C13       1.0  0.17680  0.47410  0.45730  1.0000
  C   C14       1.0  0.32320  0.52590  0.95730  1.0000
  C   C15       1.0  0.67680  0.02590  0.54270  1.0000
  C   C16       1.0  0.82320  0.97410  0.04270  1.0000
