data_image0
_chemical_formula_structural       Mn4S2O26H4C8
_chemical_formula_sum              "Mn4 S2 O26 H4 C8"
_cell_length_a       8.5468
_cell_length_b       10.005
_cell_length_c       10.6532
_cell_angle_alpha    75.445
_cell_angle_beta     79.787
_cell_angle_gamma    71.848

_space_group_name_H-M_alt    "P 1"
_space_group_IT_number       1

loop_
  _space_group_symop_operation_xyz
  'x, y, z'

loop_
  _atom_site_type_symbol
  _atom_site_label
  _atom_site_symmetry_multiplicity
  _atom_site_fract_x
  _atom_site_fract_y
  _atom_site_fract_z
  _atom_site_occupancy
  Mn  Mn1       1.0  0.05821  0.60769  0.34894  1.0000
  Mn  Mn2       1.0  0.94179  0.39231  0.65106  1.0000
  Mn  Mn3       1.0  0.78881  0.21084  0.21597  1.0000
  Mn  Mn4       1.0  0.21119  0.78916  0.78403  1.0000
  S   S1        1.0  0.45500  0.48224  0.25452  1.0000
  S   S2        1.0  0.54500  0.51776  0.74548  1.0000
  O   O1        1.0  0.31760  0.51070  0.35760  1.0000
  O   O2        1.0  0.68240  0.48930  0.64240  1.0000
  O   O3        1.0  0.55520  0.33200  0.29617  1.0000
  O   O4        1.0  0.44480  0.66800  0.70383  1.0000
  O   O5        1.0  0.39480  0.49720  0.13060  1.0000
  O   O6        1.0  0.60520  0.50280  0.86940  1.0000
  O   O7        1.0  0.55480  0.58090  0.24110  1.0000
  O   O8        1.0  0.44520  0.41910  0.75890  1.0000
  O   O9        1.0  0.04190  0.58210  0.55916  1.0000
  O   O10       1.0  0.95810  0.41790  0.44084  1.0000
  O   O11       1.0  0.12140  0.75380  0.60879  1.0000
  O   O12       1.0  0.87860  0.24620  0.39121  1.0000
  O   O13       1.0  0.00210  0.46080  0.80903  1.0000
  O   O14       1.0  0.99790  0.53920  0.19097  1.0000
  O   O15       1.0  0.08540  0.62530  0.86371  1.0000
  O   O16       1.0  0.91460  0.37470  0.13629  1.0000
  O   O17       1.0  0.72370  0.01750  0.32250  1.0000
  O   O18       1.0  0.27630  0.98250  0.67750  1.0000
  O   O19       1.0  0.82160  0.77870  0.36300  1.0000
  O   O20       1.0  0.17840  0.22130  0.63700  1.0000
  O   O21       1.0  0.00160  0.03760  0.16500  1.0000
  O   O22       1.0  0.99840  0.96240  0.83500  1.0000
  O   O23       1.0  0.10650  0.79990  0.21910  1.0000
  O   O24       1.0  0.89350  0.20010  0.78090  1.0000
  O   O25       1.0  0.70520  0.23850  0.02720  1.0000
  O   O26       1.0  0.29480  0.76150  0.97280  1.0000
  H   H1        1.0  0.78780  0.20450  0.97110  1.0000
  H   H2        1.0  0.21220  0.79550  0.02890  1.0000
  H   H3        1.0  0.66150  0.33000  0.99410  1.0000
  H   H4        1.0  0.33850  0.67000  0.00590  1.0000
  C   C1        1.0  0.07560  0.64370  0.63580  1.0000
  C   C2        1.0  0.92440  0.35630  0.36420  1.0000
  C   C3        1.0  0.05320  0.56850  0.78290  1.0000
  C   C4        1.0  0.94680  0.43150  0.21710  1.0000
  C   C5        1.0  0.83230  0.90290  0.31260  1.0000
  C   C6        1.0  0.16770  0.09710  0.68740  1.0000
  C   C7        1.0  0.99530  0.91510  0.22470  1.0000
  C   C8        1.0  0.00470  0.08490  0.77530  1.0000
