data_image0
_chemical_formula_structural       C72O24H24V4
_chemical_formula_sum              "C72 O24 H24 V4"
_cell_length_a       17.7658
_cell_length_b       17.7658
_cell_length_c       17.7658
_cell_angle_alpha    90
_cell_angle_beta     90
_cell_angle_gamma    90

_space_group_name_H-M_alt    "P 1"
_space_group_IT_number       1

loop_
  _space_group_symop_operation_xyz
  'x, y, z'

loop_
  _atom_site_type_symbol
  _atom_site_label
  _atom_site_symmetry_multiplicity
  _atom_site_fract_x
  _atom_site_fract_y
  _atom_site_fract_z
  _atom_site_occupancy
  C   C1        1.0  0.46457  0.75577  0.65706  1.0000
  C   C2        1.0  0.03543  0.24423  0.15706  1.0000
  C   C3        1.0  0.53543  0.25577  0.84294  1.0000
  C   C4        1.0  0.96457  0.74423  0.34294  1.0000
  C   C5        1.0  0.65706  0.46457  0.75577  1.0000
  C   C6        1.0  0.15706  0.03543  0.24423  1.0000
  C   C7        1.0  0.84294  0.53543  0.25577  1.0000
  C   C8        1.0  0.34294  0.96457  0.74423  1.0000
  C   C9        1.0  0.75577  0.65706  0.46457  1.0000
  C   C10       1.0  0.24423  0.15706  0.03543  1.0000
  C   C11       1.0  0.25577  0.84294  0.53543  1.0000
  C   C12       1.0  0.74423  0.34294  0.96457  1.0000
  C   C13       1.0  0.00577  0.21457  0.09294  1.0000
  C   C14       1.0  0.49423  0.78543  0.59294  1.0000
  C   C15       1.0  0.50577  0.28543  0.90706  1.0000
  C   C16       1.0  0.99423  0.71457  0.40706  1.0000
  C   C17       1.0  0.71457  0.40706  0.99423  1.0000
  C   C18       1.0  0.28543  0.90706  0.50577  1.0000
  C   C19       1.0  0.78543  0.59294  0.49423  1.0000
  C   C20       1.0  0.21457  0.09294  0.00577  1.0000
  C   C21       1.0  0.90706  0.50577  0.28543  1.0000
  C   C22       1.0  0.40706  0.99423  0.71457  1.0000
  C   C23       1.0  0.09294  0.00577  0.21457  1.0000
  C   C24       1.0  0.59294  0.49423  0.78543  1.0000
  C   C25       1.0  0.55779  0.65880  0.65908  1.0000
  C   C26       1.0  0.94221  0.34120  0.15908  1.0000
  C   C27       1.0  0.44221  0.15880  0.84092  1.0000
  C   C28       1.0  0.05779  0.84120  0.34092  1.0000
  C   C29       1.0  0.65908  0.55779  0.65880  1.0000
  C   C30       1.0  0.15908  0.94221  0.34120  1.0000
  C   C31       1.0  0.84092  0.44221  0.15880  1.0000
  C   C32       1.0  0.34092  0.05779  0.84120  1.0000
  C   C33       1.0  0.65880  0.65908  0.55779  1.0000
  C   C34       1.0  0.34120  0.15908  0.94221  1.0000
  C   C35       1.0  0.15880  0.84092  0.44221  1.0000
  C   C36       1.0  0.84120  0.34092  0.05779  1.0000
  C   C37       1.0  0.90880  0.30779  0.09092  1.0000
  C   C38       1.0  0.59120  0.69221  0.59092  1.0000
  C   C39       1.0  0.40880  0.19221  0.90908  1.0000
  C   C40       1.0  0.09120  0.80779  0.40908  1.0000
  C   C41       1.0  0.80779  0.40908  0.09120  1.0000
  C   C42       1.0  0.19221  0.90908  0.40880  1.0000
  C   C43       1.0  0.69221  0.59092  0.59120  1.0000
  C   C44       1.0  0.30779  0.09092  0.90880  1.0000
  C   C45       1.0  0.90908  0.40880  0.19221  1.0000
  C   C46       1.0  0.40908  0.09120  0.80779  1.0000
  C   C47       1.0  0.09092  0.90880  0.30779  1.0000
  C   C48       1.0  0.59092  0.59120  0.69221  1.0000
  C   C49       1.0  0.49499  0.69276  0.69060  1.0000
  C   C50       1.0  0.00501  0.30724  0.19060  1.0000
  C   C51       1.0  0.50501  0.19276  0.80940  1.0000
  C   C52       1.0  0.99499  0.80724  0.30940  1.0000
  C   C53       1.0  0.69060  0.49499  0.69276  1.0000
  C   C54       1.0  0.19060  0.00501  0.30724  1.0000
  C   C55       1.0  0.80940  0.50501  0.19276  1.0000
  C   C56       1.0  0.30940  0.99499  0.80724  1.0000
  C   C57       1.0  0.69276  0.69060  0.49499  1.0000
  C   C58       1.0  0.30724  0.19060  0.00501  1.0000
  C   C59       1.0  0.19276  0.80940  0.50501  1.0000
  C   C60       1.0  0.80724  0.30940  0.99499  1.0000
  C   C61       1.0  0.94276  0.24499  0.05940  1.0000
  C   C62       1.0  0.55724  0.75501  0.55940  1.0000
  C   C63       1.0  0.44276  0.25501  0.94060  1.0000
  C   C64       1.0  0.05724  0.74499  0.44060  1.0000
  C   C65       1.0  0.74499  0.44060  0.05724  1.0000
  C   C66       1.0  0.25501  0.94060  0.44276  1.0000
  C   C67       1.0  0.75501  0.55940  0.55724  1.0000
  C   C68       1.0  0.24499  0.05940  0.94276  1.0000
  C   C69       1.0  0.94060  0.44276  0.25501  1.0000
  C   C70       1.0  0.44060  0.05724  0.74499  1.0000
  C   C71       1.0  0.05940  0.94276  0.24499  1.0000
  C   C72       1.0  0.55940  0.55724  0.75501  1.0000
  O   O1        1.0  0.40730  0.79113  0.68152  1.0000
  O   O2        1.0  0.09270  0.20887  0.18152  1.0000
  O   O3        1.0  0.59270  0.29113  0.81848  1.0000
  O   O4        1.0  0.90730  0.70887  0.31848  1.0000
  O   O5        1.0  0.68152  0.40730  0.79113  1.0000
  O   O6        1.0  0.18152  0.09270  0.20887  1.0000
  O   O7        1.0  0.81848  0.59270  0.29113  1.0000
  O   O8        1.0  0.31848  0.90730  0.70887  1.0000
  O   O9        1.0  0.79113  0.68152  0.40730  1.0000
  O   O10       1.0  0.20887  0.18152  0.09270  1.0000
  O   O11       1.0  0.29113  0.81848  0.59270  1.0000
  O   O12       1.0  0.70887  0.31848  0.90730  1.0000
  O   O13       1.0  0.04113  0.15730  0.06848  1.0000
  O   O14       1.0  0.45887  0.84270  0.56848  1.0000
  O   O15       1.0  0.54113  0.34270  0.93152  1.0000
  O   O16       1.0  0.95887  0.65730  0.43152  1.0000
  O   O17       1.0  0.65730  0.43152  0.95887  1.0000
  O   O18       1.0  0.34270  0.93152  0.54113  1.0000
  O   O19       1.0  0.84270  0.56848  0.45887  1.0000
  O   O20       1.0  0.15730  0.06848  0.04113  1.0000
  O   O21       1.0  0.93152  0.54113  0.34270  1.0000
  O   O22       1.0  0.43152  0.95887  0.65730  1.0000
  O   O23       1.0  0.06848  0.04113  0.15730  1.0000
  O   O24       1.0  0.56848  0.45887  0.84270  1.0000
  H   H1        1.0  0.46858  0.66892  0.74382  1.0000
  H   H2        1.0  0.03142  0.33108  0.24382  1.0000
  H   H3        1.0  0.53142  0.16892  0.75618  1.0000
  H   H4        1.0  0.96858  0.83108  0.25618  1.0000
  H   H5        1.0  0.74382  0.46858  0.66892  1.0000
  H   H6        1.0  0.24382  0.03142  0.33108  1.0000
  H   H7        1.0  0.75618  0.53142  0.16892  1.0000
  H   H8        1.0  0.25618  0.96858  0.83108  1.0000
  H   H9        1.0  0.66892  0.74382  0.46858  1.0000
  H   H10       1.0  0.33108  0.24382  0.03142  1.0000
  H   H11       1.0  0.16892  0.75618  0.53142  1.0000
  H   H12       1.0  0.83108  0.25618  0.96858  1.0000
  H   H13       1.0  0.91892  0.21858  0.00618  1.0000
  H   H14       1.0  0.58108  0.78142  0.50618  1.0000
  H   H15       1.0  0.41892  0.28142  0.99382  1.0000
  H   H16       1.0  0.08108  0.71858  0.49382  1.0000
  H   H17       1.0  0.71858  0.49382  0.08108  1.0000
  H   H18       1.0  0.28142  0.99382  0.41892  1.0000
  H   H19       1.0  0.78142  0.50618  0.58108  1.0000
  H   H20       1.0  0.21858  0.00618  0.91892  1.0000
  H   H21       1.0  0.99382  0.41892  0.28142  1.0000
  H   H22       1.0  0.49382  0.08108  0.71858  1.0000
  H   H23       1.0  0.00618  0.91892  0.21858  1.0000
  H   H24       1.0  0.50618  0.58108  0.78142  1.0000
  V   V1        1.0  0.87500  0.62500  0.37500  1.0000
  V   V2        1.0  0.62500  0.37500  0.87500  1.0000
  V   V3        1.0  0.12500  0.12500  0.12500  1.0000
  V   V4        1.0  0.37500  0.87500  0.62500  1.0000
