data_image0
_chemical_formula_structural       Co3S3N3H3O19HC12H3C3H3C6H3C3H3C6H3C3H3C6H3C3H3C3H9C3H9
_chemical_formula_sum              "Co3 S3 N3 H46 O19 C48"
_cell_length_a       11.5884
_cell_length_b       11.5884
_cell_length_c       13.1798
_cell_angle_alpha    90
_cell_angle_beta     90
_cell_angle_gamma    120

_space_group_name_H-M_alt    "P 1"
_space_group_IT_number       1

loop_
  _space_group_symop_operation_xyz
  'x, y, z'

loop_
  _atom_site_type_symbol
  _atom_site_label
  _atom_site_symmetry_multiplicity
  _atom_site_fract_x
  _atom_site_fract_y
  _atom_site_fract_z
  _atom_site_occupancy
  Co  Co1       1.0  0.49138  0.33329  0.28936  1.0000
  Co  Co2       1.0  0.66671  0.15809  0.28936  1.0000
  Co  Co3       1.0  0.84191  0.50862  0.28936  1.0000
  S   S1        1.0  0.10227  0.76918  0.78946  1.0000
  S   S2        1.0  0.23082  0.33309  0.78946  1.0000
  S   S3        1.0  0.66691  0.89773  0.78946  1.0000
  N   N1        1.0  0.30290  0.33450  0.28960  1.0000
  N   N2        1.0  0.66550  0.96840  0.28960  1.0000
  N   N3        1.0  0.03160  0.69710  0.28960  1.0000
  H   H1        1.0  0.29590  0.32750  0.22160  1.0000
  H   H2        1.0  0.67250  0.96840  0.22160  1.0000
  H   H3        1.0  0.03160  0.70410  0.22160  1.0000
  O   O1        1.0  0.40910  0.18730  0.40300  1.0000
  O   O2        1.0  0.81270  0.22180  0.40300  1.0000
  O   O3        1.0  0.77820  0.59090  0.40300  1.0000
  O   O4        1.0  0.52230  0.07630  0.40390  1.0000
  O   O5        1.0  0.92370  0.44600  0.40390  1.0000
  O   O6        1.0  0.55400  0.47770  0.40390  1.0000
  O   O7        1.0  0.40760  0.18630  0.17550  1.0000
  O   O8        1.0  0.81370  0.22130  0.17550  1.0000
  O   O9        1.0  0.77870  0.59240  0.17550  1.0000
  O   O10       1.0  0.52160  0.07670  0.17440  1.0000
  O   O11       1.0  0.92330  0.44490  0.17440  1.0000
  O   O12       1.0  0.55510  0.47840  0.17440  1.0000
  O   O13       1.0  0.10060  0.64550  0.78880  1.0000
  O   O14       1.0  0.35450  0.45510  0.78880  1.0000
  O   O15       1.0  0.54490  0.89940  0.78880  1.0000
  O   O16       1.0  0.97860  0.76910  0.78950  1.0000
  O   O17       1.0  0.23090  0.20950  0.78950  1.0000
  O   O18       1.0  0.79050  0.02140  0.78950  1.0000
  O   O19       1.0  0.66670  0.33330  0.28710  1.0000
  H   H4        1.0  0.66670  0.33330  0.35160  1.0000
  C   C1        1.0  0.43310  0.10080  0.43540  1.0000
  C   C2        1.0  0.89920  0.33230  0.43540  1.0000
  C   C3        1.0  0.66770  0.56690  0.43540  1.0000
  C   C4        1.0  0.43330  0.10030  0.14240  1.0000
  C   C5        1.0  0.89970  0.33300  0.14240  1.0000
  C   C6        1.0  0.66700  0.56670  0.14240  1.0000
  C   C7        1.0  0.34830  0.01450  0.52310  1.0000
  C   C8        1.0  0.98550  0.33380  0.52310  1.0000
  C   C9        1.0  0.66620  0.65170  0.52310  1.0000
  C   C10       1.0  0.36900  0.91840  0.56280  1.0000
  C   C11       1.0  0.08160  0.45060  0.56280  1.0000
  C   C12       1.0  0.54940  0.63100  0.56280  1.0000
  H   H5        1.0  0.43380  0.90310  0.53490  1.0000
  H   H6        1.0  0.09690  0.53070  0.53490  1.0000
  H   H7        1.0  0.46930  0.56620  0.53490  1.0000
  C   C13       1.0  0.29390  0.84220  0.64550  1.0000
  C   C14       1.0  0.15780  0.45170  0.64550  1.0000
  C   C15       1.0  0.54830  0.70610  0.64550  1.0000
  H   H8        1.0  0.30970  0.77770  0.67360  1.0000
  H   H9        1.0  0.22230  0.53200  0.67360  1.0000
  H   H10       1.0  0.46800  0.69030  0.67360  1.0000
  C   C16       1.0  0.19770  0.86370  0.68410  1.0000
  C   C17       1.0  0.13630  0.33400  0.68410  1.0000
  C   C18       1.0  0.66600  0.80230  0.68410  1.0000
  C   C19       1.0  0.17530  0.96040  0.64410  1.0000
  C   C20       1.0  0.03960  0.21490  0.64410  1.0000
  C   C21       1.0  0.78510  0.82470  0.64410  1.0000
  H   H11       1.0  0.10980  0.97480  0.67190  1.0000
  H   H12       1.0  0.02520  0.13500  0.67190  1.0000
  H   H13       1.0  0.86500  0.89020  0.67190  1.0000
  C   C22       1.0  0.25020  0.03660  0.56200  1.0000
  C   C23       1.0  0.96340  0.21360  0.56200  1.0000
  C   C24       1.0  0.78640  0.74980  0.56200  1.0000
  H   H14       1.0  0.23460  0.10120  0.53390  1.0000
  H   H15       1.0  0.89880  0.13340  0.53390  1.0000
  H   H16       1.0  0.86660  0.76540  0.53390  1.0000
  C   C25       1.0  0.34810  0.01450  0.05620  1.0000
  C   C26       1.0  0.98550  0.33360  0.05620  1.0000
  C   C27       1.0  0.66640  0.65190  0.05620  1.0000
  C   C28       1.0  0.25130  0.03620  0.01560  1.0000
  C   C29       1.0  0.96380  0.21510  0.01560  1.0000
  C   C30       1.0  0.78490  0.74870  0.01560  1.0000
  H   H17       1.0  0.23690  0.10190  0.04310  1.0000
  H   H18       1.0  0.89810  0.13500  0.04310  1.0000
  H   H19       1.0  0.86500  0.76310  0.04310  1.0000
  C   C31       1.0  0.17430  0.96050  0.93340  1.0000
  C   C32       1.0  0.03950  0.21380  0.93340  1.0000
  C   C33       1.0  0.78620  0.82570  0.93340  1.0000
  H   H20       1.0  0.10960  0.97590  0.90520  1.0000
  H   H21       1.0  0.02410  0.13370  0.90520  1.0000
  H   H22       1.0  0.86630  0.89040  0.90520  1.0000
  C   C34       1.0  0.19630  0.86340  0.89530  1.0000
  C   C35       1.0  0.13660  0.33290  0.89530  1.0000
  C   C36       1.0  0.66710  0.80370  0.89530  1.0000
  C   C37       1.0  0.29400  0.84260  0.93270  1.0000
  C   C38       1.0  0.15740  0.45140  0.93270  1.0000
  C   C39       1.0  0.54860  0.70600  0.93270  1.0000
  H   H23       1.0  0.31100  0.77940  0.90370  1.0000
  H   H24       1.0  0.22060  0.53160  0.90370  1.0000
  H   H25       1.0  0.46840  0.68900  0.90370  1.0000
  C   C40       1.0  0.36830  0.91880  0.01580  1.0000
  C   C41       1.0  0.08120  0.44950  0.01580  1.0000
  C   C42       1.0  0.55050  0.63170  0.01580  1.0000
  H   H26       1.0  0.43290  0.90320  0.04380  1.0000
  H   H27       1.0  0.09680  0.52970  0.04380  1.0000
  H   H28       1.0  0.47030  0.56710  0.04380  1.0000
  C   C43       1.0  0.30140  0.45100  0.31800  1.0000
  C   C44       1.0  0.54900  0.85040  0.31800  1.0000
  C   C45       1.0  0.14960  0.69860  0.31800  1.0000
  H   H29       1.0  0.21110  0.43340  0.32000  1.0000
  H   H30       1.0  0.56660  0.77770  0.32000  1.0000
  H   H31       1.0  0.22230  0.78890  0.32000  1.0000
  H   H32       1.0  0.35100  0.52050  0.26940  1.0000
  H   H33       1.0  0.47950  0.83050  0.26940  1.0000
  H   H34       1.0  0.16950  0.64900  0.26940  1.0000
  H   H35       1.0  0.34110  0.47980  0.38380  1.0000
  H   H36       1.0  0.52020  0.86130  0.38380  1.0000
  H   H37       1.0  0.13870  0.65890  0.38380  1.0000
  C   C46       1.0  0.18300  0.22400  0.32000  1.0000
  C   C47       1.0  0.77600  0.95900  0.32000  1.0000
  C   C48       1.0  0.04100  0.81700  0.32000  1.0000
  H   H38       1.0  0.11270  0.24470  0.31670  1.0000
  H   H39       1.0  0.75530  0.86800  0.31670  1.0000
  H   H40       1.0  0.13200  0.88730  0.31670  1.0000
  H   H41       1.0  0.19140  0.20050  0.38860  1.0000
  H   H42       1.0  0.79950  0.99090  0.38860  1.0000
  H   H43       1.0  0.00910  0.80860  0.38860  1.0000
  H   H44       1.0  0.16240  0.14990  0.27610  1.0000
  H   H45       1.0  0.85010  0.01250  0.27610  1.0000
  H   H46       1.0  0.98750  0.83760  0.27610  1.0000
