data_image0
_chemical_formula_structural       Zn4O16N12H8N8C16H4C8H4C4H4C8H4C4H4C12H4
_chemical_formula_sum              "Zn4 O16 N20 H32 C52"
_cell_length_a       10.37
_cell_length_b       10.025
_cell_length_c       19.575
_cell_angle_alpha    90
_cell_angle_beta     92.13
_cell_angle_gamma    90

_space_group_name_H-M_alt    "P 1"
_space_group_IT_number       1

loop_
  _space_group_symop_operation_xyz
  'x, y, z'

loop_
  _atom_site_type_symbol
  _atom_site_label
  _atom_site_symmetry_multiplicity
  _atom_site_fract_x
  _atom_site_fract_y
  _atom_site_fract_z
  _atom_site_occupancy
  Zn  Zn1       1.0  0.99133  0.74199  0.34104  1.0000
  Zn  Zn2       1.0  0.00867  0.24199  0.15896  1.0000
  Zn  Zn3       1.0  0.00867  0.25801  0.65896  1.0000
  Zn  Zn4       1.0  0.99133  0.75801  0.84104  1.0000
  O   O1        1.0  0.93400  0.63580  0.44630  1.0000
  O   O2        1.0  0.06600  0.13580  0.05370  1.0000
  O   O3        1.0  0.06600  0.36420  0.55370  1.0000
  O   O4        1.0  0.93400  0.86420  0.94630  1.0000
  O   O5        1.0  0.80340  0.68160  0.36020  1.0000
  O   O6        1.0  0.19660  0.18160  0.13980  1.0000
  O   O7        1.0  0.19660  0.31840  0.63980  1.0000
  O   O8        1.0  0.80340  0.81840  0.86020  1.0000
  O   O9        1.0  0.04690  0.93700  0.43480  1.0000
  O   O10       1.0  0.95310  0.43700  0.06520  1.0000
  O   O11       1.0  0.95310  0.06300  0.56520  1.0000
  O   O12       1.0  0.04690  0.56300  0.93480  1.0000
  O   O13       1.0  0.16490  0.79330  0.37910  1.0000
  O   O14       1.0  0.83510  0.29330  0.12090  1.0000
  O   O15       1.0  0.83510  0.20670  0.62090  1.0000
  O   O16       1.0  0.16490  0.70670  0.87910  1.0000
  N   N1        1.0  0.16820  0.55170  0.27120  1.0000
  N   N2        1.0  0.83180  0.05170  0.22880  1.0000
  N   N3        1.0  0.83180  0.44830  0.72880  1.0000
  N   N4        1.0  0.16820  0.94830  0.77120  1.0000
  N   N5        1.0  0.03970  0.58170  0.28270  1.0000
  N   N6        1.0  0.96030  0.08170  0.21730  1.0000
  N   N7        1.0  0.96030  0.41830  0.71730  1.0000
  N   N8        1.0  0.03970  0.91830  0.78270  1.0000
  N   N9        1.0  0.84130  0.48140  0.25160  1.0000
  N   N10       1.0  0.15870  0.98140  0.24840  1.0000
  N   N11       1.0  0.15870  0.51860  0.74840  1.0000
  N   N12       1.0  0.84130  0.01860  0.75160  1.0000
  H   H1        1.0  0.79824  0.54358  0.27059  1.0000
  H   H2        1.0  0.20176  0.04358  0.22941  1.0000
  H   H3        1.0  0.20176  0.45642  0.72941  1.0000
  H   H4        1.0  0.79824  0.95642  0.77059  1.0000
  H   H5        1.0  0.80147  0.41621  0.23151  1.0000
  H   H6        1.0  0.19853  0.91621  0.26849  1.0000
  H   H7        1.0  0.19853  0.58379  0.76849  1.0000
  H   H8        1.0  0.80147  0.08379  0.73151  1.0000
  N   N13       1.0  0.04840  0.39970  0.22170  1.0000
  N   N14       1.0  0.95160  0.89970  0.27830  1.0000
  N   N15       1.0  0.95160  0.60030  0.77830  1.0000
  N   N16       1.0  0.04840  0.10030  0.72170  1.0000
  N   N17       1.0  0.17100  0.44510  0.23390  1.0000
  N   N18       1.0  0.82900  0.94510  0.26610  1.0000
  N   N19       1.0  0.82900  0.55490  0.76610  1.0000
  N   N20       1.0  0.17100  0.05490  0.73390  1.0000
  C   C1        1.0  0.48440  0.53820  0.47110  1.0000
  C   C2        1.0  0.51560  0.03820  0.02890  1.0000
  C   C3        1.0  0.51560  0.46180  0.52890  1.0000
  C   C4        1.0  0.48440  0.96180  0.97110  1.0000
  C   C5        1.0  0.50580  0.96430  0.46840  1.0000
  C   C6        1.0  0.49420  0.46430  0.03160  1.0000
  C   C7        1.0  0.49420  0.03570  0.53160  1.0000
  C   C8        1.0  0.50580  0.53570  0.96840  1.0000
  C   C9        1.0  0.71440  0.57010  0.45630  1.0000
  C   C10       1.0  0.28560  0.07010  0.04370  1.0000
  C   C11       1.0  0.28560  0.42990  0.54370  1.0000
  C   C12       1.0  0.71440  0.92990  0.95630  1.0000
  C   C13       1.0  0.58820  0.59080  0.43290  1.0000
  C   C14       1.0  0.41180  0.09080  0.06710  1.0000
  C   C15       1.0  0.41180  0.40920  0.56710  1.0000
  C   C16       1.0  0.58820  0.90920  0.93290  1.0000
  H   H9        1.0  0.57104  0.63825  0.39273  1.0000
  H   H10       1.0  0.42896  0.13825  0.10727  1.0000
  H   H11       1.0  0.42896  0.36175  0.60727  1.0000
  H   H12       1.0  0.57104  0.86175  0.89273  1.0000
  C   C17       1.0  0.27480  0.93870  0.45950  1.0000
  C   C18       1.0  0.72520  0.43870  0.04050  1.0000
  C   C19       1.0  0.72520  0.06130  0.54050  1.0000
  C   C20       1.0  0.27480  0.56130  0.95950  1.0000
  C   C21       1.0  0.63160  0.94440  0.44340  1.0000
  C   C22       1.0  0.36840  0.44440  0.05660  1.0000
  C   C23       1.0  0.36840  0.05560  0.55660  1.0000
  C   C24       1.0  0.63160  0.55560  0.94340  1.0000
  H   H13       1.0  0.64126  0.90166  0.40177  1.0000
  H   H14       1.0  0.35874  0.40166  0.09823  1.0000
  H   H15       1.0  0.35874  0.09834  0.59823  1.0000
  H   H16       1.0  0.64126  0.59834  0.90177  1.0000
  C   C25       1.0  0.39260  0.91600  0.43480  1.0000
  C   C26       1.0  0.60740  0.41600  0.06520  1.0000
  C   C27       1.0  0.60740  0.08400  0.56520  1.0000
  C   C28       1.0  0.39260  0.58400  0.93480  1.0000
  H   H17       1.0  0.39932  0.86743  0.39459  1.0000
  H   H18       1.0  0.60068  0.36743  0.10541  1.0000
  H   H19       1.0  0.60068  0.13257  0.60541  1.0000
  H   H20       1.0  0.39932  0.63257  0.89459  1.0000
  C   C29       1.0  0.97250  0.48600  0.25320  1.0000
  C   C30       1.0  0.02750  0.98600  0.24680  1.0000
  C   C31       1.0  0.02750  0.51400  0.74680  1.0000
  C   C32       1.0  0.97250  0.01400  0.75320  1.0000
  C   C33       1.0  0.26250  0.01280  0.52020  1.0000
  C   C34       1.0  0.73750  0.51280  0.97980  1.0000
  C   C35       1.0  0.73750  0.98720  0.47980  1.0000
  C   C36       1.0  0.26250  0.48720  0.02020  1.0000
  H   H21       1.0  0.18082  0.03257  0.53538  1.0000
  H   H22       1.0  0.81918  0.53257  0.96462  1.0000
  H   H23       1.0  0.81918  0.96743  0.46462  1.0000
  H   H24       1.0  0.18082  0.46743  0.03538  1.0000
  C   C37       1.0  0.35570  0.55880  0.44870  1.0000
  C   C38       1.0  0.64430  0.05880  0.05130  1.0000
  C   C39       1.0  0.64430  0.44120  0.55130  1.0000
  C   C40       1.0  0.35570  0.94120  0.94870  1.0000
  H   H25       1.0  0.33741  0.60840  0.40936  1.0000
  H   H26       1.0  0.66259  0.10840  0.09064  1.0000
  H   H27       1.0  0.66259  0.39160  0.59064  1.0000
  H   H28       1.0  0.33741  0.89160  0.90936  1.0000
  C   C41       1.0  0.82300  0.63370  0.41940  1.0000
  C   C42       1.0  0.17700  0.13370  0.08060  1.0000
  C   C43       1.0  0.17700  0.36630  0.58060  1.0000
  C   C44       1.0  0.82300  0.86630  0.91940  1.0000
  C   C45       1.0  0.15500  0.88860  0.42190  1.0000
  C   C46       1.0  0.84500  0.38860  0.07810  1.0000
  C   C47       1.0  0.84500  0.11140  0.57810  1.0000
  C   C48       1.0  0.15500  0.61140  0.92190  1.0000
  C   C49       1.0  0.74420  0.49470  0.51500  1.0000
  C   C50       1.0  0.25580  0.99470  0.98500  1.0000
  C   C51       1.0  0.25580  0.50530  0.48500  1.0000
  C   C52       1.0  0.74420  0.00530  0.01500  1.0000
  H   H29       1.0  0.82966  0.48083  0.52936  1.0000
  H   H30       1.0  0.17034  0.98083  0.97064  1.0000
  H   H31       1.0  0.17034  0.51917  0.47064  1.0000
  H   H32       1.0  0.82966  0.01917  0.02936  1.0000
