data_image0
_chemical_formula_structural       Ni2O14H4O2H4O2H4C4H2C4H2C4H2C6
_chemical_formula_sum              "Ni2 O18 H18 C18"
_cell_length_a       7.136
_cell_length_b       10.515
_cell_length_c       10.517
_cell_angle_alpha    110.553
_cell_angle_beta     91.344
_cell_angle_gamma    102.424

_space_group_name_H-M_alt    "P 1"
_space_group_IT_number       1

loop_
  _space_group_symop_operation_xyz
  'x, y, z'

loop_
  _atom_site_type_symbol
  _atom_site_label
  _atom_site_symmetry_multiplicity
  _atom_site_fract_x
  _atom_site_fract_y
  _atom_site_fract_z
  _atom_site_occupancy
  Ni  Ni1       1.0  0.50000  0.50000  0.00000  1.0000
  Ni  Ni2       1.0  0.50000  0.00000  0.50000  1.0000
  O   O1        1.0  0.22970  0.19282  0.82080  1.0000
  O   O2        1.0  0.77030  0.80718  0.17920  1.0000
  O   O3        1.0  0.39630  0.31286  0.02536  1.0000
  O   O4        1.0  0.60370  0.68714  0.97464  1.0000
  O   O5        1.0  0.47150  0.08460  0.34970  1.0000
  O   O6        1.0  0.52850  0.91540  0.65030  1.0000
  O   O7        1.0  0.34630  0.86202  0.30010  1.0000
  O   O8        1.0  0.65370  0.13798  0.69990  1.0000
  O   O9        1.0  0.99450  0.57880  0.83390  1.0000
  O   O10       1.0  0.00550  0.42120  0.16610  1.0000
  O   O11       1.0  0.89420  0.69030  0.71120  1.0000
  O   O12       1.0  0.10580  0.30970  0.28880  1.0000
  O   O13       1.0  0.28840  0.45515  0.83854  1.0000
  O   O14       1.0  0.71160  0.54485  0.16146  1.0000
  H   H1        1.0  0.20010  0.49960  0.84750  1.0000
  H   H2        1.0  0.79990  0.50040  0.15250  1.0000
  H   H3        1.0  0.25090  0.36960  0.82900  1.0000
  H   H4        1.0  0.74910  0.63040  0.17100  1.0000
  O   O15       1.0  0.33630  0.58689  0.15250  1.0000
  O   O16       1.0  0.66370  0.41311  0.84750  1.0000
  H   H5        1.0  0.34500  0.67430  0.18880  1.0000
  H   H6        1.0  0.65500  0.32570  0.81120  1.0000
  H   H7        1.0  0.22610  0.53370  0.14760  1.0000
  H   H8        1.0  0.77390  0.46630  0.85240  1.0000
  O   O17       1.0  0.24720  0.04370  0.56420  1.0000
  O   O18       1.0  0.75280  0.95630  0.43580  1.0000
  H   H9        1.0  0.25990  0.08360  0.65060  1.0000
  H   H10       1.0  0.74010  0.91640  0.34940  1.0000
  H   H11       1.0  0.20020  0.08490  0.51930  1.0000
  H   H12       1.0  0.79980  0.91510  0.48070  1.0000
  C   C1        1.0  0.26420  0.07070  0.96840  1.0000
  C   C2        1.0  0.73580  0.92930  0.03160  1.0000
  C   C3        1.0  0.33480  0.07620  0.09480  1.0000
  C   C4        1.0  0.66520  0.92380  0.90520  1.0000
  H   H13       1.0  0.40590  0.16070  0.15810  1.0000
  H   H14       1.0  0.59410  0.83930  0.84190  1.0000
  C   C5        1.0  0.30070  0.95720  0.12790  1.0000
  C   C6        1.0  0.69930  0.04280  0.87210  1.0000
  C   C7        1.0  0.19460  0.83140  0.03300  1.0000
  C   C8        1.0  0.80540  0.16860  0.96700  1.0000
  H   H15       1.0  0.17150  0.75130  0.05470  1.0000
  H   H16       1.0  0.82850  0.24870  0.94530  1.0000
  C   C9        1.0  0.12240  0.82370  0.90580  1.0000
  C   C10       1.0  0.87760  0.17630  0.09420  1.0000
  C   C11       1.0  0.15560  0.94430  0.87580  1.0000
  C   C12       1.0  0.84440  0.05570  0.12420  1.0000
  H   H17       1.0  0.10420  0.94050  0.79210  1.0000
  H   H18       1.0  0.89580  0.05950  0.20790  1.0000
  C   C13       1.0  0.29910  0.20160  0.93580  1.0000
  C   C14       1.0  0.70090  0.79840  0.06420  1.0000
  C   C15       1.0  0.37680  0.96840  0.26580  1.0000
  C   C16       1.0  0.62320  0.03160  0.73420  1.0000
  C   C17       1.0  0.99470  0.68690  0.80890  1.0000
  C   C18       1.0  0.00530  0.31310  0.19110  1.0000
