data_image0
_chemical_formula_structural       Fe2Cl6O12C18
_chemical_formula_sum              "Fe2 Cl6 O12 C18"
_cell_length_a       13.5835
_cell_length_b       13.5835
_cell_length_c       8.6796
_cell_angle_alpha    90
_cell_angle_beta     90
_cell_angle_gamma    120

_space_group_name_H-M_alt    "P 1"
_space_group_IT_number       1

loop_
  _space_group_symop_operation_xyz
  'x, y, z'

loop_
  _atom_site_type_symbol
  _atom_site_label
  _atom_site_symmetry_multiplicity
  _atom_site_fract_x
  _atom_site_fract_y
  _atom_site_fract_z
  _atom_site_occupancy
  Fe  Fe1       1.0  0.33330  0.66670  0.00000  1.0000
  Fe  Fe2       1.0  0.66670  0.33330  0.00000  1.0000
  Cl  Cl1       1.0  0.00000  0.39250  0.68150  1.0000
  Cl  Cl2       1.0  0.60750  0.60750  0.68150  1.0000
  Cl  Cl3       1.0  0.39250  0.00000  0.68150  1.0000
  Cl  Cl4       1.0  0.60750  0.00000  0.31850  1.0000
  Cl  Cl5       1.0  0.39250  0.39250  0.31850  1.0000
  Cl  Cl6       1.0  0.00000  0.60750  0.31850  1.0000
  O   O1        1.0  0.20160  0.55750  0.86540  1.0000
  O   O2        1.0  0.44250  0.64410  0.86540  1.0000
  O   O3        1.0  0.35590  0.79840  0.86540  1.0000
  O   O4        1.0  0.44250  0.79840  0.13460  1.0000
  O   O5        1.0  0.35590  0.55750  0.13460  1.0000
  O   O6        1.0  0.20160  0.64410  0.13460  1.0000
  O   O7        1.0  0.79840  0.44250  0.13460  1.0000
  O   O8        1.0  0.55750  0.35590  0.13460  1.0000
  O   O9        1.0  0.64410  0.20160  0.13460  1.0000
  O   O10       1.0  0.55750  0.20160  0.86540  1.0000
  O   O11       1.0  0.64410  0.44250  0.86540  1.0000
  O   O12       1.0  0.79840  0.35590  0.86540  1.0000
  C   C1        1.0  0.00000  0.45290  0.85490  1.0000
  C   C2        1.0  0.54710  0.54710  0.85490  1.0000
  C   C3        1.0  0.45290  0.00000  0.85490  1.0000
  C   C4        1.0  0.54710  0.00000  0.14510  1.0000
  C   C5        1.0  0.45290  0.45290  0.14510  1.0000
  C   C6        1.0  0.00000  0.54710  0.14510  1.0000
  C   C7        1.0  0.10350  0.52830  0.92620  1.0000
  C   C8        1.0  0.47170  0.57520  0.92620  1.0000
  C   C9        1.0  0.42480  0.89650  0.92620  1.0000
  C   C10       1.0  0.47170  0.89650  0.07380  1.0000
  C   C11       1.0  0.42480  0.52830  0.07380  1.0000
  C   C12       1.0  0.10350  0.57520  0.07380  1.0000
  C   C13       1.0  0.89650  0.47170  0.07380  1.0000
  C   C14       1.0  0.52830  0.42480  0.07380  1.0000
  C   C15       1.0  0.57520  0.10350  0.07380  1.0000
  C   C16       1.0  0.52830  0.10350  0.92620  1.0000
  C   C17       1.0  0.57520  0.47170  0.92620  1.0000
  C   C18       1.0  0.89650  0.42480  0.92620  1.0000
