data_image0
_chemical_formula_structural       Cu4MgNa4O2H4O2H4O2H4O2H4O2H4O2H4O2H4O2H4O32N8C6H2C2H2C2H2C10H2C2H2C2H2C10H2C2H2C2H2C10H2C2H2C2H2C4
_chemical_formula_sum              "Cu4 Mg1 Na4 O48 H56 N8 C56"
_cell_length_a       13.5523
_cell_length_b       14.1859
_cell_length_c       14.3213
_cell_angle_alpha    62.616
_cell_angle_beta     68.254
_cell_angle_gamma    89.711

_space_group_name_H-M_alt    "P 1"
_space_group_IT_number       1

loop_
  _space_group_symop_operation_xyz
  'x, y, z'

loop_
  _atom_site_type_symbol
  _atom_site_label
  _atom_site_symmetry_multiplicity
  _atom_site_fract_x
  _atom_site_fract_y
  _atom_site_fract_z
  _atom_site_occupancy
  Cu  Cu1       1.0  0.29400  0.13450  0.41860  1.0000
  Cu  Cu2       1.0  0.70600  0.86550  0.58140  1.0000
  Cu  Cu3       1.0  0.24930  0.75540  0.16910  1.0000
  Cu  Cu4       1.0  0.75070  0.24460  0.83090  1.0000
  Mg  Mg1       1.0  0.50000  0.50000  0.00000  1.0000
  Na  Na1       1.0  0.51440  0.51450  0.60690  1.0000
  Na  Na2       1.0  0.48560  0.48550  0.39310  1.0000
  Na  Na3       1.0  0.33250  0.28350  0.87120  1.0000
  Na  Na4       1.0  0.66750  0.71650  0.12880  1.0000
  O   O1        1.0  0.53170  0.70470  0.48410  1.0000
  O   O2        1.0  0.46830  0.29530  0.51590  1.0000
  H   H1        1.0  0.58820  0.72310  0.48570  1.0000
  H   H2        1.0  0.41180  0.27690  0.51430  1.0000
  H   H3        1.0  0.48140  0.73010  0.51080  1.0000
  H   H4        1.0  0.51860  0.26990  0.48920  1.0000
  O   O3        1.0  0.65680  0.53630  0.65640  1.0000
  O   O4        1.0  0.34320  0.46370  0.34360  1.0000
  H   H5        1.0  0.65350  0.58620  0.67120  1.0000
  H   H6        1.0  0.34650  0.41380  0.32880  1.0000
  H   H7        1.0  0.66220  0.48010  0.70790  1.0000
  H   H8        1.0  0.33780  0.51990  0.29210  1.0000
  O   O5        1.0  0.63080  0.50910  0.44090  1.0000
  O   O6        1.0  0.36920  0.49090  0.55910  1.0000
  H   H9        1.0  0.67240  0.56420  0.38120  1.0000
  H   H10       1.0  0.32760  0.43580  0.61880  1.0000
  H   H11       1.0  0.66500  0.46010  0.46160  1.0000
  H   H12       1.0  0.33500  0.53990  0.53840  1.0000
  O   O7        1.0  0.37060  0.48110  0.78600  1.0000
  O   O8        1.0  0.62940  0.51890  0.21400  1.0000
  H   H13       1.0  0.32810  0.51970  0.76900  1.0000
  H   H14       1.0  0.67190  0.48030  0.23100  1.0000
  H   H15       1.0  0.39320  0.48980  0.82790  1.0000
  H   H16       1.0  0.60680  0.51020  0.17210  1.0000
  O   O9        1.0  0.49090  0.31210  0.70430  1.0000
  O   O10       1.0  0.50910  0.68790  0.29570  1.0000
  H   H17       1.0  0.46860  0.29190  0.66870  1.0000
  H   H18       1.0  0.53140  0.70810  0.33130  1.0000
  H   H19       1.0  0.54770  0.29300  0.70660  1.0000
  H   H20       1.0  0.45230  0.70700  0.29340  1.0000
  O   O11       1.0  0.22280  0.29490  0.03470  1.0000
  O   O12       1.0  0.77720  0.70510  0.96530  1.0000
  H   H21       1.0  0.23760  0.33100  0.06330  1.0000
  H   H22       1.0  0.76240  0.66900  0.93670  1.0000
  H   H23       1.0  0.16670  0.24570  0.09000  1.0000
  H   H24       1.0  0.83330  0.75430  0.91000  1.0000
  O   O13       1.0  0.23990  0.29820  0.75640  1.0000
  O   O14       1.0  0.76010  0.70180  0.24360  1.0000
  H   H25       1.0  0.18280  0.32090  0.76370  1.0000
  H   H26       1.0  0.81720  0.67910  0.23630  1.0000
  H   H27       1.0  0.23380  0.23830  0.76010  1.0000
  H   H28       1.0  0.76620  0.76170  0.23990  1.0000
  O   O15       1.0  0.30590  0.43260  0.12750  1.0000
  O   O16       1.0  0.69410  0.56740  0.87250  1.0000
  H   H29       1.0  0.29960  0.39960  0.09360  1.0000
  H   H30       1.0  0.70040  0.60040  0.90640  1.0000
  H   H31       1.0  0.33080  0.39220  0.17540  1.0000
  H   H32       1.0  0.66920  0.60780  0.82460  1.0000
  O   O17       1.0  0.28350  0.16320  0.55680  1.0000
  O   O18       1.0  0.71650  0.83680  0.44320  1.0000
  O   O19       1.0  0.16610  0.13300  0.73020  1.0000
  O   O20       1.0  0.83390  0.86700  0.26980  1.0000
  O   O21       1.0  0.22930  0.15060  0.29700  1.0000
  O   O22       1.0  0.77070  0.84940  0.70300  1.0000
  O   O23       1.0  0.07960  0.17100  0.26510  1.0000
  O   O24       1.0  0.92040  0.82900  0.73490  1.0000
  O   O25       1.0  0.27700  0.95780  0.52090  1.0000
  O   O26       1.0  0.72300  0.04220  0.47910  1.0000
  O   O27       1.0  0.37610  0.82890  0.54530  1.0000
  O   O28       1.0  0.62390  0.17110  0.45470  1.0000
  O   O29       1.0  0.39190  0.29580  0.28830  1.0000
  O   O30       1.0  0.60810  0.70420  0.71170  1.0000
  O   O31       1.0  0.55560  0.38120  0.14220  1.0000
  O   O32       1.0  0.44440  0.61880  0.85780  1.0000
  O   O33       1.0  0.25310  0.65820  0.49020  1.0000
  O   O34       1.0  0.74690  0.34180  0.50980  1.0000
  O   O35       1.0  0.30690  0.73540  0.29930  1.0000
  O   O36       1.0  0.69310  0.26460  0.70070  1.0000
  O   O37       1.0  0.13320  0.69940  0.12680  1.0000
  O   O38       1.0  0.86680  0.30060  0.87320  1.0000
  O   O39       1.0  0.95520  0.64110  0.19300  1.0000
  O   O40       1.0  0.04480  0.35890  0.80700  1.0000
  O   O41       1.0  0.20670  0.91490  0.10840  1.0000
  O   O42       1.0  0.79330  0.08510  0.89160  1.0000
  O   O43       1.0  0.27360  0.08870  0.97510  1.0000
  O   O44       1.0  0.72640  0.91130  0.02490  1.0000
  O   O45       1.0  0.35120  0.64560  0.13660  1.0000
  O   O46       1.0  0.64880  0.35440  0.86340  1.0000
  O   O47       1.0  0.52370  0.64340  0.04370  1.0000
  O   O48       1.0  0.47630  0.35660  0.95630  1.0000
  N   N1        1.0  0.13530  0.13360  0.49750  1.0000
  N   N2        1.0  0.86470  0.86640  0.50250  1.0000
  N   N3        1.0  0.44460  0.10860  0.35210  1.0000
  N   N4        1.0  0.55540  0.89140  0.64790  1.0000
  N   N5        1.0  0.11570  0.67870  0.32090  1.0000
  N   N6        1.0  0.88430  0.32130  0.67910  1.0000
  N   N7        1.0  0.38340  0.85480  0.02570  1.0000
  N   N8        1.0  0.61660  0.14520  0.97430  1.0000
  C   C1        1.0  0.13010  0.15250  0.32630  1.0000
  C   C2        1.0  0.86990  0.84750  0.67370  1.0000
  C   C3        1.0  0.06850  0.13260  0.44930  1.0000
  C   C4        1.0  0.93150  0.86740  0.55070  1.0000
  C   C5        1.0  0.95680  0.11650  0.50900  1.0000
  C   C6        1.0  0.04320  0.88350  0.49100  1.0000
  H   H33       1.0  0.91020  0.11850  0.47440  1.0000
  H   H34       1.0  0.08980  0.88150  0.52560  1.0000
  C   C7        1.0  0.91770  0.09750  0.62020  1.0000
  C   C8        1.0  0.08230  0.90250  0.37980  1.0000
  H   H35       1.0  0.84330  0.08190  0.66360  1.0000
  H   H36       1.0  0.15670  0.91810  0.33640  1.0000
  C   C9        1.0  0.98780  0.10150  0.66900  1.0000
  C   C10       1.0  0.01220  0.89850  0.33100  1.0000
  H   H37       1.0  0.96140  0.09050  0.74380  1.0000
  H   H38       1.0  0.03860  0.90950  0.25620  1.0000
  C   C11       1.0  0.09800  0.12210  0.60320  1.0000
  C   C12       1.0  0.90200  0.87790  0.39680  1.0000
  C   C13       1.0  0.18880  0.13920  0.63500  1.0000
  C   C14       1.0  0.81120  0.86080  0.36500  1.0000
  C   C15       1.0  0.36290  0.92300  0.49520  1.0000
  C   C16       1.0  0.63710  0.07700  0.50480  1.0000
  C   C17       1.0  0.46270  0.00780  0.39380  1.0000
  C   C18       1.0  0.53730  0.99220  0.60620  1.0000
  C   C19       1.0  0.56370  0.98660  0.34670  1.0000
  C   C20       1.0  0.43630  0.01340  0.65330  1.0000
  H   H39       1.0  0.57570  0.91620  0.37630  1.0000
  H   H40       1.0  0.42430  0.08380  0.62370  1.0000
  C   C21       1.0  0.64650  0.07220  0.25490  1.0000
  C   C22       1.0  0.35350  0.92780  0.74510  1.0000
  H   H41       1.0  0.71480  0.05970  0.22160  1.0000
  H   H42       1.0  0.28520  0.94030  0.77840  1.0000
  C   C23       1.0  0.62710  0.17630  0.21280  1.0000
  C   C24       1.0  0.37290  0.82370  0.78720  1.0000
  H   H43       1.0  0.68210  0.23470  0.15160  1.0000
  H   H44       1.0  0.31790  0.76530  0.84840  1.0000
  C   C25       1.0  0.52420  0.19180  0.26370  1.0000
  C   C26       1.0  0.47580  0.80820  0.73630  1.0000
  C   C27       1.0  0.48950  0.29940  0.22720  1.0000
  C   C28       1.0  0.51050  0.70060  0.77280  1.0000
  C   C29       1.0  0.03620  0.66670  0.20370  1.0000
  C   C30       1.0  0.96380  0.33330  0.79630  1.0000
  C   C31       1.0  0.02150  0.65500  0.31910  1.0000
  C   C32       1.0  0.97850  0.34500  0.68090  1.0000
  C   C33       1.0  0.92550  0.61930  0.41660  1.0000
  C   C34       1.0  0.07450  0.38070  0.58340  1.0000
  H   H45       1.0  0.85980  0.60390  0.41480  1.0000
  H   H46       1.0  0.14020  0.39610  0.58520  1.0000
  C   C35       1.0  0.92910  0.60670  0.51730  1.0000
  C   C36       1.0  0.07090  0.39330  0.48270  1.0000
  H   H47       1.0  0.86520  0.58490  0.58310  1.0000
  H   H48       1.0  0.13480  0.41510  0.41690  1.0000
  C   C37       1.0  0.02800  0.62670  0.51960  1.0000
  C   C38       1.0  0.97200  0.37330  0.48040  1.0000
  H   H49       1.0  0.03200  0.61550  0.58730  1.0000
  H   H50       1.0  0.96800  0.38450  0.41270  1.0000
  C   C39       1.0  0.12100  0.66380  0.41780  1.0000
  C   C40       1.0  0.87900  0.33620  0.58220  1.0000
  C   C41       1.0  0.23660  0.68820  0.40280  1.0000
  C   C42       1.0  0.76340  0.31180  0.59720  1.0000
  C   C43       1.0  0.28030  0.99270  0.02180  1.0000
  C   C44       1.0  0.71970  0.00730  0.97820  1.0000
  C   C45       1.0  0.38630  0.96090  0.96960  1.0000
  C   C46       1.0  0.61370  0.03910  0.03040  1.0000
  C   C47       1.0  0.47780  0.03110  0.87340  1.0000
  C   C48       1.0  0.52220  0.96890  0.12660  1.0000
  H   H51       1.0  0.47930  0.10500  0.83400  1.0000
  H   H52       1.0  0.52070  0.89500  0.16600  1.0000
  C   C49       1.0  0.56740  0.98810  0.83720  1.0000
  C   C50       1.0  0.43260  0.01190  0.16280  1.0000
  H   H53       1.0  0.63010  0.03380  0.77310  1.0000
  H   H54       1.0  0.36990  0.96620  0.22690  1.0000
  C   C51       1.0  0.56430  0.87830  0.89530  1.0000
  C   C52       1.0  0.43570  0.12170  0.10470  1.0000
  H   H55       1.0  0.62390  0.84900  0.87160  1.0000
  H   H56       1.0  0.37610  0.15100  0.12840  1.0000
  C   C53       1.0  0.46860  0.81260  0.99070  1.0000
  C   C54       1.0  0.53140  0.18740  0.00930  1.0000
  C   C55       1.0  0.44840  0.69130  0.06160  1.0000
  C   C56       1.0  0.55160  0.30870  0.93840  1.0000
