data_image0
_chemical_formula_structural       Zn6P8O20H2O8H2O2H4C4H6C4H6
_chemical_formula_sum              "Zn6 P8 O30 H20 C8"
_cell_length_a       8.079
_cell_length_b       11.714
_cell_length_c       11.966
_cell_angle_alpha    101.458
_cell_angle_beta     102.415
_cell_angle_gamma    102.665

_space_group_name_H-M_alt    "P 1"
_space_group_IT_number       1

loop_
  _space_group_symop_operation_xyz
  'x, y, z'

loop_
  _atom_site_type_symbol
  _atom_site_label
  _atom_site_symmetry_multiplicity
  _atom_site_fract_x
  _atom_site_fract_y
  _atom_site_fract_z
  _atom_site_occupancy
  Zn  Zn1       1.0  0.03910  0.16310  0.42790  1.0000
  Zn  Zn2       1.0  0.96090  0.83690  0.57210  1.0000
  Zn  Zn3       1.0  0.58890  0.21520  0.61440  1.0000
  Zn  Zn4       1.0  0.41110  0.78480  0.38560  1.0000
  Zn  Zn5       1.0  0.39390  0.46880  0.62840  1.0000
  Zn  Zn6       1.0  0.60610  0.53120  0.37160  1.0000
  P   P1        1.0  0.22210  0.10380  0.66160  1.0000
  P   P2        1.0  0.77790  0.89620  0.33840  1.0000
  P   P3        1.0  0.46650  0.34720  0.82600  1.0000
  P   P4        1.0  0.53350  0.65280  0.17400  1.0000
  P   P5        1.0  0.38230  0.28940  0.38870  1.0000
  P   P6        1.0  0.61770  0.71060  0.61130  1.0000
  P   P7        1.0  0.77750  0.33000  0.44920  1.0000
  P   P8        1.0  0.22250  0.67000  0.55080  1.0000
  O   O1        1.0  0.09900  0.16280  0.59320  1.0000
  O   O2        1.0  0.90100  0.83720  0.40680  1.0000
  O   O3        1.0  0.12200  0.98470  0.67650  1.0000
  O   O4        1.0  0.87800  0.01530  0.32350  1.0000
  O   O5        1.0  0.37300  0.08810  0.60950  1.0000
  O   O6        1.0  0.62700  0.91190  0.39050  1.0000
  O   O7        1.0  0.61200  0.32380  0.77050  1.0000
  O   O8        1.0  0.38800  0.67620  0.22950  1.0000
  O   O9        1.0  0.35800  0.42000  0.76660  1.0000
  O   O10       1.0  0.64200  0.58000  0.23340  1.0000
  O   O11       1.0  0.54300  0.40880  0.95850  1.0000
  O   O12       1.0  0.45700  0.59120  0.04150  1.0000
  O   O13       1.0  0.42100  0.32820  0.52330  1.0000
  O   O14       1.0  0.57900  0.67180  0.47670  1.0000
  O   O15       1.0  0.20900  0.19190  0.33440  1.0000
  O   O16       1.0  0.79100  0.80810  0.66560  1.0000
  O   O17       1.0  0.39100  0.39540  0.33270  1.0000
  O   O18       1.0  0.60900  0.60460  0.66730  1.0000
  O   O19       1.0  0.53500  0.12290  0.41890  1.0000
  O   O20       1.0  0.46500  0.87710  0.58110  1.0000
  H   H1        1.0  0.47000  0.09000  0.46000  1.0000
  H   H2        1.0  0.53000  0.91000  0.54000  1.0000
  O   O21       1.0  0.78100  0.45430  0.42930  1.0000
  O   O22       1.0  0.21900  0.54570  0.57070  1.0000
  O   O23       1.0  0.91800  0.28500  0.40200  1.0000
  O   O24       1.0  0.08200  0.71500  0.59800  1.0000
  O   O25       1.0  0.79100  0.32510  0.57640  1.0000
  O   O26       1.0  0.20900  0.67490  0.42360  1.0000
  O   O27       1.0  0.17500  0.22210  0.86130  1.0000
  O   O28       1.0  0.82500  0.77790  0.13870  1.0000
  H   H3        1.0  0.10000  0.16200  0.87000  1.0000
  H   H4        1.0  0.90000  0.83800  0.13000  1.0000
  O   O29       1.0  0.75900  0.10930  0.66060  1.0000
  O   O30       1.0  0.24100  0.89070  0.33940  1.0000
  H   H5        1.0  0.72790  0.04210  0.60850  1.0000
  H   H6        1.0  0.27210  0.95790  0.39150  1.0000
  H   H7        1.0  0.86380  0.14690  0.66400  1.0000
  H   H8        1.0  0.13620  0.85310  0.33600  1.0000
  C   C1        1.0  0.31800  0.20000  0.81400  1.0000
  C   C2        1.0  0.68200  0.80000  0.18600  1.0000
  C   C3        1.0  0.41800  0.13400  0.88700  1.0000
  C   C4        1.0  0.58200  0.86600  0.11300  1.0000
  H   H9        1.0  0.46860  0.18310  0.96670  1.0000
  H   H10       1.0  0.53140  0.81690  0.03330  1.0000
  H   H11       1.0  0.34050  0.05890  0.88740  1.0000
  H   H12       1.0  0.65950  0.94110  0.11260  1.0000
  H   H13       1.0  0.51090  0.11650  0.85350  1.0000
  H   H14       1.0  0.48910  0.88350  0.14650  1.0000
  C   C5        1.0  0.56000  0.22300  0.36300  1.0000
  C   C6        1.0  0.44000  0.77700  0.63700  1.0000
  C   C7        1.0  0.54600  0.18000  0.23300  1.0000
  C   C8        1.0  0.45400  0.82000  0.76700  1.0000
  H   H15       1.0  0.43190  0.12540  0.19370  1.0000
  H   H16       1.0  0.56810  0.87460  0.80630  1.0000
  H   H17       1.0  0.56350  0.24800  0.19950  1.0000
  H   H18       1.0  0.43650  0.75200  0.80050  1.0000
  H   H19       1.0  0.63490  0.13870  0.22400  1.0000
  H   H20       1.0  0.36510  0.86130  0.77600  1.0000
