data_image0
_chemical_formula_structural       Zn5P4O8H2O12H2O6H4C2H2C4H2C2
_chemical_formula_sum              "Zn5 P4 O26 H12 C8"
_cell_length_a       5.544
_cell_length_b       10.2387
_cell_length_c       12.946
_cell_angle_alpha    80.623
_cell_angle_beta     86.239
_cell_angle_gamma    76.634

_space_group_name_H-M_alt    "P 1"
_space_group_IT_number       1

loop_
  _space_group_symop_operation_xyz
  'x, y, z'

loop_
  _atom_site_type_symbol
  _atom_site_label
  _atom_site_symmetry_multiplicity
  _atom_site_fract_x
  _atom_site_fract_y
  _atom_site_fract_z
  _atom_site_occupancy
  Zn  Zn1       1.0  0.00000  0.00000  0.50000  1.0000
  Zn  Zn2       1.0  0.41210  0.38209  0.16338  1.0000
  Zn  Zn3       1.0  0.58790  0.61791  0.83662  1.0000
  Zn  Zn4       1.0  0.69272  0.92021  0.08749  1.0000
  Zn  Zn5       1.0  0.30728  0.07979  0.91251  1.0000
  P   P1        1.0  0.49760  0.14659  0.37719  1.0000
  P   P2        1.0  0.50240  0.85341  0.62281  1.0000
  P   P3        1.0  0.73770  0.22210  0.97820  1.0000
  P   P4        1.0  0.26230  0.77790  0.02180  1.0000
  O   O1        1.0  0.67340  0.12970  0.46470  1.0000
  O   O2        1.0  0.32660  0.87030  0.53530  1.0000
  O   O3        1.0  0.51360  0.26980  0.29710  1.0000
  O   O4        1.0  0.48640  0.73020  0.70290  1.0000
  O   O5        1.0  0.22930  0.15340  0.41880  1.0000
  O   O6        1.0  0.77070  0.84660  0.58120  1.0000
  O   O7        1.0  0.44890  0.00670  0.22160  1.0000
  O   O8        1.0  0.55110  0.99330  0.77840  1.0000
  H   H1        1.0  0.33560  0.96680  0.23470  1.0000
  H   H2        1.0  0.66440  0.03320  0.76530  1.0000
  O   O9        1.0  0.92160  0.95880  0.18980  1.0000
  O   O10       1.0  0.07840  0.04120  0.81020  1.0000
  O   O11       1.0  0.01740  0.93760  0.35410  1.0000
  O   O12       1.0  0.98260  0.06240  0.64590  1.0000
  O   O13       1.0  0.01410  0.17640  0.99590  1.0000
  O   O14       1.0  0.98590  0.82360  0.00410  1.0000
  O   O15       1.0  0.61460  0.32710  0.04510  1.0000
  O   O16       1.0  0.38540  0.67290  0.95490  1.0000
  O   O17       1.0  0.61080  0.10240  0.98660  1.0000
  O   O18       1.0  0.38920  0.89760  0.01340  1.0000
  O   O19       1.0  0.81370  0.42210  0.82630  1.0000
  O   O20       1.0  0.18630  0.57790  0.17370  1.0000
  H   H3        1.0  0.96420  0.39260  0.82320  1.0000
  H   H4        1.0  0.03580  0.60740  0.17680  1.0000
  O   O21       1.0  0.28420  0.28640  0.82070  1.0000
  O   O22       1.0  0.71580  0.71360  0.17930  1.0000
  O   O23       1.0  0.34270  0.49410  0.81250  1.0000
  O   O24       1.0  0.65730  0.50590  0.18750  1.0000
  O   O25       1.0  0.10180  0.32310  0.14080  1.0000
  O   O26       1.0  0.89820  0.67690  0.85920  1.0000
  H   H5        1.0  0.03900  0.36600  0.08340  1.0000
  H   H6        1.0  0.96100  0.63400  0.91660  1.0000
  H   H7        1.0  0.13700  0.23830  0.13820  1.0000
  H   H8        1.0  0.86300  0.76170  0.86180  1.0000
  C   C1        1.0  0.58410  0.99390  0.31420  1.0000
  C   C2        1.0  0.41590  0.00610  0.68580  1.0000
  H   H9        1.0  0.54810  0.91710  0.36380  1.0000
  H   H10       1.0  0.45190  0.08290  0.63620  1.0000
  C   C3        1.0  0.85980  0.96140  0.28400  1.0000
  C   C4        1.0  0.14020  0.03860  0.71600  1.0000
  C   C5        1.0  0.69170  0.31120  0.84250  1.0000
  C   C6        1.0  0.30830  0.68880  0.15750  1.0000
  H   H11       1.0  0.76070  0.24810  0.79310  1.0000
  H   H12       1.0  0.23930  0.75190  0.20690  1.0000
  C   C7        1.0  0.42060  0.36780  0.82360  1.0000
  C   C8        1.0  0.57940  0.63220  0.17640  1.0000
