data_image0
_chemical_formula_structural       Cd2Nb4F16O6N4H4N4C4H4C4H4C4H4
_chemical_formula_sum              "Cd2 Nb4 F16 O6 N8 H16 C12"
_cell_length_a       11.0192
_cell_length_b       16.8012
_cell_length_c       6.8717
_cell_angle_alpha    90
_cell_angle_beta     90
_cell_angle_gamma    90

_space_group_name_H-M_alt    "P 1"
_space_group_IT_number       1

loop_
  _space_group_symop_operation_xyz
  'x, y, z'

loop_
  _atom_site_type_symbol
  _atom_site_label
  _atom_site_symmetry_multiplicity
  _atom_site_fract_x
  _atom_site_fract_y
  _atom_site_fract_z
  _atom_site_occupancy
  Cd  Cd1       1.0  0.00000  0.00000  0.89745  1.0000
  Cd  Cd2       1.0  0.50000  0.50000  0.89745  1.0000
  Nb  Nb1       1.0  0.96669  0.10772  0.40312  1.0000
  Nb  Nb2       1.0  0.03331  0.89228  0.40312  1.0000
  Nb  Nb3       1.0  0.53331  0.60772  0.40312  1.0000
  Nb  Nb4       1.0  0.46669  0.39228  0.40312  1.0000
  F   F1        1.0  0.13294  0.13924  0.43850  1.0000
  F   F2        1.0  0.86706  0.86076  0.43850  1.0000
  F   F3        1.0  0.36706  0.63924  0.43850  1.0000
  F   F4        1.0  0.63294  0.36076  0.43850  1.0000
  F   F5        1.0  0.93467  0.22303  0.41640  1.0000
  F   F6        1.0  0.06533  0.77697  0.41640  1.0000
  F   F7        1.0  0.56533  0.72303  0.41640  1.0000
  F   F8        1.0  0.43467  0.27697  0.41640  1.0000
  F   F9        1.0  0.96399  0.11982  0.72210  1.0000
  F   F10       1.0  0.03601  0.88018  0.72210  1.0000
  F   F11       1.0  0.53601  0.61982  0.72210  1.0000
  F   F12       1.0  0.46399  0.38018  0.72210  1.0000
  F   F13       1.0  0.79172  0.09673  0.44020  1.0000
  F   F14       1.0  0.20828  0.90327  0.44020  1.0000
  F   F15       1.0  0.70828  0.59673  0.44020  1.0000
  F   F16       1.0  0.29172  0.40327  0.44020  1.0000
  O   O1        1.0  0.00000  0.00000  0.48270  1.0000
  O   O2        1.0  0.50000  0.50000  0.48270  1.0000
  O   O3        1.0  0.96779  0.09376  0.15150  1.0000
  O   O4        1.0  0.03221  0.90624  0.15150  1.0000
  O   O5        1.0  0.53221  0.59376  0.15150  1.0000
  O   O6        1.0  0.46779  0.40624  0.15150  1.0000
  N   N1        1.0  0.37740  0.06560  0.79600  1.0000
  N   N2        1.0  0.62260  0.93440  0.79600  1.0000
  N   N3        1.0  0.12260  0.56560  0.79600  1.0000
  N   N4        1.0  0.87740  0.43440  0.79600  1.0000
  H   H1        1.0  0.43760  0.07650  0.72080  1.0000
  H   H2        1.0  0.56240  0.92350  0.72080  1.0000
  H   H3        1.0  0.06240  0.57650  0.72080  1.0000
  H   H4        1.0  0.93760  0.42350  0.72080  1.0000
  N   N5        1.0  0.19720  0.02839  0.89320  1.0000
  N   N6        1.0  0.80280  0.97161  0.89320  1.0000
  N   N7        1.0  0.30280  0.52839  0.89320  1.0000
  N   N8        1.0  0.69720  0.47161  0.89320  1.0000
  C   C1        1.0  0.26680  0.03960  0.74340  1.0000
  C   C2        1.0  0.73320  0.96040  0.74340  1.0000
  C   C3        1.0  0.23320  0.53960  0.74340  1.0000
  C   C4        1.0  0.76680  0.46040  0.74340  1.0000
  H   H5        1.0  0.24320  0.03060  0.61540  1.0000
  H   H6        1.0  0.75680  0.96940  0.61540  1.0000
  H   H7        1.0  0.25680  0.53060  0.61540  1.0000
  H   H8        1.0  0.74320  0.46940  0.61540  1.0000
  C   C5        1.0  0.37380  0.07100  0.99320  1.0000
  C   C6        1.0  0.62620  0.92900  0.99320  1.0000
  C   C7        1.0  0.12620  0.57100  0.99320  1.0000
  C   C8        1.0  0.87380  0.42900  0.99320  1.0000
  H   H9        1.0  0.43710  0.08820  0.07210  1.0000
  H   H10       1.0  0.56290  0.91180  0.07210  1.0000
  H   H11       1.0  0.06290  0.58820  0.07210  1.0000
  H   H12       1.0  0.93710  0.41180  0.07210  1.0000
  C   C9        1.0  0.26700  0.04830  0.05380  1.0000
  C   C10       1.0  0.73300  0.95170  0.05380  1.0000
  C   C11       1.0  0.23300  0.54830  0.05380  1.0000
  C   C12       1.0  0.76700  0.45170  0.05380  1.0000
  H   H13       1.0  0.24210  0.04590  0.18300  1.0000
  H   H14       1.0  0.75790  0.95410  0.18300  1.0000
  H   H15       1.0  0.25790  0.54590  0.18300  1.0000
  H   H16       1.0  0.74210  0.45410  0.18300  1.0000
