data_image0
_chemical_formula_structural       Zn4O24H8O4H8N12C28H4C4H4C4H4C4H4
_chemical_formula_sum              "Zn4 O28 H32 N12 C40"
_cell_length_a       9.488
_cell_length_b       13.247
_cell_length_c       12.959
_cell_angle_alpha    90
_cell_angle_beta     126.716
_cell_angle_gamma    90

_space_group_name_H-M_alt    "P 1"
_space_group_IT_number       1

loop_
  _space_group_symop_operation_xyz
  'x, y, z'

loop_
  _atom_site_type_symbol
  _atom_site_label
  _atom_site_symmetry_multiplicity
  _atom_site_fract_x
  _atom_site_fract_y
  _atom_site_fract_z
  _atom_site_occupancy
  Zn  Zn1       1.0  0.20409  0.73704  0.31694  1.0000
  Zn  Zn2       1.0  0.79591  0.23704  0.18306  1.0000
  Zn  Zn3       1.0  0.79591  0.26296  0.68306  1.0000
  Zn  Zn4       1.0  0.20409  0.76296  0.81694  1.0000
  O   O1        1.0  0.23960  0.57901  0.29350  1.0000
  O   O2        1.0  0.76040  0.07901  0.20650  1.0000
  O   O3        1.0  0.76040  0.42099  0.70650  1.0000
  O   O4        1.0  0.23960  0.92099  0.79350  1.0000
  O   O5        1.0  0.21410  0.47365  0.15010  1.0000
  O   O6        1.0  0.78590  0.97365  0.34990  1.0000
  O   O7        1.0  0.78590  0.52635  0.84990  1.0000
  O   O8        1.0  0.21410  0.02635  0.65010  1.0000
  O   O9        1.0  0.17780  0.48363  0.94610  1.0000
  O   O10       1.0  0.82220  0.98363  0.55390  1.0000
  O   O11       1.0  0.82220  0.51637  0.05390  1.0000
  O   O12       1.0  0.17780  0.01637  0.44610  1.0000
  O   O13       1.0  0.14330  0.60389  0.81280  1.0000
  O   O14       1.0  0.85670  0.10389  0.68720  1.0000
  O   O15       1.0  0.85670  0.39611  0.18720  1.0000
  O   O16       1.0  0.14330  0.89611  0.31280  1.0000
  O   O17       1.0  0.32700  0.21960  0.13040  1.0000
  O   O18       1.0  0.67300  0.71960  0.36960  1.0000
  O   O19       1.0  0.67300  0.78040  0.86960  1.0000
  O   O20       1.0  0.32700  0.28040  0.63040  1.0000
  O   O21       1.0  0.93370  0.70000  0.19650  1.0000
  O   O22       1.0  0.06630  0.20000  0.30350  1.0000
  O   O23       1.0  0.06630  0.30000  0.80350  1.0000
  O   O24       1.0  0.93370  0.80000  0.69650  1.0000
  H   H1        1.0  0.92660  0.63880  0.21270  1.0000
  H   H2        1.0  0.07340  0.13880  0.28730  1.0000
  H   H3        1.0  0.07340  0.36120  0.78730  1.0000
  H   H4        1.0  0.92660  0.86120  0.71270  1.0000
  H   H5        1.0  0.90210  0.70140  0.11980  1.0000
  H   H6        1.0  0.09790  0.20140  0.38020  1.0000
  H   H7        1.0  0.09790  0.29860  0.88020  1.0000
  H   H8        1.0  0.90210  0.79860  0.61980  1.0000
  O   O25       1.0  0.47580  0.76470  0.44570  1.0000
  O   O26       1.0  0.52420  0.26470  0.05430  1.0000
  O   O27       1.0  0.52420  0.23530  0.55430  1.0000
  O   O28       1.0  0.47580  0.73530  0.94570  1.0000
  H   H9        1.0  0.51930  0.73110  0.51450  1.0000
  H   H10       1.0  0.48070  0.23110  0.98550  1.0000
  H   H11       1.0  0.48070  0.26890  0.48550  1.0000
  H   H12       1.0  0.51930  0.76890  0.01450  1.0000
  H   H13       1.0  0.52500  0.74750  0.41110  1.0000
  H   H14       1.0  0.47500  0.24750  0.08890  1.0000
  H   H15       1.0  0.47500  0.25250  0.58890  1.0000
  H   H16       1.0  0.52500  0.75250  0.91110  1.0000
  N   N1        1.0  0.21980  0.74510  0.15980  1.0000
  N   N2        1.0  0.78020  0.24510  0.34020  1.0000
  N   N3        1.0  0.78020  0.25490  0.84020  1.0000
  N   N4        1.0  0.21980  0.75490  0.65980  1.0000
  N   N5        1.0  0.19580  0.75400  0.97740  1.0000
  N   N6        1.0  0.80420  0.25400  0.52260  1.0000
  N   N7        1.0  0.80420  0.24600  0.02260  1.0000
  N   N8        1.0  0.19580  0.74600  0.47740  1.0000
  N   N9        1.0  0.29460  0.12140  0.11880  1.0000
  N   N10       1.0  0.70540  0.62140  0.38120  1.0000
  N   N11       1.0  0.70540  0.87860  0.88120  1.0000
  N   N12       1.0  0.29460  0.37860  0.61880  1.0000
  C   C1        1.0  0.21870  0.56340  0.19100  1.0000
  C   C2        1.0  0.78130  0.06340  0.30900  1.0000
  C   C3        1.0  0.78130  0.43660  0.80900  1.0000
  C   C4        1.0  0.21870  0.93660  0.69100  1.0000
  C   C5        1.0  0.20520  0.64990  0.11490  1.0000
  C   C6        1.0  0.79480  0.14990  0.38510  1.0000
  C   C7        1.0  0.79480  0.35010  0.88510  1.0000
  C   C8        1.0  0.20520  0.85010  0.61490  1.0000
  C   C9        1.0  0.18950  0.65540  0.00250  1.0000
  C   C10       1.0  0.81050  0.15540  0.49750  1.0000
  C   C11       1.0  0.81050  0.34460  0.99750  1.0000
  C   C12       1.0  0.18950  0.84460  0.50250  1.0000
  C   C13       1.0  0.16830  0.57680  0.91390  1.0000
  C   C14       1.0  0.83170  0.07680  0.58610  1.0000
  C   C15       1.0  0.83170  0.42320  0.08610  1.0000
  C   C16       1.0  0.16830  0.92320  0.41390  1.0000
  C   C17       1.0  0.21600  0.80500  0.07490  1.0000
  C   C18       1.0  0.78400  0.30500  0.42510  1.0000
  C   C19       1.0  0.78400  0.19500  0.92510  1.0000
  C   C20       1.0  0.21600  0.69500  0.57490  1.0000
  C   C21       1.0  0.23910  0.91520  0.08940  1.0000
  C   C22       1.0  0.76090  0.41520  0.41060  1.0000
  C   C23       1.0  0.76090  0.08480  0.91060  1.0000
  C   C24       1.0  0.23910  0.58480  0.58940  1.0000
  C   C25       1.0  0.16390  0.97860  0.98340  1.0000
  C   C26       1.0  0.83610  0.47860  0.51660  1.0000
  C   C27       1.0  0.83610  0.02140  0.01660  1.0000
  C   C28       1.0  0.16390  0.52140  0.48340  1.0000
  H   H17       1.0  0.09380  0.95160  0.90080  1.0000
  H   H18       1.0  0.90620  0.45160  0.59920  1.0000
  H   H19       1.0  0.90620  0.04840  0.09920  1.0000
  H   H20       1.0  0.09380  0.54840  0.40080  1.0000
  C   C29       1.0  0.19260  0.08160  0.00020  1.0000
  C   C30       1.0  0.80740  0.58160  0.49980  1.0000
  C   C31       1.0  0.80740  0.91840  0.99980  1.0000
  C   C32       1.0  0.19260  0.41840  0.50020  1.0000
  H   H21       1.0  0.14080  0.12360  0.92870  1.0000
  H   H22       1.0  0.85920  0.62360  0.57130  1.0000
  H   H23       1.0  0.85920  0.87640  0.07130  1.0000
  H   H24       1.0  0.14080  0.37640  0.42870  1.0000
  C   C33       1.0  0.36490  0.06240  0.22290  1.0000
  C   C34       1.0  0.63510  0.56240  0.27710  1.0000
  C   C35       1.0  0.63510  0.93760  0.77710  1.0000
  C   C36       1.0  0.36490  0.43760  0.72290  1.0000
  H   H25       1.0  0.43160  0.09150  0.30440  1.0000
  H   H26       1.0  0.56840  0.59150  0.19560  1.0000
  H   H27       1.0  0.56840  0.90850  0.69560  1.0000
  H   H28       1.0  0.43160  0.40850  0.80440  1.0000
  C   C37       1.0  0.33960  0.95870  0.21090  1.0000
  C   C38       1.0  0.66040  0.45870  0.28910  1.0000
  C   C39       1.0  0.66040  0.04130  0.78910  1.0000
  C   C40       1.0  0.33960  0.54130  0.71090  1.0000
  H   H29       1.0  0.38980  0.91860  0.28390  1.0000
  H   H30       1.0  0.61020  0.41860  0.21610  1.0000
  H   H31       1.0  0.61020  0.08140  0.71610  1.0000
  H   H32       1.0  0.38980  0.58140  0.78390  1.0000
