data_image0
_chemical_formula_structural       U8O40H4O28H4O8H8O4H8C12H8C8H8C16H8C8H8C4
_chemical_formula_sum              "U8 O80 H56 C48"
_cell_length_a       16.5938
_cell_length_b       15.1034
_cell_length_c       18.0112
_cell_angle_alpha    90
_cell_angle_beta     90
_cell_angle_gamma    90

_space_group_name_H-M_alt    "P 1"
_space_group_IT_number       1

loop_
  _space_group_symop_operation_xyz
  'x, y, z'

loop_
  _atom_site_type_symbol
  _atom_site_label
  _atom_site_symmetry_multiplicity
  _atom_site_fract_x
  _atom_site_fract_y
  _atom_site_fract_z
  _atom_site_occupancy
  U   U1        1.0  0.83229  0.32499  0.99879  1.0000
  U   U2        1.0  0.16771  0.67501  0.49879  1.0000
  U   U3        1.0  0.33229  0.67501  0.99879  1.0000
  U   U4        1.0  0.66771  0.32499  0.49879  1.0000
  U   U5        1.0  0.64106  0.17746  0.00384  1.0000
  U   U6        1.0  0.35894  0.82254  0.50384  1.0000
  U   U7        1.0  0.14106  0.82254  0.00384  1.0000
  U   U8        1.0  0.85894  0.17746  0.50384  1.0000
  O   O1        1.0  0.82430  0.29970  0.90160  1.0000
  O   O2        1.0  0.17570  0.70030  0.40160  1.0000
  O   O3        1.0  0.32430  0.70030  0.90160  1.0000
  O   O4        1.0  0.67570  0.29970  0.40160  1.0000
  O   O5        1.0  0.84040  0.35640  0.09340  1.0000
  O   O6        1.0  0.15960  0.64360  0.59340  1.0000
  O   O7        1.0  0.34040  0.64360  0.09340  1.0000
  O   O8        1.0  0.65960  0.35640  0.59340  1.0000
  O   O9        1.0  0.65010  0.19070  0.90410  1.0000
  O   O10       1.0  0.34990  0.80930  0.40410  1.0000
  O   O11       1.0  0.15010  0.80930  0.90410  1.0000
  O   O12       1.0  0.84990  0.19070  0.40410  1.0000
  O   O13       1.0  0.63060  0.15750  0.09980  1.0000
  O   O14       1.0  0.36940  0.84250  0.59980  1.0000
  O   O15       1.0  0.13060  0.84250  0.09980  1.0000
  O   O16       1.0  0.86940  0.15750  0.59980  1.0000
  O   O17       1.0  0.78110  0.18020  0.02170  1.0000
  O   O18       1.0  0.21890  0.81980  0.52170  1.0000
  O   O19       1.0  0.28110  0.81980  0.02170  1.0000
  O   O20       1.0  0.71890  0.18020  0.52170  1.0000
  O   O21       1.0  0.93420  0.22100  0.01070  1.0000
  O   O22       1.0  0.06580  0.77900  0.51070  1.0000
  O   O23       1.0  0.43420  0.77900  0.01070  1.0000
  O   O24       1.0  0.56580  0.22100  0.51070  1.0000
  O   O25       1.0  0.97770  0.08590  0.03960  1.0000
  O   O26       1.0  0.02230  0.91410  0.53960  1.0000
  O   O27       1.0  0.47770  0.91410  0.03960  1.0000
  O   O28       1.0  0.52230  0.08590  0.53960  1.0000
  O   O29       1.0  0.68250  0.03080  0.98590  1.0000
  O   O30       1.0  0.31750  0.96920  0.48590  1.0000
  O   O31       1.0  0.18250  0.96920  0.98590  1.0000
  O   O32       1.0  0.81750  0.03080  0.48590  1.0000
  O   O33       1.0  0.75230  0.91030  0.95860  1.0000
  O   O34       1.0  0.24770  0.08970  0.45860  1.0000
  O   O35       1.0  0.25230  0.08970  0.95860  1.0000
  O   O36       1.0  0.74770  0.91030  0.45860  1.0000
  O   O37       1.0  0.86990  0.18200  0.17580  1.0000
  O   O38       1.0  0.13010  0.81800  0.67580  1.0000
  O   O39       1.0  0.36990  0.81800  0.17580  1.0000
  O   O40       1.0  0.63010  0.18200  0.67580  1.0000
  H   H1        1.0  0.85520  0.22200  0.20340  1.0000
  H   H2        1.0  0.14480  0.77800  0.70340  1.0000
  H   H3        1.0  0.35520  0.77800  0.20340  1.0000
  H   H4        1.0  0.64480  0.22200  0.70340  1.0000
  O   O41       1.0  0.75820  0.11490  0.21660  1.0000
  O   O42       1.0  0.24180  0.88510  0.71660  1.0000
  O   O43       1.0  0.25820  0.88510  0.21660  1.0000
  O   O44       1.0  0.74180  0.11490  0.71660  1.0000
  O   O45       1.0  0.69090  0.32380  0.01550  1.0000
  O   O46       1.0  0.30910  0.67620  0.51550  1.0000
  O   O47       1.0  0.19090  0.67620  0.01550  1.0000
  O   O48       1.0  0.80910  0.32380  0.51550  1.0000
  O   O49       1.0  0.53750  0.28220  0.00480  1.0000
  O   O50       1.0  0.46250  0.71780  0.50480  1.0000
  O   O51       1.0  0.03750  0.71780  0.00480  1.0000
  O   O52       1.0  0.96250  0.28220  0.50480  1.0000
  O   O53       1.0  0.49160  0.41930  0.02960  1.0000
  O   O54       1.0  0.50840  0.58070  0.52960  1.0000
  O   O55       1.0  0.99160  0.58070  0.02960  1.0000
  O   O56       1.0  0.00840  0.41930  0.52960  1.0000
  O   O57       1.0  0.78940  0.46920  0.96860  1.0000
  O   O58       1.0  0.21060  0.53080  0.46860  1.0000
  O   O59       1.0  0.28940  0.53080  0.96860  1.0000
  O   O60       1.0  0.71060  0.46920  0.46860  1.0000
  O   O61       1.0  0.72270  0.59020  0.94200  1.0000
  O   O62       1.0  0.27730  0.40980  0.44200  1.0000
  O   O63       1.0  0.22270  0.40980  0.94200  1.0000
  O   O64       1.0  0.77730  0.59020  0.44200  1.0000
  O   O65       1.0  0.70770  0.40060  0.20940  1.0000
  O   O66       1.0  0.29230  0.59940  0.70940  1.0000
  O   O67       1.0  0.20770  0.59940  0.20940  1.0000
  O   O68       1.0  0.79230  0.40060  0.70940  1.0000
  H   H5        1.0  0.73870  0.35010  0.20940  1.0000
  H   H6        1.0  0.26130  0.64990  0.70940  1.0000
  H   H7        1.0  0.23870  0.64990  0.20940  1.0000
  H   H8        1.0  0.76130  0.35010  0.70940  1.0000
  O   O69       1.0  0.59570  0.33450  0.16650  1.0000
  O   O70       1.0  0.40430  0.66550  0.66650  1.0000
  O   O71       1.0  0.09570  0.66550  0.16650  1.0000
  O   O72       1.0  0.90430  0.33450  0.66650  1.0000
  O   O73       1.0  0.95440  0.41150  0.97620  1.0000
  O   O74       1.0  0.04560  0.58850  0.47620  1.0000
  O   O75       1.0  0.45440  0.58850  0.97620  1.0000
  O   O76       1.0  0.54560  0.41150  0.47620  1.0000
  H   H9        1.0  0.95340  0.46640  0.99510  1.0000
  H   H10       1.0  0.04660  0.53360  0.49510  1.0000
  H   H11       1.0  0.45340  0.53360  0.99510  1.0000
  H   H12       1.0  0.54660  0.46640  0.49510  1.0000
  H   H13       1.0  0.00160  0.39010  0.98360  1.0000
  H   H14       1.0  0.99840  0.60990  0.48360  1.0000
  H   H15       1.0  0.50160  0.60990  0.98360  1.0000
  H   H16       1.0  0.49840  0.39010  0.48360  1.0000
  O   O77       1.0  0.51890  0.08770  0.98630  1.0000
  O   O78       1.0  0.48110  0.91230  0.48630  1.0000
  O   O79       1.0  0.01890  0.91230  0.98630  1.0000
  O   O80       1.0  0.98110  0.08770  0.48630  1.0000
  H   H17       1.0  0.47270  0.10660  0.00670  1.0000
  H   H18       1.0  0.52730  0.89340  0.50670  1.0000
  H   H19       1.0  0.97270  0.89340  0.00670  1.0000
  H   H20       1.0  0.02730  0.10660  0.50670  1.0000
  H   H21       1.0  0.52220  0.03530  0.00250  1.0000
  H   H22       1.0  0.47780  0.96470  0.50250  1.0000
  H   H23       1.0  0.02220  0.96470  0.00250  1.0000
  H   H24       1.0  0.97780  0.03530  0.50250  1.0000
  C   C1        1.0  0.83550  0.10730  0.03160  1.0000
  C   C2        1.0  0.16450  0.89270  0.53160  1.0000
  C   C3        1.0  0.33550  0.89270  0.03160  1.0000
  C   C4        1.0  0.66450  0.10730  0.53160  1.0000
  C   C5        1.0  0.92380  0.13920  0.03030  1.0000
  C   C6        1.0  0.07620  0.86080  0.53030  1.0000
  C   C7        1.0  0.42380  0.86080  0.03030  1.0000
  C   C8        1.0  0.57620  0.13920  0.53030  1.0000
  C   C9        1.0  0.82500  0.04350  0.96600  1.0000
  C   C10       1.0  0.17500  0.95650  0.46600  1.0000
  C   C11       1.0  0.32500  0.95650  0.96600  1.0000
  C   C12       1.0  0.67500  0.04350  0.46600  1.0000
  H   H25       1.0  0.82430  0.07740  0.92030  1.0000
  H   H26       1.0  0.17570  0.92260  0.42030  1.0000
  H   H27       1.0  0.32430  0.92260  0.92030  1.0000
  H   H28       1.0  0.67570  0.07740  0.42030  1.0000
  H   H29       1.0  0.87110  0.00400  0.96420  1.0000
  H   H30       1.0  0.12890  0.99600  0.46420  1.0000
  H   H31       1.0  0.37110  0.99600  0.96420  1.0000
  H   H32       1.0  0.62890  0.00400  0.46420  1.0000
  C   C13       1.0  0.75130  0.99040  0.97030  1.0000
  C   C14       1.0  0.24870  0.00960  0.47030  1.0000
  C   C15       1.0  0.25130  0.00960  0.97030  1.0000
  C   C16       1.0  0.74870  0.99040  0.47030  1.0000
  C   C17       1.0  0.82070  0.06020  0.10610  1.0000
  C   C18       1.0  0.17930  0.93980  0.60610  1.0000
  C   C19       1.0  0.32070  0.93980  0.10610  1.0000
  C   C20       1.0  0.67930  0.06020  0.60610  1.0000
  H   H33       1.0  0.77140  0.02600  0.10240  1.0000
  H   H34       1.0  0.22860  0.97400  0.60240  1.0000
  H   H35       1.0  0.27140  0.97400  0.10240  1.0000
  H   H36       1.0  0.72860  0.02600  0.60240  1.0000
  H   H37       1.0  0.86450  0.01920  0.11510  1.0000
  H   H38       1.0  0.13550  0.98080  0.61510  1.0000
  H   H39       1.0  0.36450  0.98080  0.11510  1.0000
  H   H40       1.0  0.63550  0.01920  0.61510  1.0000
  C   C21       1.0  0.81400  0.12220  0.17140  1.0000
  C   C22       1.0  0.18600  0.87780  0.67140  1.0000
  C   C23       1.0  0.31400  0.87780  0.17140  1.0000
  C   C24       1.0  0.68600  0.12220  0.67140  1.0000
  C   C25       1.0  0.63720  0.39780  0.02280  1.0000
  C   C26       1.0  0.36280  0.60220  0.52280  1.0000
  C   C27       1.0  0.13720  0.60220  0.02280  1.0000
  C   C28       1.0  0.86280  0.39780  0.52280  1.0000
  C   C29       1.0  0.54770  0.36350  0.02180  1.0000
  C   C30       1.0  0.45230  0.63650  0.52180  1.0000
  C   C31       1.0  0.04770  0.63650  0.02180  1.0000
  C   C32       1.0  0.95230  0.36350  0.52180  1.0000
  C   C33       1.0  0.64310  0.45600  0.95190  1.0000
  C   C34       1.0  0.35690  0.54400  0.45190  1.0000
  C   C35       1.0  0.14310  0.54400  0.95190  1.0000
  C   C36       1.0  0.85690  0.45600  0.45190  1.0000
  H   H41       1.0  0.59770  0.49630  0.94970  1.0000
  H   H42       1.0  0.40230  0.50370  0.44970  1.0000
  H   H43       1.0  0.09770  0.50370  0.94970  1.0000
  H   H44       1.0  0.90230  0.49630  0.44970  1.0000
  H   H45       1.0  0.64180  0.41870  0.90810  1.0000
  H   H46       1.0  0.35820  0.58130  0.40810  1.0000
  H   H47       1.0  0.14180  0.58130  0.90810  1.0000
  H   H48       1.0  0.85820  0.41870  0.40810  1.0000
  C   C37       1.0  0.72550  0.51090  0.95390  1.0000
  C   C38       1.0  0.27450  0.48910  0.45390  1.0000
  C   C39       1.0  0.22550  0.48910  0.95390  1.0000
  C   C40       1.0  0.77450  0.51090  0.45390  1.0000
  C   C41       1.0  0.65160  0.44970  0.09300  1.0000
  C   C42       1.0  0.34840  0.55030  0.59300  1.0000
  C   C43       1.0  0.15160  0.55030  0.09300  1.0000
  C   C44       1.0  0.84840  0.44970  0.59300  1.0000
  H   H49       1.0  0.60910  0.49310  0.09890  1.0000
  H   H50       1.0  0.39090  0.50690  0.59890  1.0000
  H   H51       1.0  0.10910  0.50690  0.09890  1.0000
  H   H52       1.0  0.89090  0.49310  0.59890  1.0000
  H   H53       1.0  0.70230  0.48130  0.08880  1.0000
  H   H54       1.0  0.29770  0.51870  0.58880  1.0000
  H   H55       1.0  0.20230  0.51870  0.08880  1.0000
  H   H56       1.0  0.79770  0.48130  0.58880  1.0000
  C   C45       1.0  0.65420  0.39080  0.16150  1.0000
  C   C46       1.0  0.34580  0.60920  0.66150  1.0000
  C   C47       1.0  0.15420  0.60920  0.16150  1.0000
  C   C48       1.0  0.84580  0.39080  0.66150  1.0000
