data_image0
_chemical_formula_structural       Yb16O64H16O40N24C8H8C24H8C4H4C48H8C24H8C8H8C16H8C8H8C8H8C40H8O8C8
_chemical_formula_sum              "Yb16 O112 H92 N24 C196"
_cell_length_a       22.594
_cell_length_b       14.3117
_cell_length_c       24.5365
_cell_angle_alpha    90
_cell_angle_beta     99.5912
_cell_angle_gamma    90

_space_group_name_H-M_alt    "P 1"
_space_group_IT_number       1

loop_
  _space_group_symop_operation_xyz
  'x, y, z'

loop_
  _atom_site_type_symbol
  _atom_site_label
  _atom_site_symmetry_multiplicity
  _atom_site_fract_x
  _atom_site_fract_y
  _atom_site_fract_z
  _atom_site_occupancy
  Yb  Yb1       1.0  0.24291  0.74302  0.17053  1.0000
  Yb  Yb2       1.0  0.75709  0.74302  0.32947  1.0000
  Yb  Yb3       1.0  0.74291  0.24302  0.17053  1.0000
  Yb  Yb4       1.0  0.25709  0.24302  0.32947  1.0000
  Yb  Yb5       1.0  0.75709  0.25698  0.82947  1.0000
  Yb  Yb6       1.0  0.24291  0.25698  0.67053  1.0000
  Yb  Yb7       1.0  0.25709  0.75698  0.82947  1.0000
  Yb  Yb8       1.0  0.74291  0.75698  0.67053  1.0000
  Yb  Yb9       1.0  0.14760  0.48156  0.25124  1.0000
  Yb  Yb10      1.0  0.85240  0.48156  0.24876  1.0000
  Yb  Yb11      1.0  0.64760  0.98156  0.25124  1.0000
  Yb  Yb12      1.0  0.35240  0.98156  0.24876  1.0000
  Yb  Yb13      1.0  0.85240  0.51844  0.74876  1.0000
  Yb  Yb14      1.0  0.14760  0.51844  0.75124  1.0000
  Yb  Yb15      1.0  0.35240  0.01844  0.74876  1.0000
  Yb  Yb16      1.0  0.64760  0.01844  0.75124  1.0000
  O   O1        1.0  0.27490  0.59890  0.16680  1.0000
  O   O2        1.0  0.72510  0.59890  0.33320  1.0000
  O   O3        1.0  0.77490  0.09890  0.16680  1.0000
  O   O4        1.0  0.22510  0.09890  0.33320  1.0000
  O   O5        1.0  0.72510  0.40110  0.83320  1.0000
  O   O6        1.0  0.27490  0.40110  0.66680  1.0000
  O   O7        1.0  0.22510  0.90110  0.83320  1.0000
  O   O8        1.0  0.77490  0.90110  0.66680  1.0000
  O   O9        1.0  0.69350  0.79650  0.25270  1.0000
  O   O10       1.0  0.30650  0.79650  0.24730  1.0000
  O   O11       1.0  0.19350  0.29650  0.25270  1.0000
  O   O12       1.0  0.80650  0.29650  0.24730  1.0000
  O   O13       1.0  0.30650  0.20350  0.74730  1.0000
  O   O14       1.0  0.69350  0.20350  0.75270  1.0000
  O   O15       1.0  0.80650  0.70350  0.74730  1.0000
  O   O16       1.0  0.19350  0.70350  0.75270  1.0000
  O   O17       1.0  0.15420  0.31470  0.61850  1.0000
  O   O18       1.0  0.84580  0.31470  0.88150  1.0000
  O   O19       1.0  0.65420  0.81470  0.61850  1.0000
  O   O20       1.0  0.34580  0.81470  0.88150  1.0000
  O   O21       1.0  0.84580  0.68530  0.38150  1.0000
  O   O22       1.0  0.15420  0.68530  0.11850  1.0000
  O   O23       1.0  0.34580  0.18530  0.38150  1.0000
  O   O24       1.0  0.65420  0.18530  0.11850  1.0000
  O   O25       1.0  0.36730  0.12870  0.21190  1.0000
  O   O26       1.0  0.63270  0.12870  0.28810  1.0000
  O   O27       1.0  0.86730  0.62870  0.21190  1.0000
  O   O28       1.0  0.13270  0.62870  0.28810  1.0000
  O   O29       1.0  0.63270  0.87130  0.78810  1.0000
  O   O30       1.0  0.36730  0.87130  0.71190  1.0000
  O   O31       1.0  0.13270  0.37130  0.78810  1.0000
  O   O32       1.0  0.86730  0.37130  0.71190  1.0000
  O   O33       1.0  0.04930  0.49690  0.25510  1.0000
  O   O34       1.0  0.95070  0.49690  0.24490  1.0000
  O   O35       1.0  0.54930  0.99690  0.25510  1.0000
  O   O36       1.0  0.45070  0.99690  0.24490  1.0000
  O   O37       1.0  0.95070  0.50310  0.74490  1.0000
  O   O38       1.0  0.04930  0.50310  0.75510  1.0000
  O   O39       1.0  0.45070  0.00310  0.74490  1.0000
  O   O40       1.0  0.54930  0.00310  0.75510  1.0000
  O   O41       1.0  0.69660  0.37960  0.16740  1.0000
  O   O42       1.0  0.30340  0.37960  0.33260  1.0000
  O   O43       1.0  0.19660  0.87960  0.16740  1.0000
  O   O44       1.0  0.80340  0.87960  0.33260  1.0000
  O   O45       1.0  0.30340  0.62040  0.83260  1.0000
  O   O46       1.0  0.69660  0.62040  0.66740  1.0000
  O   O47       1.0  0.80340  0.12040  0.83260  1.0000
  O   O48       1.0  0.19660  0.12040  0.66740  1.0000
  O   O49       1.0  0.17410  0.28230  0.36160  1.0000
  O   O50       1.0  0.82590  0.28230  0.13840  1.0000
  O   O51       1.0  0.67410  0.78230  0.36160  1.0000
  O   O52       1.0  0.32590  0.78230  0.13840  1.0000
  O   O53       1.0  0.82590  0.71770  0.63840  1.0000
  O   O54       1.0  0.17410  0.71770  0.86160  1.0000
  O   O55       1.0  0.32590  0.21770  0.63840  1.0000
  O   O56       1.0  0.67410  0.21770  0.86160  1.0000
  O   O57       1.0  0.09950  0.55090  0.17120  1.0000
  O   O58       1.0  0.90050  0.55090  0.32880  1.0000
  O   O59       1.0  0.59950  0.05090  0.17120  1.0000
  O   O60       1.0  0.40050  0.05090  0.32880  1.0000
  O   O61       1.0  0.90050  0.44910  0.82880  1.0000
  O   O62       1.0  0.09950  0.44910  0.67120  1.0000
  O   O63       1.0  0.40050  0.94910  0.82880  1.0000
  O   O64       1.0  0.59950  0.94910  0.67120  1.0000
  H   H1        1.0  0.09590  0.51180  0.14420  1.0000
  H   H2        1.0  0.90410  0.51180  0.35580  1.0000
  H   H3        1.0  0.59590  0.01180  0.14420  1.0000
  H   H4        1.0  0.40410  0.01180  0.35580  1.0000
  H   H5        1.0  0.90410  0.48820  0.85580  1.0000
  H   H6        1.0  0.09590  0.48820  0.64420  1.0000
  H   H7        1.0  0.40410  0.98820  0.85580  1.0000
  H   H8        1.0  0.59590  0.98820  0.64420  1.0000
  H   H9        1.0  0.11980  0.59840  0.16320  1.0000
  H   H10       1.0  0.88020  0.59840  0.33680  1.0000
  H   H11       1.0  0.61980  0.09840  0.16320  1.0000
  H   H12       1.0  0.38020  0.09840  0.33680  1.0000
  H   H13       1.0  0.88020  0.40160  0.83680  1.0000
  H   H14       1.0  0.11980  0.40160  0.66320  1.0000
  H   H15       1.0  0.38020  0.90160  0.83680  1.0000
  H   H16       1.0  0.61980  0.90160  0.66320  1.0000
  O   O65       1.0  0.76090  0.49530  0.19420  1.0000
  O   O66       1.0  0.23910  0.49530  0.30580  1.0000
  O   O67       1.0  0.26090  0.99530  0.19420  1.0000
  O   O68       1.0  0.73910  0.99530  0.30580  1.0000
  O   O69       1.0  0.23910  0.50470  0.80580  1.0000
  O   O70       1.0  0.76090  0.50470  0.69420  1.0000
  O   O71       1.0  0.73910  0.00470  0.80580  1.0000
  O   O72       1.0  0.26090  0.00470  0.69420  1.0000
  O   O73       1.0  0.21610  0.48650  0.19170  1.0000
  O   O74       1.0  0.78390  0.48650  0.30830  1.0000
  O   O75       1.0  0.71610  0.98650  0.19170  1.0000
  O   O76       1.0  0.28390  0.98650  0.30830  1.0000
  O   O77       1.0  0.78390  0.51350  0.80830  1.0000
  O   O78       1.0  0.21610  0.51350  0.69170  1.0000
  O   O79       1.0  0.28390  0.01350  0.80830  1.0000
  O   O80       1.0  0.71610  0.01350  0.69170  1.0000
  O   O81       1.0  0.30630  0.19130  0.26320  1.0000
  O   O82       1.0  0.69370  0.19130  0.23680  1.0000
  O   O83       1.0  0.80630  0.69130  0.26320  1.0000
  O   O84       1.0  0.19370  0.69130  0.23680  1.0000
  O   O85       1.0  0.69370  0.80870  0.73680  1.0000
  O   O86       1.0  0.30630  0.80870  0.76320  1.0000
  O   O87       1.0  0.19370  0.30870  0.73680  1.0000
  O   O88       1.0  0.80630  0.30870  0.76320  1.0000
  O   O89       1.0  0.13280  0.41880  0.33260  1.0000
  O   O90       1.0  0.86720  0.41880  0.16740  1.0000
  O   O91       1.0  0.63280  0.91880  0.33260  1.0000
  O   O92       1.0  0.36720  0.91880  0.16740  1.0000
  O   O93       1.0  0.86720  0.58120  0.66740  1.0000
  O   O94       1.0  0.13280  0.58120  0.83260  1.0000
  O   O95       1.0  0.36720  0.08120  0.66740  1.0000
  O   O96       1.0  0.63280  0.08120  0.83260  1.0000
  O   O97       1.0  0.21850  0.25210  0.57200  1.0000
  O   O98       1.0  0.78150  0.25210  0.92800  1.0000
  O   O99       1.0  0.71850  0.75210  0.57200  1.0000
  O   O100      1.0  0.28150  0.75210  0.92800  1.0000
  O   O101      1.0  0.78150  0.74790  0.42800  1.0000
  O   O102      1.0  0.21850  0.74790  0.07200  1.0000
  O   O103      1.0  0.28150  0.24790  0.42800  1.0000
  O   O104      1.0  0.71850  0.24790  0.07200  1.0000
  N   N1        1.0  0.49130  0.53020  0.18460  1.0000
  N   N2        1.0  0.50870  0.53020  0.31540  1.0000
  N   N3        1.0  0.99130  0.03020  0.18460  1.0000
  N   N4        1.0  0.00870  0.03020  0.31540  1.0000
  N   N5        1.0  0.50870  0.46980  0.81540  1.0000
  N   N6        1.0  0.49130  0.46980  0.68460  1.0000
  N   N7        1.0  0.00870  0.96980  0.81540  1.0000
  N   N8        1.0  0.99130  0.96980  0.68460  1.0000
  N   N9        1.0  0.00650  0.49510  0.47650  1.0000
  N   N10       1.0  0.99350  0.49510  0.02350  1.0000
  N   N11       1.0  0.50650  0.99510  0.47650  1.0000
  N   N12       1.0  0.49350  0.99510  0.02350  1.0000
  N   N13       1.0  0.99350  0.50490  0.52350  1.0000
  N   N14       1.0  0.00650  0.50490  0.97650  1.0000
  N   N15       1.0  0.49350  0.00490  0.52350  1.0000
  N   N16       1.0  0.50650  0.00490  0.97650  1.0000
  N   N17       1.0  0.48280  0.44340  0.18660  1.0000
  N   N18       1.0  0.51720  0.44340  0.31340  1.0000
  N   N19       1.0  0.98280  0.94340  0.18660  1.0000
  N   N20       1.0  0.01720  0.94340  0.31340  1.0000
  N   N21       1.0  0.51720  0.55660  0.81340  1.0000
  N   N22       1.0  0.48280  0.55660  0.68660  1.0000
  N   N23       1.0  0.01720  0.05660  0.81340  1.0000
  N   N24       1.0  0.98280  0.05660  0.68660  1.0000
  C   C1        1.0  0.07610  0.42380  0.42560  1.0000
  C   C2        1.0  0.92390  0.42380  0.07440  1.0000
  C   C3        1.0  0.57610  0.92380  0.42560  1.0000
  C   C4        1.0  0.42390  0.92380  0.07440  1.0000
  C   C5        1.0  0.92390  0.57620  0.57440  1.0000
  C   C6        1.0  0.07610  0.57620  0.92560  1.0000
  C   C7        1.0  0.42390  0.07620  0.57440  1.0000
  C   C8        1.0  0.57610  0.07620  0.92560  1.0000
  H   H17       1.0  0.05570  0.45310  0.39420  1.0000
  H   H18       1.0  0.94430  0.45310  0.10580  1.0000
  H   H19       1.0  0.55570  0.95310  0.39420  1.0000
  H   H20       1.0  0.44430  0.95310  0.10580  1.0000
  H   H21       1.0  0.94430  0.54690  0.60580  1.0000
  H   H22       1.0  0.05570  0.54690  0.89420  1.0000
  H   H23       1.0  0.44430  0.04690  0.60580  1.0000
  H   H24       1.0  0.55570  0.04690  0.89420  1.0000
  C   C9        1.0  0.14610  0.35540  0.36780  1.0000
  C   C10       1.0  0.85390  0.35540  0.13220  1.0000
  C   C11       1.0  0.64610  0.85540  0.36780  1.0000
  C   C12       1.0  0.35390  0.85540  0.13220  1.0000
  C   C13       1.0  0.85390  0.64460  0.63220  1.0000
  C   C14       1.0  0.14610  0.64460  0.86780  1.0000
  C   C15       1.0  0.35390  0.14460  0.63220  1.0000
  C   C16       1.0  0.64610  0.14460  0.86780  1.0000
  C   C17       1.0  0.26480  0.51550  0.18060  1.0000
  C   C18       1.0  0.73520  0.51550  0.31940  1.0000
  C   C19       1.0  0.76480  0.01550  0.18060  1.0000
  C   C20       1.0  0.23520  0.01550  0.31940  1.0000
  C   C21       1.0  0.73520  0.48450  0.81940  1.0000
  C   C22       1.0  0.26480  0.48450  0.68060  1.0000
  C   C23       1.0  0.23520  0.98450  0.81940  1.0000
  C   C24       1.0  0.76480  0.98450  0.68060  1.0000
  C   C25       1.0  0.08750  0.39380  0.52390  1.0000
  C   C26       1.0  0.91250  0.39380  0.97610  1.0000
  C   C27       1.0  0.58750  0.89380  0.52390  1.0000
  C   C28       1.0  0.41250  0.89380  0.97610  1.0000
  C   C29       1.0  0.91250  0.60620  0.47610  1.0000
  C   C30       1.0  0.08750  0.60620  0.02390  1.0000
  C   C31       1.0  0.41250  0.10620  0.47610  1.0000
  C   C32       1.0  0.58750  0.10620  0.02390  1.0000
  H   H25       1.0  0.07410  0.40200  0.55750  1.0000
  H   H26       1.0  0.92590  0.40200  0.94250  1.0000
  H   H27       1.0  0.57410  0.90200  0.55750  1.0000
  H   H28       1.0  0.42590  0.90200  0.94250  1.0000
  H   H29       1.0  0.92590  0.59800  0.44250  1.0000
  H   H30       1.0  0.07410  0.59800  0.05750  1.0000
  H   H31       1.0  0.42590  0.09800  0.44250  1.0000
  H   H32       1.0  0.57410  0.09800  0.05750  1.0000
  C   C33       1.0  0.00000  0.45540  0.25000  1.0000
  C   C34       1.0  0.50000  0.95540  0.25000  1.0000
  C   C35       1.0  0.00000  0.54460  0.75000  1.0000
  C   C36       1.0  0.50000  0.04460  0.75000  1.0000
  H   H33       1.0  0.00000  0.39040  0.25000  1.0000
  H   H34       1.0  0.50000  0.89040  0.25000  1.0000
  H   H35       1.0  0.00000  0.60960  0.75000  1.0000
  H   H36       1.0  0.50000  0.10960  0.75000  1.0000
  C   C37       1.0  0.34320  0.19910  0.22990  1.0000
  C   C38       1.0  0.65680  0.19910  0.27010  1.0000
  C   C39       1.0  0.84320  0.69910  0.22990  1.0000
  C   C40       1.0  0.15680  0.69910  0.27010  1.0000
  C   C41       1.0  0.65680  0.80090  0.77010  1.0000
  C   C42       1.0  0.34320  0.80090  0.72990  1.0000
  C   C43       1.0  0.15680  0.30090  0.77010  1.0000
  C   C44       1.0  0.84320  0.30090  0.72990  1.0000
  C   C45       1.0  0.12470  0.36790  0.42240  1.0000
  C   C46       1.0  0.87530  0.36790  0.07760  1.0000
  C   C47       1.0  0.62470  0.86790  0.42240  1.0000
  C   C48       1.0  0.37530  0.86790  0.07760  1.0000
  C   C49       1.0  0.87530  0.63210  0.57760  1.0000
  C   C50       1.0  0.12470  0.63210  0.92240  1.0000
  C   C51       1.0  0.37530  0.13210  0.57760  1.0000
  C   C52       1.0  0.62470  0.13210  0.92240  1.0000
  C   C53       1.0  0.70900  0.46310  0.18200  1.0000
  C   C54       1.0  0.29100  0.46310  0.31800  1.0000
  C   C55       1.0  0.20900  0.96310  0.18200  1.0000
  C   C56       1.0  0.79100  0.96310  0.31800  1.0000
  C   C57       1.0  0.29100  0.53690  0.81800  1.0000
  C   C58       1.0  0.70900  0.53690  0.68200  1.0000
  C   C59       1.0  0.79100  0.03690  0.81800  1.0000
  C   C60       1.0  0.20900  0.03690  0.68200  1.0000
  C   C61       1.0  0.17160  0.29820  0.57280  1.0000
  C   C62       1.0  0.82840  0.29820  0.92720  1.0000
  C   C63       1.0  0.67160  0.79820  0.57280  1.0000
  C   C64       1.0  0.32840  0.79820  0.92720  1.0000
  C   C65       1.0  0.82840  0.70180  0.42720  1.0000
  C   C66       1.0  0.17160  0.70180  0.07280  1.0000
  C   C67       1.0  0.32840  0.20180  0.42720  1.0000
  C   C68       1.0  0.67160  0.20180  0.07280  1.0000
  C   C69       1.0  0.55290  0.55670  0.18710  1.0000
  C   C70       1.0  0.44710  0.55670  0.31290  1.0000
  C   C71       1.0  0.05290  0.05670  0.18710  1.0000
  C   C72       1.0  0.94710  0.05670  0.31290  1.0000
  C   C73       1.0  0.44710  0.44330  0.81290  1.0000
  C   C74       1.0  0.55290  0.44330  0.68710  1.0000
  C   C75       1.0  0.94710  0.94330  0.81290  1.0000
  C   C76       1.0  0.05290  0.94330  0.68710  1.0000
  C   C77       1.0  0.15570  0.32450  0.46960  1.0000
  C   C78       1.0  0.84430  0.32450  0.03040  1.0000
  C   C79       1.0  0.65570  0.82450  0.46960  1.0000
  C   C80       1.0  0.34430  0.82450  0.03040  1.0000
  C   C81       1.0  0.84430  0.67550  0.53040  1.0000
  C   C82       1.0  0.15570  0.67550  0.96960  1.0000
  C   C83       1.0  0.34430  0.17550  0.53040  1.0000
  C   C84       1.0  0.65570  0.17550  0.96960  1.0000
  H   H37       1.0  0.18830  0.28600  0.46700  1.0000
  H   H38       1.0  0.81170  0.28600  0.03300  1.0000
  H   H39       1.0  0.68830  0.78600  0.46700  1.0000
  H   H40       1.0  0.31170  0.78600  0.03300  1.0000
  H   H41       1.0  0.81170  0.71400  0.53300  1.0000
  H   H42       1.0  0.18830  0.71400  0.96700  1.0000
  H   H43       1.0  0.31170  0.21400  0.53300  1.0000
  H   H44       1.0  0.68830  0.21400  0.96700  1.0000
  C   C85       1.0  0.13750  0.33910  0.52100  1.0000
  C   C86       1.0  0.86250  0.33910  0.97900  1.0000
  C   C87       1.0  0.63750  0.83910  0.52100  1.0000
  C   C88       1.0  0.36250  0.83910  0.97900  1.0000
  C   C89       1.0  0.86250  0.66090  0.47900  1.0000
  C   C90       1.0  0.13750  0.66090  0.02100  1.0000
  C   C91       1.0  0.36250  0.16090  0.47900  1.0000
  C   C92       1.0  0.63750  0.16090  0.02100  1.0000
  C   C93       1.0  0.62550  0.68140  0.20820  1.0000
  C   C94       1.0  0.37450  0.68140  0.29180  1.0000
  C   C95       1.0  0.12550  0.18140  0.20820  1.0000
  C   C96       1.0  0.87450  0.18140  0.29180  1.0000
  C   C97       1.0  0.37450  0.31860  0.79180  1.0000
  C   C98       1.0  0.62550  0.31860  0.70820  1.0000
  C   C99       1.0  0.87450  0.81860  0.79180  1.0000
  C   C100      1.0  0.12550  0.81860  0.70820  1.0000
  C   C101      1.0  0.59890  0.49470  0.17960  1.0000
  C   C102      1.0  0.40110  0.49470  0.32040  1.0000
  C   C103      1.0  0.09890  0.99470  0.17960  1.0000
  C   C104      1.0  0.90110  0.99470  0.32040  1.0000
  C   C105      1.0  0.40110  0.50530  0.82040  1.0000
  C   C106      1.0  0.59890  0.50530  0.67960  1.0000
  C   C107      1.0  0.90110  0.00530  0.82040  1.0000
  C   C108      1.0  0.09890  0.00530  0.67960  1.0000
  H   H45       1.0  0.59020  0.43260  0.17020  1.0000
  H   H46       1.0  0.40980  0.43260  0.32980  1.0000
  H   H47       1.0  0.09020  0.93260  0.17020  1.0000
  H   H48       1.0  0.90980  0.93260  0.32980  1.0000
  H   H49       1.0  0.40980  0.56740  0.82980  1.0000
  H   H50       1.0  0.59020  0.56740  0.67020  1.0000
  H   H51       1.0  0.90980  0.06740  0.82980  1.0000
  H   H52       1.0  0.09020  0.06740  0.67020  1.0000
  C   C109      1.0  0.41330  0.32410  0.20320  1.0000
  C   C110      1.0  0.58670  0.32410  0.29680  1.0000
  C   C111      1.0  0.91330  0.82410  0.20320  1.0000
  C   C112      1.0  0.08670  0.82410  0.29680  1.0000
  C   C113      1.0  0.58670  0.67590  0.79680  1.0000
  C   C114      1.0  0.41330  0.67590  0.70320  1.0000
  C   C115      1.0  0.08670  0.17590  0.79680  1.0000
  C   C116      1.0  0.91330  0.17590  0.70320  1.0000
  H   H53       1.0  0.44520  0.28220  0.20790  1.0000
  H   H54       1.0  0.55480  0.28220  0.29210  1.0000
  H   H55       1.0  0.94520  0.78220  0.20790  1.0000
  H   H56       1.0  0.05480  0.78220  0.29210  1.0000
  H   H57       1.0  0.55480  0.71780  0.79210  1.0000
  H   H58       1.0  0.44520  0.71780  0.70790  1.0000
  H   H59       1.0  0.05480  0.21780  0.79210  1.0000
  H   H60       1.0  0.94520  0.21780  0.70790  1.0000
  C   C117      1.0  0.05770  0.43600  0.47630  1.0000
  C   C118      1.0  0.94230  0.43600  0.02370  1.0000
  C   C119      1.0  0.55770  0.93600  0.47630  1.0000
  C   C120      1.0  0.44230  0.93600  0.02370  1.0000
  C   C121      1.0  0.94230  0.56400  0.52370  1.0000
  C   C122      1.0  0.05770  0.56400  0.97630  1.0000
  C   C123      1.0  0.44230  0.06400  0.52370  1.0000
  C   C124      1.0  0.55770  0.06400  0.97630  1.0000
  C   C125      1.0  0.56590  0.65100  0.20000  1.0000
  C   C126      1.0  0.43410  0.65100  0.30000  1.0000
  C   C127      1.0  0.06590  0.15100  0.20000  1.0000
  C   C128      1.0  0.93410  0.15100  0.30000  1.0000
  C   C129      1.0  0.43410  0.34900  0.80000  1.0000
  C   C130      1.0  0.56590  0.34900  0.70000  1.0000
  C   C131      1.0  0.93410  0.84900  0.80000  1.0000
  C   C132      1.0  0.06590  0.84900  0.70000  1.0000
  H   H61       1.0  0.53520  0.69280  0.20320  1.0000
  H   H62       1.0  0.46480  0.69280  0.29680  1.0000
  H   H63       1.0  0.03520  0.19280  0.20320  1.0000
  H   H64       1.0  0.96480  0.19280  0.29680  1.0000
  H   H65       1.0  0.46480  0.30720  0.79680  1.0000
  H   H66       1.0  0.53520  0.30720  0.70320  1.0000
  H   H67       1.0  0.96480  0.80720  0.79680  1.0000
  H   H68       1.0  0.03520  0.80720  0.70320  1.0000
  C   C133      1.0  0.30860  0.35740  0.20170  1.0000
  C   C134      1.0  0.69140  0.35740  0.29830  1.0000
  C   C135      1.0  0.80860  0.85740  0.20170  1.0000
  C   C136      1.0  0.19140  0.85740  0.29830  1.0000
  C   C137      1.0  0.69140  0.64260  0.79830  1.0000
  C   C138      1.0  0.30860  0.64260  0.70170  1.0000
  C   C139      1.0  0.19140  0.14260  0.79830  1.0000
  C   C140      1.0  0.80860  0.14260  0.70170  1.0000
  H   H69       1.0  0.27060  0.33760  0.20670  1.0000
  H   H70       1.0  0.72940  0.33760  0.29330  1.0000
  H   H71       1.0  0.77060  0.83760  0.20670  1.0000
  H   H72       1.0  0.22940  0.83760  0.29330  1.0000
  H   H73       1.0  0.72940  0.66240  0.79330  1.0000
  H   H74       1.0  0.27060  0.66240  0.70670  1.0000
  H   H75       1.0  0.22940  0.16240  0.79330  1.0000
  H   H76       1.0  0.77060  0.16240  0.70670  1.0000
  C   C141      1.0  0.37390  0.47980  0.17960  1.0000
  C   C142      1.0  0.62610  0.47980  0.32040  1.0000
  C   C143      1.0  0.87390  0.97980  0.17960  1.0000
  C   C144      1.0  0.12610  0.97980  0.32040  1.0000
  C   C145      1.0  0.62610  0.52020  0.82040  1.0000
  C   C146      1.0  0.37390  0.52020  0.67960  1.0000
  C   C147      1.0  0.12610  0.02020  0.82040  1.0000
  C   C148      1.0  0.87390  0.02020  0.67960  1.0000
  H   H77       1.0  0.38000  0.54120  0.16940  1.0000
  H   H78       1.0  0.62000  0.54120  0.33060  1.0000
  H   H79       1.0  0.88000  0.04120  0.16940  1.0000
  H   H80       1.0  0.12000  0.04120  0.33060  1.0000
  H   H81       1.0  0.62000  0.45880  0.83060  1.0000
  H   H82       1.0  0.38000  0.45880  0.66940  1.0000
  H   H83       1.0  0.12000  0.95880  0.83060  1.0000
  H   H84       1.0  0.88000  0.95880  0.66940  1.0000
  C   C149      1.0  0.31660  0.44960  0.18570  1.0000
  C   C150      1.0  0.68340  0.44960  0.31430  1.0000
  C   C151      1.0  0.81660  0.94960  0.18570  1.0000
  C   C152      1.0  0.18340  0.94960  0.31430  1.0000
  C   C153      1.0  0.68340  0.55040  0.81430  1.0000
  C   C154      1.0  0.31660  0.55040  0.68570  1.0000
  C   C155      1.0  0.18340  0.05040  0.81430  1.0000
  C   C156      1.0  0.81660  0.05040  0.68570  1.0000
  C   C157      1.0  0.65800  0.52720  0.18620  1.0000
  C   C158      1.0  0.34200  0.52720  0.31380  1.0000
  C   C159      1.0  0.15800  0.02720  0.18620  1.0000
  C   C160      1.0  0.84200  0.02720  0.31380  1.0000
  C   C161      1.0  0.34200  0.47280  0.81380  1.0000
  C   C162      1.0  0.65800  0.47280  0.68620  1.0000
  C   C163      1.0  0.84200  0.97280  0.81380  1.0000
  C   C164      1.0  0.15800  0.97280  0.68620  1.0000
  C   C165      1.0  0.42160  0.41750  0.18900  1.0000
  C   C166      1.0  0.57840  0.41750  0.31100  1.0000
  C   C167      1.0  0.92160  0.91750  0.18900  1.0000
  C   C168      1.0  0.07840  0.91750  0.31100  1.0000
  C   C169      1.0  0.57840  0.58250  0.81100  1.0000
  C   C170      1.0  0.42160  0.58250  0.68900  1.0000
  C   C171      1.0  0.07840  0.08250  0.81100  1.0000
  C   C172      1.0  0.92160  0.08250  0.68900  1.0000
  C   C173      1.0  0.35580  0.29550  0.21020  1.0000
  C   C174      1.0  0.64420  0.29550  0.28980  1.0000
  C   C175      1.0  0.85580  0.79550  0.21020  1.0000
  C   C176      1.0  0.14420  0.79550  0.28980  1.0000
  C   C177      1.0  0.64420  0.70450  0.78980  1.0000
  C   C178      1.0  0.35580  0.70450  0.71020  1.0000
  C   C179      1.0  0.14420  0.20450  0.78980  1.0000
  C   C180      1.0  0.85580  0.20450  0.71020  1.0000
  C   C181      1.0  0.67060  0.61980  0.20150  1.0000
  C   C182      1.0  0.32940  0.61980  0.29850  1.0000
  C   C183      1.0  0.17060  0.11980  0.20150  1.0000
  C   C184      1.0  0.82940  0.11980  0.29850  1.0000
  C   C185      1.0  0.32940  0.38020  0.79850  1.0000
  C   C186      1.0  0.67060  0.38020  0.70150  1.0000
  C   C187      1.0  0.82940  0.88020  0.79850  1.0000
  C   C188      1.0  0.17060  0.88020  0.70150  1.0000
  H   H85       1.0  0.71020  0.64030  0.20740  1.0000
  H   H86       1.0  0.28980  0.64030  0.29260  1.0000
  H   H87       1.0  0.21020  0.14030  0.20740  1.0000
  H   H88       1.0  0.78980  0.14030  0.29260  1.0000
  H   H89       1.0  0.28980  0.35970  0.79260  1.0000
  H   H90       1.0  0.71020  0.35970  0.70740  1.0000
  H   H91       1.0  0.78980  0.85970  0.79260  1.0000
  H   H92       1.0  0.21020  0.85970  0.70740  1.0000
  O   O105      1.0  0.60460  0.84440  0.21080  1.0000
  O   O106      1.0  0.39540  0.84440  0.28920  1.0000
  O   O107      1.0  0.10460  0.34440  0.21080  1.0000
  O   O108      1.0  0.89540  0.34440  0.28920  1.0000
  O   O109      1.0  0.39540  0.15560  0.78920  1.0000
  O   O110      1.0  0.60460  0.15560  0.71080  1.0000
  O   O111      1.0  0.89540  0.65560  0.78920  1.0000
  O   O112      1.0  0.10460  0.65560  0.71080  1.0000
  C   C189      1.0  0.64150  0.78010  0.22500  1.0000
  C   C190      1.0  0.35850  0.78010  0.27500  1.0000
  C   C191      1.0  0.14150  0.28010  0.22500  1.0000
  C   C192      1.0  0.85850  0.28010  0.27500  1.0000
  C   C193      1.0  0.35850  0.21990  0.77500  1.0000
  C   C194      1.0  0.64150  0.21990  0.72500  1.0000
  C   C195      1.0  0.85850  0.71990  0.77500  1.0000
  C   C196      1.0  0.14150  0.71990  0.72500  1.0000
