data_image0
_chemical_formula_structural       Cd16P16O24H8O8H8O48H8O16C8H8C16H8C8
_chemical_formula_sum              "Cd16 P16 O96 H40 C32"
_cell_length_a       20.914
_cell_length_b       5.7366
_cell_length_c       21.963
_cell_angle_alpha    90
_cell_angle_beta     93.365
_cell_angle_gamma    90

_space_group_name_H-M_alt    "P 1"
_space_group_IT_number       1

loop_
  _space_group_symop_operation_xyz
  'x, y, z'

loop_
  _atom_site_type_symbol
  _atom_site_label
  _atom_site_symmetry_multiplicity
  _atom_site_fract_x
  _atom_site_fract_y
  _atom_site_fract_z
  _atom_site_occupancy
  Cd  Cd1       1.0  0.81036  0.31122  0.23998  1.0000
  Cd  Cd2       1.0  0.31036  0.81122  0.23998  1.0000
  Cd  Cd3       1.0  0.18964  0.31122  0.26002  1.0000
  Cd  Cd4       1.0  0.68964  0.81122  0.26002  1.0000
  Cd  Cd5       1.0  0.18964  0.68878  0.76002  1.0000
  Cd  Cd6       1.0  0.68964  0.18878  0.76002  1.0000
  Cd  Cd7       1.0  0.81036  0.68878  0.73998  1.0000
  Cd  Cd8       1.0  0.31036  0.18878  0.73998  1.0000
  Cd  Cd9       1.0  0.00010  0.80129  0.06264  1.0000
  Cd  Cd10      1.0  0.50010  0.30129  0.06264  1.0000
  Cd  Cd11      1.0  0.99990  0.80129  0.43736  1.0000
  Cd  Cd12      1.0  0.49990  0.30129  0.43736  1.0000
  Cd  Cd13      1.0  0.99990  0.19871  0.93736  1.0000
  Cd  Cd14      1.0  0.49990  0.69871  0.93736  1.0000
  Cd  Cd15      1.0  0.00010  0.19871  0.56264  1.0000
  Cd  Cd16      1.0  0.50010  0.69871  0.56264  1.0000
  P   P1        1.0  0.79795  0.80820  0.15813  1.0000
  P   P2        1.0  0.29795  0.30820  0.15813  1.0000
  P   P3        1.0  0.20205  0.80820  0.34187  1.0000
  P   P4        1.0  0.70205  0.30820  0.34187  1.0000
  P   P5        1.0  0.20205  0.19180  0.84187  1.0000
  P   P6        1.0  0.70205  0.69180  0.84187  1.0000
  P   P7        1.0  0.79795  0.19180  0.65813  1.0000
  P   P8        1.0  0.29795  0.69180  0.65813  1.0000
  P   P9        1.0  0.59183  0.20340  0.56579  1.0000
  P   P10       1.0  0.09183  0.70340  0.56579  1.0000
  P   P11       1.0  0.40817  0.20340  0.93421  1.0000
  P   P12       1.0  0.90817  0.70340  0.93421  1.0000
  P   P13       1.0  0.40817  0.79660  0.43421  1.0000
  P   P14       1.0  0.90817  0.29660  0.43421  1.0000
  P   P15       1.0  0.59183  0.79660  0.06579  1.0000
  P   P16       1.0  0.09183  0.29660  0.06579  1.0000
  O   O1        1.0  0.78100  0.06130  0.16320  1.0000
  O   O2        1.0  0.28100  0.56130  0.16320  1.0000
  O   O3        1.0  0.21900  0.06130  0.33680  1.0000
  O   O4        1.0  0.71900  0.56130  0.33680  1.0000
  O   O5        1.0  0.21900  0.93870  0.83680  1.0000
  O   O6        1.0  0.71900  0.43870  0.83680  1.0000
  O   O7        1.0  0.78100  0.93870  0.66320  1.0000
  O   O8        1.0  0.28100  0.43870  0.66320  1.0000
  O   O9        1.0  0.72580  0.16270  0.28960  1.0000
  O   O10       1.0  0.22580  0.66270  0.28960  1.0000
  O   O11       1.0  0.27420  0.16270  0.21040  1.0000
  O   O12       1.0  0.77420  0.66270  0.21040  1.0000
  O   O13       1.0  0.27420  0.83730  0.71040  1.0000
  O   O14       1.0  0.77420  0.33730  0.71040  1.0000
  O   O15       1.0  0.72580  0.83730  0.78960  1.0000
  O   O16       1.0  0.22580  0.33730  0.78960  1.0000
  O   O17       1.0  0.72490  0.21000  0.40480  1.0000
  O   O18       1.0  0.22490  0.71000  0.40480  1.0000
  O   O19       1.0  0.27510  0.21000  0.09520  1.0000
  O   O20       1.0  0.77510  0.71000  0.09520  1.0000
  O   O21       1.0  0.27510  0.79000  0.59520  1.0000
  O   O22       1.0  0.77510  0.29000  0.59520  1.0000
  O   O23       1.0  0.72490  0.79000  0.90480  1.0000
  O   O24       1.0  0.22490  0.29000  0.90480  1.0000
  H   H1        1.0  0.76380  0.22610  0.40990  1.0000
  H   H2        1.0  0.26380  0.72610  0.40990  1.0000
  H   H3        1.0  0.23620  0.22610  0.09010  1.0000
  H   H4        1.0  0.73620  0.72610  0.09010  1.0000
  H   H5        1.0  0.23620  0.77390  0.59010  1.0000
  H   H6        1.0  0.73620  0.27390  0.59010  1.0000
  H   H7        1.0  0.76380  0.77390  0.90990  1.0000
  H   H8        1.0  0.26380  0.27390  0.90990  1.0000
  O   O25       1.0  0.91080  0.94770  0.11850  1.0000
  O   O26       1.0  0.41080  0.44770  0.11850  1.0000
  O   O27       1.0  0.08920  0.94770  0.38150  1.0000
  O   O28       1.0  0.58920  0.44770  0.38150  1.0000
  O   O29       1.0  0.08920  0.05230  0.88150  1.0000
  O   O30       1.0  0.58920  0.55230  0.88150  1.0000
  O   O31       1.0  0.91080  0.05230  0.61850  1.0000
  O   O32       1.0  0.41080  0.55230  0.61850  1.0000
  H   H9        1.0  0.90800  0.06700  0.14400  1.0000
  H   H10       1.0  0.40800  0.56700  0.14400  1.0000
  H   H11       1.0  0.09200  0.06700  0.35600  1.0000
  H   H12       1.0  0.59200  0.56700  0.35600  1.0000
  H   H13       1.0  0.09200  0.93300  0.85600  1.0000
  H   H14       1.0  0.59200  0.43300  0.85600  1.0000
  H   H15       1.0  0.90800  0.93300  0.64400  1.0000
  H   H16       1.0  0.40800  0.43300  0.64400  1.0000
  O   O33       1.0  0.61030  0.86770  0.32770  1.0000
  O   O34       1.0  0.11030  0.36770  0.32770  1.0000
  O   O35       1.0  0.38970  0.86770  0.17230  1.0000
  O   O36       1.0  0.88970  0.36770  0.17230  1.0000
  O   O37       1.0  0.38970  0.13230  0.67230  1.0000
  O   O38       1.0  0.88970  0.63230  0.67230  1.0000
  O   O39       1.0  0.61030  0.13230  0.82770  1.0000
  O   O40       1.0  0.11030  0.63230  0.82770  1.0000
  O   O41       1.0  0.55850  0.00990  0.40330  1.0000
  O   O42       1.0  0.05850  0.50990  0.40330  1.0000
  O   O43       1.0  0.44150  0.00990  0.09670  1.0000
  O   O44       1.0  0.94150  0.50990  0.09670  1.0000
  O   O45       1.0  0.44150  0.99010  0.59670  1.0000
  O   O46       1.0  0.94150  0.49010  0.59670  1.0000
  O   O47       1.0  0.55850  0.99010  0.90330  1.0000
  O   O48       1.0  0.05850  0.49010  0.90330  1.0000
  O   O49       1.0  0.65960  0.28280  0.55770  1.0000
  O   O50       1.0  0.15960  0.78280  0.55770  1.0000
  O   O51       1.0  0.34040  0.28280  0.94230  1.0000
  O   O52       1.0  0.84040  0.78280  0.94230  1.0000
  O   O53       1.0  0.34040  0.71720  0.44230  1.0000
  O   O54       1.0  0.84040  0.21720  0.44230  1.0000
  O   O55       1.0  0.65960  0.71720  0.05770  1.0000
  O   O56       1.0  0.15960  0.21720  0.05770  1.0000
  O   O57       1.0  0.54330  0.36230  0.53200  1.0000
  O   O58       1.0  0.04330  0.86230  0.53200  1.0000
  O   O59       1.0  0.45670  0.36230  0.96800  1.0000
  O   O60       1.0  0.95670  0.86230  0.96800  1.0000
  O   O61       1.0  0.45670  0.63770  0.46800  1.0000
  O   O62       1.0  0.95670  0.13770  0.46800  1.0000
  O   O63       1.0  0.54330  0.63770  0.03200  1.0000
  O   O64       1.0  0.04330  0.13770  0.03200  1.0000
  O   O65       1.0  0.58100  0.95020  0.54820  1.0000
  O   O66       1.0  0.08100  0.45020  0.54820  1.0000
  O   O67       1.0  0.41900  0.95020  0.95180  1.0000
  O   O68       1.0  0.91900  0.45020  0.95180  1.0000
  O   O69       1.0  0.41900  0.04980  0.45180  1.0000
  O   O70       1.0  0.91900  0.54980  0.45180  1.0000
  O   O71       1.0  0.58100  0.04980  0.04820  1.0000
  O   O72       1.0  0.08100  0.54980  0.04820  1.0000
  O   O73       1.0  0.61850  0.94390  0.18010  1.0000
  O   O74       1.0  0.11850  0.44390  0.18010  1.0000
  O   O75       1.0  0.38150  0.94390  0.31990  1.0000
  O   O76       1.0  0.88150  0.44390  0.31990  1.0000
  O   O77       1.0  0.38150  0.05610  0.81990  1.0000
  O   O78       1.0  0.88150  0.55610  0.81990  1.0000
  O   O79       1.0  0.61850  0.05610  0.68010  1.0000
  O   O80       1.0  0.11850  0.55610  0.68010  1.0000
  H   H17       1.0  0.60430  0.07560  0.17420  1.0000
  H   H18       1.0  0.10430  0.57560  0.17420  1.0000
  H   H19       1.0  0.39570  0.07560  0.32580  1.0000
  H   H20       1.0  0.89570  0.57560  0.32580  1.0000
  H   H21       1.0  0.39570  0.92440  0.82580  1.0000
  H   H22       1.0  0.89570  0.42440  0.82580  1.0000
  H   H23       1.0  0.60430  0.92440  0.67420  1.0000
  H   H24       1.0  0.10430  0.42440  0.67420  1.0000
  O   O81       1.0  0.56020  0.36500  0.15290  1.0000
  O   O82       1.0  0.06020  0.86500  0.15290  1.0000
  O   O83       1.0  0.43980  0.36500  0.34710  1.0000
  O   O84       1.0  0.93980  0.86500  0.34710  1.0000
  O   O85       1.0  0.43980  0.63500  0.84710  1.0000
  O   O86       1.0  0.93980  0.13500  0.84710  1.0000
  O   O87       1.0  0.56020  0.63500  0.65290  1.0000
  O   O88       1.0  0.06020  0.13500  0.65290  1.0000
  O   O89       1.0  0.63510  0.51210  0.21590  1.0000
  O   O90       1.0  0.13510  0.01210  0.21590  1.0000
  O   O91       1.0  0.36490  0.51210  0.28410  1.0000
  O   O92       1.0  0.86490  0.01210  0.28410  1.0000
  O   O93       1.0  0.36490  0.48790  0.78410  1.0000
  O   O94       1.0  0.86490  0.98790  0.78410  1.0000
  O   O95       1.0  0.63510  0.48790  0.71590  1.0000
  O   O96       1.0  0.13510  0.98790  0.71590  1.0000
  C   C1        1.0  0.88520  0.78070  0.15800  1.0000
  C   C2        1.0  0.38520  0.28070  0.15800  1.0000
  C   C3        1.0  0.11480  0.78070  0.34200  1.0000
  C   C4        1.0  0.61480  0.28070  0.34200  1.0000
  C   C5        1.0  0.11480  0.21930  0.84200  1.0000
  C   C6        1.0  0.61480  0.71930  0.84200  1.0000
  C   C7        1.0  0.88520  0.21930  0.65800  1.0000
  C   C8        1.0  0.38520  0.71930  0.65800  1.0000
  H   H25       1.0  0.59710  0.31270  0.30050  1.0000
  H   H26       1.0  0.09710  0.81270  0.30050  1.0000
  H   H27       1.0  0.40290  0.31270  0.19950  1.0000
  H   H28       1.0  0.90290  0.81270  0.19950  1.0000
  H   H29       1.0  0.40290  0.68730  0.69950  1.0000
  H   H30       1.0  0.90290  0.18730  0.69950  1.0000
  H   H31       1.0  0.59710  0.68730  0.80050  1.0000
  H   H32       1.0  0.09710  0.18730  0.80050  1.0000
  C   C9        1.0  0.59330  0.03500  0.35970  1.0000
  C   C10       1.0  0.09330  0.53500  0.35970  1.0000
  C   C11       1.0  0.40670  0.03500  0.14030  1.0000
  C   C12       1.0  0.90670  0.53500  0.14030  1.0000
  C   C13       1.0  0.40670  0.96500  0.64030  1.0000
  C   C14       1.0  0.90670  0.46500  0.64030  1.0000
  C   C15       1.0  0.59330  0.96500  0.85970  1.0000
  C   C16       1.0  0.09330  0.46500  0.85970  1.0000
  C   C17       1.0  0.57760  0.77770  0.14800  1.0000
  C   C18       1.0  0.07760  0.27770  0.14800  1.0000
  C   C19       1.0  0.42240  0.77770  0.35200  1.0000
  C   C20       1.0  0.92240  0.27770  0.35200  1.0000
  C   C21       1.0  0.42240  0.22230  0.85200  1.0000
  C   C22       1.0  0.92240  0.72230  0.85200  1.0000
  C   C23       1.0  0.57760  0.22230  0.64800  1.0000
  C   C24       1.0  0.07760  0.72230  0.64800  1.0000
  H   H33       1.0  0.53270  0.81590  0.15420  1.0000
  H   H34       1.0  0.03270  0.31590  0.15420  1.0000
  H   H35       1.0  0.46730  0.81590  0.34580  1.0000
  H   H36       1.0  0.96730  0.31590  0.34580  1.0000
  H   H37       1.0  0.46730  0.18410  0.84580  1.0000
  H   H38       1.0  0.96730  0.68410  0.84580  1.0000
  H   H39       1.0  0.53270  0.18410  0.65420  1.0000
  H   H40       1.0  0.03270  0.68410  0.65420  1.0000
  C   C25       1.0  0.59300  0.53550  0.17450  1.0000
  C   C26       1.0  0.09300  0.03550  0.17450  1.0000
  C   C27       1.0  0.40700  0.53550  0.32550  1.0000
  C   C28       1.0  0.90700  0.03550  0.32550  1.0000
  C   C29       1.0  0.40700  0.46450  0.82550  1.0000
  C   C30       1.0  0.90700  0.96450  0.82550  1.0000
  C   C31       1.0  0.59300  0.46450  0.67450  1.0000
  C   C32       1.0  0.09300  0.96450  0.67450  1.0000
