data_image0
_chemical_formula_structural       CuS2O6H2O6C6H2C4H2C2H2C2O2H4
_chemical_formula_sum              "Cu1 S2 O14 H12 C14"
_cell_length_a       7.322
_cell_length_b       9.411
_cell_length_c       13.67
_cell_angle_alpha    74.117
_cell_angle_beta     84.709
_cell_angle_gamma    80.729

_space_group_name_H-M_alt    "P 1"
_space_group_IT_number       1

loop_
  _space_group_symop_operation_xyz
  'x, y, z'

loop_
  _atom_site_type_symbol
  _atom_site_label
  _atom_site_symmetry_multiplicity
  _atom_site_fract_x
  _atom_site_fract_y
  _atom_site_fract_z
  _atom_site_occupancy
  Cu  Cu1       1.0  0.50000  0.50000  0.00000  1.0000
  S   S1        1.0  0.49792  0.39328  0.75801  1.0000
  S   S2        1.0  0.50208  0.60672  0.24199  1.0000
  O   O1        1.0  0.58764  0.69523  0.95979  1.0000
  O   O2        1.0  0.41236  0.30477  0.04021  1.0000
  O   O3        1.0  0.33240  0.84873  0.90126  1.0000
  O   O4        1.0  0.66760  0.15127  0.09874  1.0000
  O   O5        1.0  0.89510  0.79733  0.94567  1.0000
  O   O6        1.0  0.10490  0.20267  0.05433  1.0000
  H   H1        1.0  0.81900  0.74100  0.96600  1.0000
  H   H2        1.0  0.18100  0.25900  0.03400  1.0000
  O   O7        1.0  0.31060  0.37099  0.74572  1.0000
  O   O8        1.0  0.68940  0.62901  0.25428  1.0000
  O   O9        1.0  0.59700  0.44332  0.66068  1.0000
  O   O10       1.0  0.40300  0.55668  0.33932  1.0000
  O   O11       1.0  0.50330  0.49231  0.82255  1.0000
  O   O12       1.0  0.49670  0.50769  0.17745  1.0000
  C   C1        1.0  0.49810  0.82480  0.91914  1.0000
  C   C2        1.0  0.50190  0.17520  0.08086  1.0000
  C   C3        1.0  0.60830  0.95240  0.89151  1.0000
  C   C4        1.0  0.39170  0.04760  0.10849  1.0000
  C   C5        1.0  0.51830  0.09540  0.85039  1.0000
  C   C6        1.0  0.48170  0.90460  0.14961  1.0000
  H   H3        1.0  0.39040  0.11060  0.84520  1.0000
  H   H4        1.0  0.60960  0.88940  0.15480  1.0000
  C   C7        1.0  0.61570  0.21530  0.81718  1.0000
  C   C8        1.0  0.38430  0.78470  0.18282  1.0000
  C   C9        1.0  0.80610  0.19400  0.82679  1.0000
  C   C10       1.0  0.19390  0.80600  0.17321  1.0000
  H   H5        1.0  0.87180  0.27460  0.80370  1.0000
  H   H6        1.0  0.12820  0.72540  0.19630  1.0000
  C   C11       1.0  0.89780  0.05430  0.87028  1.0000
  C   C12       1.0  0.10220  0.94570  0.12972  1.0000
  H   H7        1.0  0.02490  0.04090  0.87770  1.0000
  H   H8        1.0  0.97510  0.95910  0.12230  1.0000
  C   C13       1.0  0.79950  0.93220  0.90336  1.0000
  C   C14       1.0  0.20050  0.06780  0.09664  1.0000
  O   O13       1.0  0.76350  0.41039  0.01089  1.0000
  O   O14       1.0  0.23650  0.58961  0.98911  1.0000
  H   H9        1.0  0.75900  0.31700  0.03500  1.0000
  H   H10       1.0  0.24100  0.68300  0.96500  1.0000
  H   H11       1.0  0.81100  0.42300  0.96500  1.0000
  H   H12       1.0  0.18900  0.57700  0.03500  1.0000
