data_image0
_chemical_formula_structural       U3O24H4C4H4C2H4C2H4C6H4C2H4C2H4C2
_chemical_formula_sum              "U3 O24 H28 C20"
_cell_length_a       8.4597
_cell_length_b       8.5521
_cell_length_c       18.7028
_cell_angle_alpha    80.543
_cell_angle_beta     82.378
_cell_angle_gamma    83.586

_space_group_name_H-M_alt    "P 1"
_space_group_IT_number       1

loop_
  _space_group_symop_operation_xyz
  'x, y, z'

loop_
  _atom_site_type_symbol
  _atom_site_label
  _atom_site_symmetry_multiplicity
  _atom_site_fract_x
  _atom_site_fract_y
  _atom_site_fract_z
  _atom_site_occupancy
  U   U1        1.0  0.20966  0.72922  0.14663  1.0000
  U   U2        1.0  0.79034  0.27078  0.85337  1.0000
  U   U3        1.0  0.00000  0.00000  0.50000  1.0000
  O   O1        1.0  0.00770  0.69540  0.15440  1.0000
  O   O2        1.0  0.99230  0.30460  0.84560  1.0000
  O   O3        1.0  0.41360  0.76020  0.14050  1.0000
  O   O4        1.0  0.58640  0.23980  0.85950  1.0000
  O   O5        1.0  0.16670  0.85990  0.51210  1.0000
  O   O6        1.0  0.83330  0.14010  0.48790  1.0000
  O   O7        1.0  0.29030  0.45360  0.12310  1.0000
  O   O8        1.0  0.70970  0.54640  0.87690  1.0000
  O   O9        1.0  0.25310  0.63600  0.02930  1.0000
  O   O10       1.0  0.74690  0.36400  0.97070  1.0000
  O   O11       1.0  0.17250  0.94820  0.04730  1.0000
  O   O12       1.0  0.82750  0.05180  0.95270  1.0000
  O   O13       1.0  0.12870  0.01470  0.15600  1.0000
  O   O14       1.0  0.87130  0.98530  0.84400  1.0000
  O   O15       1.0  0.24400  0.53630  0.25890  1.0000
  O   O16       1.0  0.75600  0.46370  0.74110  1.0000
  O   O17       1.0  0.16500  0.77820  0.27790  1.0000
  O   O18       1.0  0.83500  0.22180  0.72210  1.0000
  O   O19       1.0  0.16870  0.21010  0.43630  1.0000
  O   O20       1.0  0.83130  0.78990  0.56370  1.0000
  O   O21       1.0  0.13030  0.19240  0.55380  1.0000
  O   O22       1.0  0.86970  0.80760  0.44620  1.0000
  O   O23       1.0  0.06340  0.00700  0.36800  1.0000
  O   O24       1.0  0.93660  0.99300  0.63200  1.0000
  H   H1        1.0  0.09700  0.08500  0.33800  1.0000
  H   H2        1.0  0.90300  0.91500  0.66200  1.0000
  H   H3        1.0  0.07900  0.92800  0.34500  1.0000
  H   H4        1.0  0.92100  0.07200  0.65500  1.0000
  C   C1        1.0  0.28370  0.49340  0.05450  1.0000
  C   C2        1.0  0.71630  0.50660  0.94550  1.0000
  C   C3        1.0  0.32330  0.35680  0.00900  1.0000
  C   C4        1.0  0.67670  0.64320  0.99100  1.0000
  H   H5        1.0  0.38840  0.39320  0.96390  1.0000
  H   H6        1.0  0.61160  0.60680  0.03610  1.0000
  H   H7        1.0  0.38440  0.26920  0.03590  1.0000
  H   H8        1.0  0.61560  0.73080  0.96410  1.0000
  C   C5        1.0  0.17750  0.30220  0.99240  1.0000
  C   C6        1.0  0.82250  0.69780  0.00760  1.0000
  H   H9        1.0  0.20650  0.23070  0.95660  1.0000
  H   H10       1.0  0.79350  0.76930  0.04340  1.0000
  H   H11       1.0  0.11270  0.39340  0.97020  1.0000
  H   H12       1.0  0.88730  0.60660  0.02980  1.0000
  C   C7        1.0  0.07990  0.22050  0.05460  1.0000
  C   C8        1.0  0.92010  0.77950  0.94540  1.0000
  H   H13       1.0  0.97400  0.22030  0.04020  1.0000
  H   H14       1.0  0.02600  0.77970  0.95980  1.0000
  H   H15       1.0  0.06850  0.28530  0.09330  1.0000
  H   H16       1.0  0.93150  0.71470  0.90670  1.0000
  C   C9        1.0  0.13060  0.05360  0.08730  1.0000
  C   C10       1.0  0.86940  0.94640  0.91270  1.0000
  C   C11       1.0  0.19660  0.63410  0.30260  1.0000
  C   C12       1.0  0.80340  0.36590  0.69740  1.0000
  C   C13       1.0  0.17890  0.57450  0.38340  1.0000
  C   C14       1.0  0.82110  0.42550  0.61660  1.0000
  H   H17       1.0  0.14940  0.66550  0.40880  1.0000
  H   H18       1.0  0.85060  0.33450  0.59120  1.0000
  H   H19       1.0  0.09070  0.50770  0.39450  1.0000
  H   H20       1.0  0.90930  0.49230  0.60550  1.0000
  C   C15       1.0  0.31940  0.48440  0.41270  1.0000
  C   C16       1.0  0.68060  0.51560  0.58730  1.0000
  H   H21       1.0  0.40020  0.55690  0.41180  1.0000
  H   H22       1.0  0.59980  0.44310  0.58820  1.0000
  H   H23       1.0  0.36310  0.40700  0.38110  1.0000
  H   H24       1.0  0.63690  0.59300  0.61890  1.0000
  C   C17       1.0  0.28720  0.40060  0.48750  1.0000
  C   C18       1.0  0.71280  0.59940  0.51250  1.0000
  H   H25       1.0  0.23040  0.47500  0.51800  1.0000
  H   H26       1.0  0.76960  0.52500  0.48200  1.0000
  H   H27       1.0  0.38840  0.36320  0.50630  1.0000
  H   H28       1.0  0.61160  0.63680  0.49370  1.0000
  C   C19       1.0  0.18970  0.26030  0.49290  1.0000
  C   C20       1.0  0.81030  0.73970  0.50710  1.0000
