data_image0
_chemical_formula_structural       U4C16O40
_chemical_formula_sum              "U4 C16 O40"
_cell_length_a       10.6085
_cell_length_b       11.1379
_cell_length_c       14.8039
_cell_angle_alpha    81.355
_cell_angle_beta     70.896
_cell_angle_gamma    77.042

_space_group_name_H-M_alt    "P 1"
_space_group_IT_number       1

loop_
  _space_group_symop_operation_xyz
  'x, y, z'

loop_
  _atom_site_type_symbol
  _atom_site_label
  _atom_site_symmetry_multiplicity
  _atom_site_fract_x
  _atom_site_fract_y
  _atom_site_fract_z
  _atom_site_occupancy
  U   U1        1.0  0.57473  0.85331  0.19501  1.0000
  U   U2        1.0  0.42527  0.14669  0.80499  1.0000
  U   U3        1.0  0.28808  0.42279  0.45920  1.0000
  U   U4        1.0  0.71192  0.57721  0.54080  1.0000
  C   C1        1.0  0.74490  0.74670  0.98330  1.0000
  C   C2        1.0  0.25510  0.25330  0.01670  1.0000
  C   C3        1.0  0.77090  0.87980  0.97200  1.0000
  C   C4        1.0  0.22910  0.12020  0.02800  1.0000
  C   C5        1.0  0.49330  0.58770  0.30640  1.0000
  C   C6        1.0  0.50670  0.41230  0.69360  1.0000
  C   C7        1.0  0.39160  0.68150  0.37380  1.0000
  C   C8        1.0  0.60840  0.31850  0.62620  1.0000
  C   C9        1.0  0.07600  0.29960  0.64070  1.0000
  C   C10       1.0  0.92400  0.70040  0.35930  1.0000
  C   C11       1.0  0.07400  0.42550  0.67370  1.0000
  C   C12       1.0  0.92600  0.57450  0.32630  1.0000
  C   C13       1.0  0.47820  0.10290  0.25350  1.0000
  C   C14       1.0  0.52180  0.89710  0.74650  1.0000
  C   C15       1.0  0.41790  0.23480  0.28140  1.0000
  C   C16       1.0  0.58210  0.76520  0.71860  1.0000
  O   O1        1.0  0.67680  0.71330  0.06810  1.0000
  O   O2        1.0  0.32320  0.28670  0.93190  1.0000
  O   O3        1.0  0.78770  0.68270  0.91530  1.0000
  O   O4        1.0  0.21230  0.31730  0.08470  1.0000
  O   O5        1.0  0.72150  0.93590  0.04780  1.0000
  O   O6        1.0  0.27850  0.06410  0.95220  1.0000
  O   O7        1.0  0.83880  0.92120  0.89420  1.0000
  O   O8        1.0  0.16120  0.07880  0.10580  1.0000
  O   O9        1.0  0.58350  0.62850  0.23980  1.0000
  O   O10       1.0  0.41650  0.37150  0.76020  1.0000
  O   O11       1.0  0.47540  0.47830  0.32480  1.0000
  O   O12       1.0  0.52460  0.52170  0.67520  1.0000
  O   O13       1.0  0.30300  0.64070  0.44290  1.0000
  O   O14       1.0  0.69700  0.35930  0.55710  1.0000
  O   O15       1.0  0.40530  0.79140  0.35360  1.0000
  O   O16       1.0  0.59470  0.20860  0.64640  1.0000
  O   O17       1.0  0.43130  0.87700  0.15440  1.0000
  O   O18       1.0  0.56870  0.12300  0.84560  1.0000
  O   O19       1.0  0.71590  0.82820  0.23810  1.0000
  O   O20       1.0  0.28410  0.17180  0.76190  1.0000
  O   O21       1.0  0.15750  0.27860  0.55630  1.0000
  O   O22       1.0  0.84250  0.72140  0.44370  1.0000
  O   O23       1.0  0.00620  0.22870  0.69360  1.0000
  O   O24       1.0  0.99380  0.77130  0.30640  1.0000
  O   O25       1.0  0.13710  0.49790  0.60710  1.0000
  O   O26       1.0  0.86290  0.50210  0.39290  1.0000
  O   O27       1.0  0.01430  0.44720  0.75720  1.0000
  O   O28       1.0  0.98570  0.55280  0.24280  1.0000
  O   O29       1.0  0.37650  0.24730  0.37150  1.0000
  O   O30       1.0  0.62350  0.75270  0.62850  1.0000
  O   O31       1.0  0.41440  0.31570  0.21650  1.0000
  O   O32       1.0  0.58560  0.68430  0.78350  1.0000
  O   O33       1.0  0.45990  0.01160  0.31400  1.0000
  O   O34       1.0  0.54010  0.98840  0.68600  1.0000
  O   O35       1.0  0.55110  0.08620  0.16980  1.0000
  O   O36       1.0  0.44890  0.91380  0.83020  1.0000
  O   O37       1.0  0.41110  0.37210  0.52100  1.0000
  O   O38       1.0  0.58890  0.62790  0.47900  1.0000
  O   O39       1.0  0.16740  0.47450  0.39680  1.0000
  O   O40       1.0  0.83260  0.52550  0.60320  1.0000
