data_image0
_chemical_formula_structural       Cu3O9H2OH2O8C2HC3HC7HC3HC5OH2
_chemical_formula_sum              "Cu3 O19 H10 C20"
_cell_length_a       7.9985
_cell_length_b       9.7296
_cell_length_c       10.8506
_cell_angle_alpha    84.315
_cell_angle_beta     78.168
_cell_angle_gamma    75.064

_space_group_name_H-M_alt    "P 1"
_space_group_IT_number       1

loop_
  _space_group_symop_operation_xyz
  'x, y, z'

loop_
  _atom_site_type_symbol
  _atom_site_label
  _atom_site_symmetry_multiplicity
  _atom_site_fract_x
  _atom_site_fract_y
  _atom_site_fract_z
  _atom_site_occupancy
  Cu  Cu1       1.0  0.41470  0.68700  0.82400  1.0000
  Cu  Cu2       1.0  0.16130  0.54610  0.87490  1.0000
  Cu  Cu3       1.0  0.80400  0.12820  0.34540  1.0000
  O   O1        1.0  0.42170  0.67100  0.64360  1.0000
  O   O2        1.0  0.20450  0.55150  0.69010  1.0000
  O   O3        1.0  0.55550  0.36080  0.54960  1.0000
  O   O4        1.0  0.64560  0.30730  0.34600  1.0000
  O   O5        1.0  0.15140  0.56400  0.05590  1.0000
  O   O6        1.0  0.37270  0.67500  0.00930  1.0000
  O   O7        1.0  0.97030  0.95160  0.34230  1.0000
  O   O8        1.0  0.02490  0.88030  0.14650  1.0000
  O   O9        1.0  0.74760  0.10780  0.18010  1.0000
  H   H1        1.0  0.63450  0.10640  0.18670  1.0000
  H   H2        1.0  0.81380  0.02670  0.14620  1.0000
  O   O10       1.0  0.81630  0.12520  0.52420  1.0000
  H   H3        1.0  0.82750  0.03730  0.56000  1.0000
  H   H4        1.0  0.71920  0.18110  0.56670  1.0000
  O   O11       1.0  0.75640  0.85920  0.65260  1.0000
  O   O12       1.0  0.57260  0.82980  0.83310  1.0000
  O   O13       1.0  0.99030  0.73090  0.86820  1.0000
  O   O14       1.0  0.20640  0.84970  0.82570  1.0000
  O   O15       1.0  0.37950  0.38800  0.87580  1.0000
  O   O16       1.0  0.59260  0.50140  0.82180  1.0000
  O   O17       1.0  0.00750  0.40290  0.86850  1.0000
  O   O18       1.0  0.81070  0.39430  0.04390  1.0000
  C   C1        1.0  0.41110  0.50320  0.39330  1.0000
  C   C2        1.0  0.37470  0.50900  0.26750  1.0000
  H   H5        1.0  0.42800  0.42810  0.21840  1.0000
  C   C3        1.0  0.26710  0.62450  0.21360  1.0000
  C   C4        1.0  0.16280  0.73020  0.30440  1.0000
  C   C5        1.0  0.18170  0.71840  0.42710  1.0000
  H   H6        1.0  0.10660  0.78630  0.48400  1.0000
  C   C6        1.0  0.30780  0.60970  0.47050  1.0000
  C   C7        1.0  0.31700  0.60930  0.61390  1.0000
  C   C8        1.0  0.54500  0.37940  0.43720  1.0000
  C   C9        1.0  0.26000  0.62760  0.08510  1.0000
  C   C10       1.0  0.04170  0.86010  0.26000  1.0000
  C   C11       1.0  0.83580  0.23830  0.88980  1.0000
  C   C12       1.0  0.95170  0.10590  0.87970  1.0000
  H   H7        1.0  0.06770  0.09560  0.89370  1.0000
  C   C13       1.0  0.90480  0.98620  0.84960  1.0000
  C   C14       1.0  0.74790  0.99880  0.82030  1.0000
  C   C15       1.0  0.62700  0.13530  0.81930  1.0000
  H   H8        1.0  0.51890  0.14420  0.79210  1.0000
  C   C16       1.0  0.66160  0.25250  0.85590  1.0000
  C   C17       1.0  0.68960  0.88070  0.76630  1.0000
  C   C18       1.0  0.04280  0.83920  0.84990  1.0000
  C   C19       1.0  0.53660  0.38800  0.85350  1.0000
  C   C20       1.0  0.88540  0.35610  0.93800  1.0000
  O   O19       1.0  0.99550  0.26900  0.22580  1.0000
  H   H9        1.0  0.05880  0.23320  0.14140  1.0000
  H   H10       1.0  0.09270  0.27710  0.26650  1.0000
