data_image0
_chemical_formula_structural       Mn2O16C8
_chemical_formula_sum              "Mn2 O16 C8"
_cell_length_a       9.7368
_cell_length_b       9.9048
_cell_length_c       14.3865
_cell_angle_alpha    105.882
_cell_angle_beta     99.604
_cell_angle_gamma    110.632

_space_group_name_H-M_alt    "P 1"
_space_group_IT_number       1

loop_
  _space_group_symop_operation_xyz
  'x, y, z'

loop_
  _atom_site_type_symbol
  _atom_site_label
  _atom_site_symmetry_multiplicity
  _atom_site_fract_x
  _atom_site_fract_y
  _atom_site_fract_z
  _atom_site_occupancy
  Mn  Mn1       1.0  0.79036  0.04875  0.10519  1.0000
  Mn  Mn2       1.0  0.20964  0.95125  0.89481  1.0000
  O   O1        1.0  0.81880  0.87240  0.99211  1.0000
  O   O2        1.0  0.18120  0.12760  0.00789  1.0000
  O   O3        1.0  0.67960  0.13130  0.00654  1.0000
  O   O4        1.0  0.32040  0.86870  0.99346  1.0000
  O   O5        1.0  0.44680  0.09700  0.92680  1.0000
  O   O6        1.0  0.55320  0.90300  0.07320  1.0000
  O   O7        1.0  0.98160  0.83460  0.90695  1.0000
  O   O8        1.0  0.01840  0.16540  0.09305  1.0000
  O   O9        1.0  0.81220  0.23940  0.23145  1.0000
  O   O10       1.0  0.18780  0.76060  0.76855  1.0000
  O   O11       1.0  0.85260  0.31980  0.39710  1.0000
  O   O12       1.0  0.14740  0.68020  0.60290  1.0000
  O   O13       1.0  0.86800  0.99470  0.23269  1.0000
  O   O14       1.0  0.13200  0.00530  0.76731  1.0000
  O   O15       1.0  0.94380  0.08830  0.40095  1.0000
  O   O16       1.0  0.05620  0.91170  0.59905  1.0000
  C   C1        1.0  0.94170  0.91420  0.97010  1.0000
  C   C2        1.0  0.05830  0.08580  0.02990  1.0000
  C   C3        1.0  0.53680  0.06590  0.98040  1.0000
  C   C4        1.0  0.46320  0.93410  0.01960  1.0000
  C   C5        1.0  0.84560  0.22830  0.31620  1.0000
  C   C6        1.0  0.15440  0.77170  0.68380  1.0000
  C   C7        1.0  0.88840  0.09060  0.31770  1.0000
  C   C8        1.0  0.11160  0.90940  0.68230  1.0000
