data_image0
_chemical_formula_structural       S8Zn16P8H8P8H8O80C24H8C8H8C16
_chemical_formula_sum              "S8 Zn16 P16 H32 O80 C48"
_cell_length_a       19.5786
_cell_length_b       29.0287
_cell_length_c       9.9053
_cell_angle_alpha    90
_cell_angle_beta     90
_cell_angle_gamma    90

_space_group_name_H-M_alt    "P 1"
_space_group_IT_number       1

loop_
  _space_group_symop_operation_xyz
  'x, y, z'

loop_
  _atom_site_type_symbol
  _atom_site_label
  _atom_site_symmetry_multiplicity
  _atom_site_fract_x
  _atom_site_fract_y
  _atom_site_fract_z
  _atom_site_occupancy
  S   S1        1.0  0.96299  0.48414  0.30537  1.0000
  S   S2        1.0  0.53701  0.01586  0.30537  1.0000
  S   S3        1.0  0.03701  0.98414  0.19463  1.0000
  S   S4        1.0  0.46299  0.51586  0.19463  1.0000
  S   S5        1.0  0.03701  0.51586  0.69463  1.0000
  S   S6        1.0  0.46299  0.98414  0.69463  1.0000
  S   S7        1.0  0.96299  0.01586  0.80537  1.0000
  S   S8        1.0  0.53701  0.48414  0.80537  1.0000
  Zn  Zn1       1.0  0.07183  0.31318  0.21638  1.0000
  Zn  Zn2       1.0  0.42817  0.18682  0.21638  1.0000
  Zn  Zn3       1.0  0.92817  0.81318  0.28362  1.0000
  Zn  Zn4       1.0  0.57183  0.68682  0.28362  1.0000
  Zn  Zn5       1.0  0.92817  0.68682  0.78362  1.0000
  Zn  Zn6       1.0  0.57183  0.81318  0.78362  1.0000
  Zn  Zn7       1.0  0.07183  0.18682  0.71638  1.0000
  Zn  Zn8       1.0  0.42817  0.31318  0.71638  1.0000
  Zn  Zn9       1.0  0.15619  0.14405  0.37053  1.0000
  Zn  Zn10      1.0  0.34381  0.35595  0.37053  1.0000
  Zn  Zn11      1.0  0.84381  0.64405  0.12947  1.0000
  Zn  Zn12      1.0  0.65619  0.85595  0.12947  1.0000
  Zn  Zn13      1.0  0.84381  0.85595  0.62947  1.0000
  Zn  Zn14      1.0  0.65619  0.64405  0.62947  1.0000
  Zn  Zn15      1.0  0.15619  0.35595  0.87053  1.0000
  Zn  Zn16      1.0  0.34381  0.14405  0.87053  1.0000
  P   P1        1.0  0.09507  0.23871  0.43276  1.0000
  P   P2        1.0  0.40493  0.26129  0.43276  1.0000
  P   P3        1.0  0.90493  0.73871  0.06724  1.0000
  P   P4        1.0  0.59507  0.76129  0.06724  1.0000
  P   P5        1.0  0.90493  0.76129  0.56724  1.0000
  P   P6        1.0  0.59507  0.73871  0.56724  1.0000
  P   P7        1.0  0.09507  0.26129  0.93276  1.0000
  P   P8        1.0  0.40493  0.23871  0.93276  1.0000
  H   H1        1.0  0.15880  0.24900  0.43420  1.0000
  H   H2        1.0  0.34120  0.25100  0.43420  1.0000
  H   H3        1.0  0.84120  0.74900  0.06580  1.0000
  H   H4        1.0  0.65880  0.75100  0.06580  1.0000
  H   H5        1.0  0.84120  0.75100  0.56580  1.0000
  H   H6        1.0  0.65880  0.74900  0.56580  1.0000
  H   H7        1.0  0.15880  0.25100  0.93420  1.0000
  H   H8        1.0  0.34120  0.24900  0.93420  1.0000
  P   P9        1.0  0.22694  0.33226  0.16022  1.0000
  P   P10       1.0  0.27306  0.16774  0.16022  1.0000
  P   P11       1.0  0.77306  0.83226  0.33978  1.0000
  P   P12       1.0  0.72694  0.66774  0.33978  1.0000
  P   P13       1.0  0.77306  0.66774  0.83978  1.0000
  P   P14       1.0  0.72694  0.83226  0.83978  1.0000
  P   P15       1.0  0.22694  0.16774  0.66022  1.0000
  P   P16       1.0  0.27306  0.33226  0.66022  1.0000
  H   H9        1.0  0.23700  0.28830  0.16310  1.0000
  H   H10       1.0  0.26300  0.21170  0.16310  1.0000
  H   H11       1.0  0.76300  0.78830  0.33690  1.0000
  H   H12       1.0  0.73700  0.71170  0.33690  1.0000
  H   H13       1.0  0.76300  0.71170  0.83690  1.0000
  H   H14       1.0  0.73700  0.78830  0.83690  1.0000
  H   H15       1.0  0.23700  0.21170  0.66310  1.0000
  H   H16       1.0  0.26300  0.28830  0.66310  1.0000
  O   O1        1.0  0.07770  0.23334  0.57830  1.0000
  O   O2        1.0  0.42230  0.26666  0.57830  1.0000
  O   O3        1.0  0.92230  0.73334  0.92170  1.0000
  O   O4        1.0  0.57770  0.76666  0.92170  1.0000
  O   O5        1.0  0.92230  0.76666  0.42170  1.0000
  O   O6        1.0  0.57770  0.73334  0.42170  1.0000
  O   O7        1.0  0.07770  0.26666  0.07830  1.0000
  O   O8        1.0  0.42230  0.23334  0.07830  1.0000
  O   O9        1.0  0.09154  0.19472  0.35130  1.0000
  O   O10       1.0  0.40846  0.30528  0.35130  1.0000
  O   O11       1.0  0.90846  0.69472  0.14870  1.0000
  O   O12       1.0  0.59154  0.80528  0.14870  1.0000
  O   O13       1.0  0.90846  0.80528  0.64870  1.0000
  O   O14       1.0  0.59154  0.69472  0.64870  1.0000
  O   O15       1.0  0.09154  0.30528  0.85130  1.0000
  O   O16       1.0  0.40846  0.19472  0.85130  1.0000
  O   O17       1.0  0.05084  0.27698  0.37420  1.0000
  O   O18       1.0  0.44916  0.22302  0.37420  1.0000
  O   O19       1.0  0.94916  0.77698  0.12580  1.0000
  O   O20       1.0  0.55084  0.72302  0.12580  1.0000
  O   O21       1.0  0.94916  0.72302  0.62580  1.0000
  O   O22       1.0  0.55084  0.77698  0.62580  1.0000
  O   O23       1.0  0.05084  0.22302  0.87420  1.0000
  O   O24       1.0  0.44916  0.27698  0.87420  1.0000
  O   O25       1.0  0.16233  0.34135  0.23840  1.0000
  O   O26       1.0  0.33767  0.15865  0.23840  1.0000
  O   O27       1.0  0.83767  0.84135  0.26160  1.0000
  O   O28       1.0  0.66233  0.65865  0.26160  1.0000
  O   O29       1.0  0.83767  0.65865  0.76160  1.0000
  O   O30       1.0  0.66233  0.84135  0.76160  1.0000
  O   O31       1.0  0.16233  0.15865  0.73840  1.0000
  O   O32       1.0  0.33767  0.34135  0.73840  1.0000
  O   O33       1.0  0.28553  0.36112  0.21110  1.0000
  O   O34       1.0  0.21447  0.13888  0.21110  1.0000
  O   O35       1.0  0.71447  0.86112  0.28890  1.0000
  O   O36       1.0  0.78553  0.63888  0.28890  1.0000
  O   O37       1.0  0.71447  0.63888  0.78890  1.0000
  O   O38       1.0  0.78553  0.86112  0.78890  1.0000
  O   O39       1.0  0.28553  0.13888  0.71110  1.0000
  O   O40       1.0  0.21447  0.36112  0.71110  1.0000
  O   O41       1.0  0.21979  0.33857  0.01140  1.0000
  O   O42       1.0  0.28021  0.16143  0.01140  1.0000
  O   O43       1.0  0.78021  0.83857  0.48860  1.0000
  O   O44       1.0  0.71979  0.66143  0.48860  1.0000
  O   O45       1.0  0.78021  0.66143  0.98860  1.0000
  O   O46       1.0  0.71979  0.83857  0.98860  1.0000
  O   O47       1.0  0.21979  0.16143  0.51140  1.0000
  O   O48       1.0  0.28021  0.33857  0.51140  1.0000
  O   O49       1.0  0.02220  0.39195  0.37720  1.0000
  O   O50       1.0  0.47780  0.10805  0.37720  1.0000
  O   O51       1.0  0.97780  0.89195  0.12280  1.0000
  O   O52       1.0  0.52220  0.60805  0.12280  1.0000
  O   O53       1.0  0.97780  0.60805  0.62280  1.0000
  O   O54       1.0  0.52220  0.89195  0.62280  1.0000
  O   O55       1.0  0.02220  0.10805  0.87720  1.0000
  O   O56       1.0  0.47780  0.39195  0.87720  1.0000
  O   O57       1.0  0.00700  0.36091  0.17350  1.0000
  O   O58       1.0  0.49300  0.13909  0.17350  1.0000
  O   O59       1.0  0.99300  0.86091  0.32650  1.0000
  O   O60       1.0  0.50700  0.63909  0.32650  1.0000
  O   O61       1.0  0.99300  0.63909  0.82650  1.0000
  O   O62       1.0  0.50700  0.86091  0.82650  1.0000
  O   O63       1.0  0.00700  0.13909  0.67350  1.0000
  O   O64       1.0  0.49300  0.36091  0.67350  1.0000
  O   O65       1.0  0.92307  0.58386  0.30090  1.0000
  O   O66       1.0  0.57693  0.91614  0.30090  1.0000
  O   O67       1.0  0.07693  0.08386  0.19910  1.0000
  O   O68       1.0  0.42307  0.41614  0.19910  1.0000
  O   O69       1.0  0.07693  0.41614  0.69910  1.0000
  O   O70       1.0  0.42307  0.08386  0.69910  1.0000
  O   O71       1.0  0.92307  0.91614  0.80090  1.0000
  O   O72       1.0  0.57693  0.58386  0.80090  1.0000
  O   O73       1.0  0.87744  0.58269  0.09410  1.0000
  O   O74       1.0  0.62256  0.91731  0.09410  1.0000
  O   O75       1.0  0.12256  0.08269  0.40590  1.0000
  O   O76       1.0  0.37744  0.41731  0.40590  1.0000
  O   O77       1.0  0.12256  0.41731  0.90590  1.0000
  O   O78       1.0  0.37744  0.08269  0.90590  1.0000
  O   O79       1.0  0.87744  0.91731  0.59410  1.0000
  O   O80       1.0  0.62256  0.58269  0.59410  1.0000
  C   C1        1.0  0.00170  0.39347  0.25860  1.0000
  C   C2        1.0  0.49830  0.10653  0.25860  1.0000
  C   C3        1.0  0.99830  0.89347  0.24140  1.0000
  C   C4        1.0  0.50170  0.60653  0.24140  1.0000
  C   C5        1.0  0.99830  0.60653  0.74140  1.0000
  C   C6        1.0  0.50170  0.89347  0.74140  1.0000
  C   C7        1.0  0.00170  0.10653  0.75860  1.0000
  C   C8        1.0  0.49830  0.39347  0.75860  1.0000
  C   C9        1.0  0.96970  0.43591  0.20560  1.0000
  C   C10       1.0  0.53030  0.06409  0.20560  1.0000
  C   C11       1.0  0.03030  0.93591  0.29440  1.0000
  C   C12       1.0  0.46970  0.56409  0.29440  1.0000
  C   C13       1.0  0.03030  0.56409  0.79440  1.0000
  C   C14       1.0  0.46970  0.93591  0.79440  1.0000
  C   C15       1.0  0.96970  0.06409  0.70560  1.0000
  C   C16       1.0  0.53030  0.43591  0.70560  1.0000
  C   C17       1.0  0.94470  0.44372  0.07960  1.0000
  C   C18       1.0  0.55530  0.05628  0.07960  1.0000
  C   C19       1.0  0.05530  0.94372  0.42040  1.0000
  C   C20       1.0  0.44470  0.55628  0.42040  1.0000
  C   C21       1.0  0.05530  0.55628  0.92040  1.0000
  C   C22       1.0  0.44470  0.94372  0.92040  1.0000
  C   C23       1.0  0.94470  0.05628  0.57960  1.0000
  C   C24       1.0  0.55530  0.44372  0.57960  1.0000
  H   H17       1.0  0.94360  0.42160  0.01180  1.0000
  H   H18       1.0  0.55640  0.07840  0.01180  1.0000
  H   H19       1.0  0.05640  0.92160  0.48820  1.0000
  H   H20       1.0  0.44360  0.57840  0.48820  1.0000
  H   H21       1.0  0.05640  0.57840  0.98820  1.0000
  H   H22       1.0  0.44360  0.92160  0.98820  1.0000
  H   H23       1.0  0.94360  0.07840  0.51180  1.0000
  H   H24       1.0  0.55640  0.42160  0.51180  1.0000
  C   C25       1.0  0.92070  0.48893  0.06330  1.0000
  C   C26       1.0  0.57930  0.01107  0.06330  1.0000
  C   C27       1.0  0.07930  0.98893  0.43670  1.0000
  C   C28       1.0  0.42070  0.51107  0.43670  1.0000
  C   C29       1.0  0.07930  0.51107  0.93670  1.0000
  C   C30       1.0  0.42070  0.98893  0.93670  1.0000
  C   C31       1.0  0.92070  0.01107  0.56330  1.0000
  C   C32       1.0  0.57930  0.48893  0.56330  1.0000
  H   H25       1.0  0.90220  0.50000  0.98310  1.0000
  H   H26       1.0  0.59780  0.00000  0.98310  1.0000
  H   H27       1.0  0.09780  0.00000  0.51690  1.0000
  H   H28       1.0  0.40220  0.50000  0.51690  1.0000
  H   H29       1.0  0.09780  0.50000  0.01690  1.0000
  H   H30       1.0  0.40220  0.00000  0.01690  1.0000
  H   H31       1.0  0.90220  0.00000  0.48310  1.0000
  H   H32       1.0  0.59780  0.50000  0.48310  1.0000
  C   C33       1.0  0.92710  0.51474  0.17650  1.0000
  C   C34       1.0  0.57290  0.98526  0.17650  1.0000
  C   C35       1.0  0.07290  0.01474  0.32350  1.0000
  C   C36       1.0  0.42710  0.48526  0.32350  1.0000
  C   C37       1.0  0.07290  0.48526  0.82350  1.0000
  C   C38       1.0  0.42710  0.01474  0.82350  1.0000
  C   C39       1.0  0.92710  0.98526  0.67650  1.0000
  C   C40       1.0  0.57290  0.51474  0.67650  1.0000
  C   C41       1.0  0.90900  0.56423  0.19500  1.0000
  C   C42       1.0  0.59100  0.93577  0.19500  1.0000
  C   C43       1.0  0.09100  0.06423  0.30500  1.0000
  C   C44       1.0  0.40900  0.43577  0.30500  1.0000
  C   C45       1.0  0.09100  0.43577  0.80500  1.0000
  C   C46       1.0  0.40900  0.06423  0.80500  1.0000
  C   C47       1.0  0.90900  0.93577  0.69500  1.0000
  C   C48       1.0  0.59100  0.56423  0.69500  1.0000
