data_image0
_chemical_formula_structural       Fe2Cr2C12O12S12
_chemical_formula_sum              "Fe2 Cr2 C12 O12 S12"
_cell_length_a       10.101
_cell_length_b       10.101
_cell_length_c       18.001
_cell_angle_alpha    90
_cell_angle_beta     90
_cell_angle_gamma    120

_space_group_name_H-M_alt    "P 1"
_space_group_IT_number       1

loop_
  _space_group_symop_operation_xyz
  'x, y, z'

loop_
  _atom_site_type_symbol
  _atom_site_label
  _atom_site_symmetry_multiplicity
  _atom_site_fract_x
  _atom_site_fract_y
  _atom_site_fract_z
  _atom_site_occupancy
  Fe  Fe1       1.0  0.33333  0.66666  0.25332  1.0000
  Fe  Fe2       1.0  0.66667  0.33333  0.75332  1.0000
  Cr  Cr1       1.0  0.66666  0.33333  0.24668  1.0000
  Cr  Cr2       1.0  0.33333  0.66666  0.74668  1.0000
  C   C1        1.0  0.51100  0.56500  0.28700  1.0000
  C   C2        1.0  0.94600  0.51100  0.78700  1.0000
  C   C3        1.0  0.43500  0.94600  0.28700  1.0000
  C   C4        1.0  0.48900  0.43500  0.78700  1.0000
  C   C5        1.0  0.05400  0.48900  0.28700  1.0000
  C   C6        1.0  0.56500  0.05400  0.78700  1.0000
  C   C7        1.0  0.44100  0.48400  0.21300  1.0000
  C   C8        1.0  0.95700  0.44100  0.71300  1.0000
  C   C9        1.0  0.51600  0.95700  0.21300  1.0000
  C   C10       1.0  0.55900  0.51600  0.71300  1.0000
  C   C11       1.0  0.04300  0.55900  0.21300  1.0000
  C   C12       1.0  0.48400  0.04300  0.71300  1.0000
  O   O1        1.0  0.49600  0.66200  0.32000  1.0000
  O   O2        1.0  0.83400  0.49600  0.82000  1.0000
  O   O3        1.0  0.33800  0.83400  0.32000  1.0000
  O   O4        1.0  0.50400  0.33800  0.82000  1.0000
  O   O5        1.0  0.16600  0.50400  0.32000  1.0000
  O   O6        1.0  0.66200  0.16600  0.82000  1.0000
  O   O7        1.0  0.33800  0.50400  0.18000  1.0000
  O   O8        1.0  0.83400  0.33800  0.68000  1.0000
  O   O9        1.0  0.49600  0.83400  0.18000  1.0000
  O   O10       1.0  0.66200  0.49600  0.68000  1.0000
  O   O11       1.0  0.16600  0.66200  0.18000  1.0000
  O   O12       1.0  0.50400  0.16600  0.68000  1.0000
  S   S1        1.0  0.61000  0.49000  0.30500  1.0000
  S   S2        1.0  0.12000  0.61000  0.80500  1.0000
  S   S3        1.0  0.51000  0.12000  0.30500  1.0000
  S   S4        1.0  0.39000  0.51000  0.80500  1.0000
  S   S5        1.0  0.88000  0.39000  0.30500  1.0000
  S   S6        1.0  0.49000  0.88000  0.80500  1.0000
  S   S7        1.0  0.52000  0.38000  0.19500  1.0000
  S   S8        1.0  0.14000  0.52000  0.69500  1.0000
  S   S9        1.0  0.62000  0.14000  0.19500  1.0000
  S   S10       1.0  0.48000  0.62000  0.69500  1.0000
  S   S11       1.0  0.86000  0.48000  0.19500  1.0000
  S   S12       1.0  0.38000  0.86000  0.69500  1.0000
