data_image0
_chemical_formula_structural       U4P12O24H4O4H4O8H4C16H4C4H4C4H4C4H4C4H4C4H4O8
_chemical_formula_sum              "U4 P12 O44 H36 C36"
_cell_length_a       10.241
_cell_length_b       11.4366
_cell_length_c       15.9325
_cell_angle_alpha    90
_cell_angle_beta     95.626
_cell_angle_gamma    90

_space_group_name_H-M_alt    "P 1"
_space_group_IT_number       1

loop_
  _space_group_symop_operation_xyz
  'x, y, z'

loop_
  _atom_site_type_symbol
  _atom_site_label
  _atom_site_symmetry_multiplicity
  _atom_site_fract_x
  _atom_site_fract_y
  _atom_site_fract_z
  _atom_site_occupancy
  U   U1        1.0  0.32443  0.27731  0.21837  1.0000
  U   U2        1.0  0.17557  0.77731  0.28163  1.0000
  U   U3        1.0  0.67557  0.72269  0.78163  1.0000
  U   U4        1.0  0.82443  0.22269  0.71837  1.0000
  P   P1        1.0  0.04458  0.06688  0.19515  1.0000
  P   P2        1.0  0.45542  0.56688  0.30485  1.0000
  P   P3        1.0  0.95542  0.93312  0.80485  1.0000
  P   P4        1.0  0.54458  0.43312  0.69515  1.0000
  P   P5        1.0  0.57451  0.03411  0.80998  1.0000
  P   P6        1.0  0.92549  0.53411  0.69002  1.0000
  P   P7        1.0  0.42549  0.96589  0.19002  1.0000
  P   P8        1.0  0.07451  0.46589  0.30998  1.0000
  P   P9        1.0  0.65668  0.31237  0.15911  1.0000
  P   P10       1.0  0.84332  0.81237  0.34089  1.0000
  P   P11       1.0  0.34332  0.68763  0.84089  1.0000
  P   P12       1.0  0.15668  0.18763  0.65911  1.0000
  O   O1        1.0  0.55870  0.27280  0.21760  1.0000
  O   O2        1.0  0.94130  0.77280  0.28240  1.0000
  O   O3        1.0  0.44130  0.72720  0.78240  1.0000
  O   O4        1.0  0.05870  0.22720  0.71760  1.0000
  O   O5        1.0  0.79660  0.29330  0.19480  1.0000
  O   O6        1.0  0.70340  0.79330  0.30520  1.0000
  O   O7        1.0  0.20340  0.70670  0.80520  1.0000
  O   O8        1.0  0.29660  0.20670  0.69480  1.0000
  O   O9        1.0  0.35120  0.23180  0.32512  1.0000
  O   O10       1.0  0.14880  0.73180  0.17488  1.0000
  O   O11       1.0  0.64880  0.76820  0.67488  1.0000
  O   O12       1.0  0.85120  0.26820  0.82512  1.0000
  O   O13       1.0  0.12780  0.17430  0.20269  1.0000
  O   O14       1.0  0.37220  0.67430  0.29731  1.0000
  O   O15       1.0  0.87220  0.82570  0.79731  1.0000
  O   O16       1.0  0.62780  0.32570  0.70269  1.0000
  O   O17       1.0  0.29820  0.32430  0.11155  1.0000
  O   O18       1.0  0.20180  0.82430  0.38845  1.0000
  O   O19       1.0  0.70180  0.67570  0.88845  1.0000
  O   O20       1.0  0.79820  0.17570  0.61155  1.0000
  O   O21       1.0  0.42350  0.03080  0.77980  1.0000
  O   O22       1.0  0.07650  0.53080  0.72020  1.0000
  O   O23       1.0  0.57650  0.96920  0.22020  1.0000
  O   O24       1.0  0.92350  0.46920  0.27980  1.0000
  H   H1        1.0  0.40180  0.09320  0.75430  1.0000
  H   H2        1.0  0.09820  0.59320  0.74570  1.0000
  H   H3        1.0  0.59820  0.90680  0.24570  1.0000
  H   H4        1.0  0.90180  0.40680  0.25430  1.0000
  O   O25       1.0  0.90650  0.09350  0.22632  1.0000
  O   O26       1.0  0.59350  0.59350  0.27368  1.0000
  O   O27       1.0  0.09350  0.90650  0.77368  1.0000
  O   O28       1.0  0.40650  0.40650  0.72632  1.0000
  H   H5        1.0  0.88280  0.16140  0.21150  1.0000
  H   H6        1.0  0.61720  0.66140  0.28850  1.0000
  H   H7        1.0  0.11720  0.83860  0.78850  1.0000
  H   H8        1.0  0.38280  0.33860  0.71150  1.0000
  O   O29       1.0  0.61780  0.91140  0.82781  1.0000
  O   O30       1.0  0.88220  0.41140  0.67219  1.0000
  O   O31       1.0  0.38220  0.08860  0.17219  1.0000
  O   O32       1.0  0.11780  0.58860  0.32781  1.0000
  O   O33       1.0  0.63480  0.44570  0.13690  1.0000
  O   O34       1.0  0.86520  0.94570  0.36310  1.0000
  O   O35       1.0  0.36520  0.55430  0.86310  1.0000
  O   O36       1.0  0.13480  0.05430  0.63690  1.0000
  H   H9        1.0  0.62360  0.48310  0.18100  1.0000
  H   H10       1.0  0.87640  0.98310  0.31900  1.0000
  H   H11       1.0  0.37640  0.51690  0.81900  1.0000
  H   H12       1.0  0.12360  0.01690  0.68100  1.0000
  C   C1        1.0  0.59320  0.11510  0.90740  1.0000
  C   C2        1.0  0.90680  0.61510  0.59260  1.0000
  C   C3        1.0  0.40680  0.88490  0.09260  1.0000
  C   C4        1.0  0.09320  0.38490  0.40740  1.0000
  C   C5        1.0  0.01860  0.02850  0.08550  1.0000
  C   C6        1.0  0.48140  0.52850  0.41450  1.0000
  C   C7        1.0  0.98140  0.97150  0.91450  1.0000
  C   C8        1.0  0.51860  0.47150  0.58550  1.0000
  C   C9        1.0  0.62860  0.23920  0.05880  1.0000
  C   C10       1.0  0.87140  0.73920  0.44120  1.0000
  C   C11       1.0  0.37140  0.76080  0.94120  1.0000
  C   C12       1.0  0.12860  0.26080  0.55880  1.0000
  C   C13       1.0  0.07360  0.09720  0.02530  1.0000
  C   C14       1.0  0.42640  0.59720  0.47470  1.0000
  C   C15       1.0  0.92640  0.90280  0.97470  1.0000
  C   C16       1.0  0.57360  0.40280  0.52530  1.0000
  H   H13       1.0  0.12460  0.16380  0.04280  1.0000
  H   H14       1.0  0.37540  0.66380  0.45720  1.0000
  H   H15       1.0  0.87540  0.83620  0.95720  1.0000
  H   H16       1.0  0.62460  0.33620  0.54280  1.0000
  C   C17       1.0  0.64620  0.06110  0.98050  1.0000
  C   C18       1.0  0.85380  0.56110  0.51950  1.0000
  C   C19       1.0  0.35380  0.93890  0.01950  1.0000
  C   C20       1.0  0.14620  0.43890  0.48050  1.0000
  H   H17       1.0  0.66950  0.98080  0.97920  1.0000
  H   H18       1.0  0.83050  0.48080  0.52080  1.0000
  H   H19       1.0  0.33050  0.01920  0.02080  1.0000
  H   H20       1.0  0.16950  0.51920  0.47920  1.0000
  C   C21       1.0  0.66580  0.12220  0.05580  1.0000
  C   C22       1.0  0.83420  0.62220  0.44420  1.0000
  C   C23       1.0  0.33420  0.87780  0.94420  1.0000
  C   C24       1.0  0.16580  0.37780  0.55580  1.0000
  H   H21       1.0  0.70460  0.08450  0.10520  1.0000
  H   H22       1.0  0.79540  0.58450  0.39480  1.0000
  H   H23       1.0  0.29540  0.91550  0.89480  1.0000
  H   H24       1.0  0.20460  0.41550  0.60520  1.0000
  C   C25       1.0  0.55520  0.23180  0.91020  1.0000
  C   C26       1.0  0.94480  0.73180  0.58980  1.0000
  C   C27       1.0  0.44480  0.76820  0.08980  1.0000
  C   C28       1.0  0.05520  0.26820  0.41020  1.0000
  H   H25       1.0  0.51760  0.26940  0.86050  1.0000
  H   H26       1.0  0.98240  0.76940  0.63950  1.0000
  H   H27       1.0  0.48240  0.73060  0.13950  1.0000
  H   H28       1.0  0.01760  0.23060  0.36050  1.0000
  C   C29       1.0  0.57220  0.29380  0.98620  1.0000
  C   C30       1.0  0.92780  0.79380  0.51380  1.0000
  C   C31       1.0  0.42780  0.70620  0.01380  1.0000
  C   C32       1.0  0.07220  0.20620  0.48620  1.0000
  H   H29       1.0  0.54530  0.37320  0.98810  1.0000
  H   H30       1.0  0.95470  0.87320  0.51190  1.0000
  H   H31       1.0  0.45470  0.62680  0.01190  1.0000
  H   H32       1.0  0.04530  0.12680  0.48810  1.0000
  C   C33       1.0  0.94590  0.93110  0.06000  1.0000
  C   C34       1.0  0.55410  0.43110  0.44000  1.0000
  C   C35       1.0  0.05410  0.06890  0.94000  1.0000
  C   C36       1.0  0.44590  0.56890  0.56000  1.0000
  H   H33       1.0  0.90920  0.88340  0.10050  1.0000
  H   H34       1.0  0.59080  0.38340  0.39950  1.0000
  H   H35       1.0  0.09080  0.11660  0.89950  1.0000
  H   H36       1.0  0.40920  0.61660  0.60050  1.0000
  O   O37       1.0  0.64460  0.09670  0.74395  1.0000
  O   O38       1.0  0.85540  0.59670  0.75605  1.0000
  O   O39       1.0  0.35540  0.90330  0.25605  1.0000
  O   O40       1.0  0.14460  0.40330  0.24395  1.0000
  O   O41       1.0  0.09190  0.96360  0.24670  1.0000
  O   O42       1.0  0.40810  0.46360  0.25330  1.0000
  O   O43       1.0  0.90810  0.03640  0.75330  1.0000
  O   O44       1.0  0.59190  0.53640  0.74670  1.0000
