data_image0
_chemical_formula_structural       U2O4P2O6H2C4H2C2H2P2O4H2O2C4H2C2H2P2O6H2C4H2C2H2
_chemical_formula_sum              "U2 O22 P6 H18 C18"
_cell_length_a       8.8105
_cell_length_b       12.0084
_cell_length_c       12.3493
_cell_angle_alpha    63.518
_cell_angle_beta     89.233
_cell_angle_gamma    89.59

_space_group_name_H-M_alt    "P 1"
_space_group_IT_number       1

loop_
  _space_group_symop_operation_xyz
  'x, y, z'

loop_
  _atom_site_type_symbol
  _atom_site_label
  _atom_site_symmetry_multiplicity
  _atom_site_fract_x
  _atom_site_fract_y
  _atom_site_fract_z
  _atom_site_occupancy
  U   U1        1.0  0.97951  0.55022  0.72784  1.0000
  U   U2        1.0  0.02049  0.44978  0.27216  1.0000
  O   O1        1.0  0.13620  0.65430  0.68110  1.0000
  O   O2        1.0  0.86380  0.34570  0.31890  1.0000
  O   O3        1.0  0.82070  0.45020  0.77260  1.0000
  O   O4        1.0  0.17930  0.54980  0.22740  1.0000
  P   P1        1.0  0.82400  0.86529  0.57694  1.0000
  P   P2        1.0  0.17600  0.13471  0.42306  1.0000
  O   O5        1.0  0.80450  0.72840  0.65450  1.0000
  O   O6        1.0  0.19550  0.27160  0.34550  1.0000
  O   O7        1.0  0.90960  0.89970  0.45970  1.0000
  O   O8        1.0  0.09040  0.10030  0.54030  1.0000
  O   O9        1.0  0.90310  0.92260  0.65310  1.0000
  O   O10       1.0  0.09690  0.07740  0.34690  1.0000
  H   H1        1.0  0.96040  0.97850  0.60930  1.0000
  H   H2        1.0  0.03960  0.02150  0.39070  1.0000
  C   C1        1.0  0.64060  0.93940  0.53660  1.0000
  C   C2        1.0  0.35940  0.06060  0.46340  1.0000
  C   C3        1.0  0.63240  0.06920  0.47580  1.0000
  C   C4        1.0  0.36760  0.93080  0.52420  1.0000
  H   H3        1.0  0.72070  0.11630  0.45940  1.0000
  H   H4        1.0  0.27930  0.88370  0.54060  1.0000
  C   C5        1.0  0.50510  0.87270  0.55960  1.0000
  C   C6        1.0  0.49490  0.12730  0.44040  1.0000
  H   H5        1.0  0.50840  0.78630  0.60020  1.0000
  H   H6        1.0  0.49160  0.21370  0.39980  1.0000
  P   P3        1.0  0.82640  0.62712  0.41964  1.0000
  P   P4        1.0  0.17360  0.37288  0.58036  1.0000
  O   O11       1.0  0.92310  0.59840  0.52790  1.0000
  O   O12       1.0  0.07690  0.40160  0.47210  1.0000
  O   O13       1.0  0.79620  0.77230  0.35510  1.0000
  O   O14       1.0  0.20380  0.22770  0.64490  1.0000
  H   H7        1.0  0.83560  0.80450  0.39400  1.0000
  H   H8        1.0  0.16440  0.19550  0.60600  1.0000
  O   O15       1.0  0.88840  0.59220  0.32530  1.0000
  O   O16       1.0  0.11160  0.40780  0.67470  1.0000
  C   C7        1.0  0.64240  0.55820  0.46370  1.0000
  C   C8        1.0  0.35760  0.44180  0.53630  1.0000
  C   C9        1.0  0.57130  0.50760  0.39560  1.0000
  C   C10       1.0  0.42870  0.49240  0.60440  1.0000
  H   H9        1.0  0.61880  0.51100  0.32650  1.0000
  H   H10       1.0  0.38120  0.48900  0.67350  1.0000
  C   C11       1.0  0.57090  0.54810  0.56910  1.0000
  C   C12       1.0  0.42910  0.45190  0.43090  1.0000
  H   H11       1.0  0.61880  0.57910  0.61660  1.0000
  H   H12       1.0  0.38120  0.42090  0.38340  1.0000
  P   P5        1.0  0.82630  0.62700  0.97023  1.0000
  P   P6        1.0  0.17370  0.37300  0.02977  1.0000
  O   O17       1.0  0.92820  0.59430  0.89100  1.0000
  O   O18       1.0  0.07180  0.40570  0.10900  1.0000
  O   O19       1.0  0.88490  0.59830  0.09450  1.0000
  O   O20       1.0  0.11510  0.40170  0.90550  1.0000
  O   O21       1.0  0.79670  0.77120  0.90040  1.0000
  O   O22       1.0  0.20330  0.22880  0.09960  1.0000
  H   H13       1.0  0.83440  0.79840  0.83240  1.0000
  H   H14       1.0  0.16560  0.20160  0.16760  1.0000
  C   C13       1.0  0.64260  0.55610  0.98840  1.0000
  C   C14       1.0  0.35740  0.44390  0.01160  1.0000
  C   C15       1.0  0.54790  0.58760  0.88710  1.0000
  C   C16       1.0  0.45210  0.41240  0.11290  1.0000
  H   H15       1.0  0.58030  0.64630  0.81110  1.0000
  H   H16       1.0  0.41970  0.35370  0.18890  1.0000
  C   C17       1.0  0.59080  0.46760  0.09980  1.0000
  C   C18       1.0  0.40920  0.53240  0.90020  1.0000
  H   H17       1.0  0.65180  0.44520  0.16720  1.0000
  H   H18       1.0  0.34820  0.55480  0.83280  1.0000
