data_image0
_chemical_formula_structural       Yb4S8O36N4H4N4H4C8H4C4H4C20H4C4H4C20H8C4H8
_chemical_formula_sum              "Yb4 S8 O36 N8 H40 C60"
_cell_length_a       14.0214
_cell_length_b       11.5047
_cell_length_c       20.4346
_cell_angle_alpha    90
_cell_angle_beta     129.375
_cell_angle_gamma    90

_space_group_name_H-M_alt    "P 1"
_space_group_IT_number       1

loop_
  _space_group_symop_operation_xyz
  'x, y, z'

loop_
  _atom_site_type_symbol
  _atom_site_label
  _atom_site_symmetry_multiplicity
  _atom_site_fract_x
  _atom_site_fract_y
  _atom_site_fract_z
  _atom_site_occupancy
  Yb  Yb1       1.0  0.35263  0.11131  0.01405  1.0000
  Yb  Yb2       1.0  0.64737  0.61131  0.48595  1.0000
  Yb  Yb3       1.0  0.64737  0.88869  0.98595  1.0000
  Yb  Yb4       1.0  0.35263  0.38869  0.51405  1.0000
  S   S1        1.0  0.02276  0.78142  0.75059  1.0000
  S   S2        1.0  0.97724  0.28142  0.74941  1.0000
  S   S3        1.0  0.97724  0.21858  0.24941  1.0000
  S   S4        1.0  0.02276  0.71858  0.25059  1.0000
  S   S5        1.0  0.41218  0.34886  0.25339  1.0000
  S   S6        1.0  0.58782  0.84886  0.24661  1.0000
  S   S7        1.0  0.58782  0.65114  0.74661  1.0000
  S   S8        1.0  0.41218  0.15114  0.75339  1.0000
  O   O1        1.0  0.23670  0.95370  0.96267  1.0000
  O   O2        1.0  0.76330  0.45370  0.53733  1.0000
  O   O3        1.0  0.76330  0.04630  0.03733  1.0000
  O   O4        1.0  0.23670  0.54630  0.46267  1.0000
  O   O5        1.0  0.22460  0.76430  0.93510  1.0000
  O   O6        1.0  0.77540  0.26430  0.56490  1.0000
  O   O7        1.0  0.77540  0.23570  0.06490  1.0000
  O   O8        1.0  0.22460  0.73570  0.43510  1.0000
  O   O9        1.0  0.80520  0.72710  0.57621  1.0000
  O   O10       1.0  0.19480  0.22710  0.92379  1.0000
  O   O11       1.0  0.19480  0.27290  0.42379  1.0000
  O   O12       1.0  0.80520  0.77290  0.07621  1.0000
  O   O13       1.0  0.79470  0.89610  0.51800  1.0000
  O   O14       1.0  0.20530  0.39610  0.98200  1.0000
  O   O15       1.0  0.20530  0.10390  0.48200  1.0000
  O   O16       1.0  0.79470  0.60390  0.01800  1.0000
  O   O17       1.0  0.41970  0.21950  0.13458  1.0000
  O   O18       1.0  0.58030  0.71950  0.36542  1.0000
  O   O19       1.0  0.58030  0.78050  0.86542  1.0000
  O   O20       1.0  0.41970  0.28050  0.63458  1.0000
  O   O21       1.0  0.25800  0.10710  0.07980  1.0000
  O   O22       1.0  0.74200  0.60710  0.42020  1.0000
  O   O23       1.0  0.74200  0.89290  0.92020  1.0000
  O   O24       1.0  0.25800  0.39290  0.57980  1.0000
  O   O25       1.0  0.36250  0.43920  0.41346  1.0000
  O   O26       1.0  0.63750  0.93920  0.08654  1.0000
  O   O27       1.0  0.63750  0.56080  0.58654  1.0000
  O   O28       1.0  0.36250  0.06080  0.91346  1.0000
  O   O29       1.0  0.48650  0.50390  0.38857  1.0000
  O   O30       1.0  0.51350  0.00390  0.11143  1.0000
  O   O31       1.0  0.51350  0.49610  0.61143  1.0000
  O   O32       1.0  0.48650  0.99610  0.88857  1.0000
  O   O33       1.0  0.47450  0.24960  0.02340  1.0000
  O   O34       1.0  0.52550  0.74960  0.47660  1.0000
  O   O35       1.0  0.52550  0.75040  0.97660  1.0000
  O   O36       1.0  0.47450  0.25040  0.52340  1.0000
  N   N1        1.0  0.64550  0.36600  0.10850  1.0000
  N   N2        1.0  0.35450  0.86600  0.39150  1.0000
  N   N3        1.0  0.35450  0.63400  0.89150  1.0000
  N   N4        1.0  0.64550  0.13400  0.60850  1.0000
  H   H1        1.0  0.70200  0.31510  0.11820  1.0000
  H   H2        1.0  0.29800  0.81510  0.38180  1.0000
  H   H3        1.0  0.29800  0.68490  0.88180  1.0000
  H   H4        1.0  0.70200  0.18490  0.61820  1.0000
  N   N5        1.0  0.46930  0.43020  0.06940  1.0000
  N   N6        1.0  0.53070  0.93020  0.43060  1.0000
  N   N7        1.0  0.53070  0.56980  0.93060  1.0000
  N   N8        1.0  0.46930  0.06980  0.56940  1.0000
  H   H5        1.0  0.38710  0.43510  0.03930  1.0000
  H   H6        1.0  0.61290  0.93510  0.46070  1.0000
  H   H7        1.0  0.61290  0.56490  0.96070  1.0000
  H   H8        1.0  0.38710  0.06490  0.53930  1.0000
  C   C1        1.0  0.10690  0.89360  0.82070  1.0000
  C   C2        1.0  0.89310  0.39360  0.67930  1.0000
  C   C3        1.0  0.89310  0.10640  0.17930  1.0000
  C   C4        1.0  0.10690  0.60640  0.32070  1.0000
  C   C5        1.0  0.07270  0.99820  0.77970  1.0000
  C   C6        1.0  0.92730  0.49820  0.72030  1.0000
  C   C7        1.0  0.92730  0.00180  0.22030  1.0000
  C   C8        1.0  0.07270  0.50180  0.27970  1.0000
  H   H9        1.0  0.10750  0.06880  0.80720  1.0000
  H   H10       1.0  0.89250  0.56880  0.69280  1.0000
  H   H11       1.0  0.89250  0.93120  0.19280  1.0000
  H   H12       1.0  0.10750  0.43120  0.30720  1.0000
  C   C9        1.0  0.97880  0.98750  0.69110  1.0000
  C   C10       1.0  0.02120  0.48750  0.80890  1.0000
  C   C11       1.0  0.02120  0.01250  0.30890  1.0000
  C   C12       1.0  0.97880  0.51250  0.19110  1.0000
  H   H13       1.0  0.94610  0.05030  0.65410  1.0000
  H   H14       1.0  0.05390  0.55030  0.84590  1.0000
  H   H15       1.0  0.05390  0.94970  0.34590  1.0000
  H   H16       1.0  0.94610  0.44970  0.15410  1.0000
  C   C13       1.0  0.94100  0.87500  0.66570  1.0000
  C   C14       1.0  0.05900  0.37500  0.83430  1.0000
  C   C15       1.0  0.05900  0.12500  0.33430  1.0000
  C   C16       1.0  0.94100  0.62500  0.16570  1.0000
  C   C17       1.0  0.19780  0.86740  0.91300  1.0000
  C   C18       1.0  0.80220  0.36740  0.58700  1.0000
  C   C19       1.0  0.80220  0.13260  0.08700  1.0000
  C   C20       1.0  0.19780  0.63260  0.41300  1.0000
  C   C21       1.0  0.83970  0.83130  0.57950  1.0000
  C   C22       1.0  0.16030  0.33130  0.92050  1.0000
  C   C23       1.0  0.16030  0.16870  0.42050  1.0000
  C   C24       1.0  0.83970  0.66870  0.07950  1.0000
  C   C25       1.0  0.31670  0.23590  0.19100  1.0000
  C   C26       1.0  0.68330  0.73590  0.30900  1.0000
  C   C27       1.0  0.68330  0.76410  0.80900  1.0000
  C   C28       1.0  0.31670  0.26410  0.69100  1.0000
  C   C29       1.0  0.24080  0.20490  0.20850  1.0000
  C   C30       1.0  0.75920  0.70490  0.29150  1.0000
  C   C31       1.0  0.75920  0.79510  0.79150  1.0000
  C   C32       1.0  0.24080  0.29510  0.70850  1.0000
  H   H17       1.0  0.18200  0.14630  0.18010  1.0000
  H   H18       1.0  0.81800  0.64630  0.31990  1.0000
  H   H19       1.0  0.81800  0.85370  0.81990  1.0000
  H   H20       1.0  0.18200  0.35370  0.68010  1.0000
  C   C33       1.0  0.26160  0.27140  0.27410  1.0000
  C   C34       1.0  0.73840  0.77140  0.22590  1.0000
  C   C35       1.0  0.73840  0.72860  0.72590  1.0000
  C   C36       1.0  0.26160  0.22860  0.77410  1.0000
  H   H21       1.0  0.21880  0.26110  0.29450  1.0000
  H   H22       1.0  0.78120  0.76110  0.20550  1.0000
  H   H23       1.0  0.78120  0.73890  0.70550  1.0000
  H   H24       1.0  0.21880  0.23890  0.79450  1.0000
  C   C37       1.0  0.35150  0.35290  0.30460  1.0000
  C   C38       1.0  0.64850  0.85290  0.19540  1.0000
  C   C39       1.0  0.64850  0.64710  0.69540  1.0000
  C   C40       1.0  0.35150  0.14710  0.80460  1.0000
  C   C41       1.0  0.33160  0.18410  0.13140  1.0000
  C   C42       1.0  0.66840  0.68410  0.36860  1.0000
  C   C43       1.0  0.66840  0.81590  0.86860  1.0000
  C   C44       1.0  0.33160  0.31590  0.63140  1.0000
  C   C45       1.0  0.40370  0.43740  0.37440  1.0000
  C   C46       1.0  0.59630  0.93740  0.12560  1.0000
  C   C47       1.0  0.59630  0.56260  0.62560  1.0000
  C   C48       1.0  0.40370  0.06260  0.87440  1.0000
  C   C49       1.0  0.52590  0.34120  0.06440  1.0000
  C   C50       1.0  0.47410  0.84120  0.43560  1.0000
  C   C51       1.0  0.47410  0.65880  0.93560  1.0000
  C   C52       1.0  0.52590  0.15880  0.56440  1.0000
  C   C53       1.0  0.55700  0.51770  0.12880  1.0000
  C   C54       1.0  0.44300  0.01770  0.37120  1.0000
  C   C55       1.0  0.44300  0.48230  0.87120  1.0000
  C   C56       1.0  0.55700  0.98230  0.62880  1.0000
  H   H25       1.0  0.57260  0.51230  0.18230  1.0000
  H   H26       1.0  0.42740  0.01230  0.31770  1.0000
  H   H27       1.0  0.42740  0.48770  0.81770  1.0000
  H   H28       1.0  0.57260  0.98770  0.68230  1.0000
  H   H29       1.0  0.52840  0.59540  0.10600  1.0000
  H   H30       1.0  0.47160  0.09540  0.39400  1.0000
  H   H31       1.0  0.47160  0.40460  0.89400  1.0000
  H   H32       1.0  0.52840  0.90460  0.60600  1.0000
  C   C57       1.0  0.67240  0.48580  0.13920  1.0000
  C   C58       1.0  0.32760  0.98580  0.36080  1.0000
  C   C59       1.0  0.32760  0.51420  0.86080  1.0000
  C   C60       1.0  0.67240  0.01420  0.63920  1.0000
  H   H33       1.0  0.68140  0.53560  0.10510  1.0000
  H   H34       1.0  0.31860  0.03560  0.39490  1.0000
  H   H35       1.0  0.31860  0.46440  0.89490  1.0000
  H   H36       1.0  0.68140  0.96440  0.60510  1.0000
  H   H37       1.0  0.74660  0.49050  0.19790  1.0000
  H   H38       1.0  0.25340  0.99050  0.30210  1.0000
  H   H39       1.0  0.25340  0.50950  0.80210  1.0000
  H   H40       1.0  0.74660  0.00950  0.69790  1.0000
