data_image0
_chemical_formula_structural       Cr2Na2O24C12
_chemical_formula_sum              "Cr2 Na2 O24 C12"
_cell_length_a       9.565
_cell_length_b       9.829
_cell_length_c       18.272
_cell_angle_alpha    91.057
_cell_angle_beta     104.607
_cell_angle_gamma    118.21

_space_group_name_H-M_alt    "P 1"
_space_group_IT_number       1

loop_
  _space_group_symop_operation_xyz
  'x, y, z'

loop_
  _atom_site_type_symbol
  _atom_site_label
  _atom_site_symmetry_multiplicity
  _atom_site_fract_x
  _atom_site_fract_y
  _atom_site_fract_z
  _atom_site_occupancy
  Cr  Cr1       1.0  0.31314  0.55887  0.25408  1.0000
  Cr  Cr2       1.0  0.68686  0.44113  0.74592  1.0000
  Na  Na1       1.0  0.98349  0.90730  0.25693  1.0000
  Na  Na2       1.0  0.01651  0.09270  0.74307  1.0000
  O   O1        1.0  0.34440  0.74160  0.31804  1.0000
  O   O2        1.0  0.65560  0.25840  0.68196  1.0000
  O   O3        1.0  0.10620  0.55460  0.19689  1.0000
  O   O4        1.0  0.89380  0.44540  0.80311  1.0000
  O   O5        1.0  0.96520  0.68240  0.19800  1.0000
  O   O6        1.0  0.03480  0.31760  0.80200  1.0000
  O   O7        1.0  0.21650  0.87800  0.32831  1.0000
  O   O8        1.0  0.78350  0.12200  0.67169  1.0000
  O   O9        1.0  0.53360  0.59700  0.31561  1.0000
  O   O10       1.0  0.46640  0.40300  0.68439  1.0000
  O   O11       1.0  0.44200  0.69330  0.18906  1.0000
  O   O12       1.0  0.55800  0.30670  0.81094  1.0000
  O   O13       1.0  0.70390  0.82900  0.18475  1.0000
  O   O14       1.0  0.29610  0.17100  0.81525  1.0000
  O   O15       1.0  0.80220  0.75100  0.32533  1.0000
  O   O16       1.0  0.19780  0.24900  0.67467  1.0000
  O   O17       1.0  0.19570  0.41140  0.31730  1.0000
  O   O18       1.0  0.80430  0.58860  0.68270  1.0000
  O   O19       1.0  0.26070  0.36500  0.19236  1.0000
  O   O20       1.0  0.73930  0.63500  0.80764  1.0000
  O   O21       1.0  0.12780  0.10460  0.18827  1.0000
  O   O22       1.0  0.87220  0.89540  0.81173  1.0000
  O   O23       1.0  0.05250  0.15430  0.32006  1.0000
  O   O24       1.0  0.94750  0.84570  0.67994  1.0000
  C   C1        1.0  0.22450  0.77280  0.29720  1.0000
  C   C2        1.0  0.77550  0.22720  0.70280  1.0000
  C   C3        1.0  0.08420  0.66200  0.22410  1.0000
  C   C4        1.0  0.91580  0.33800  0.77590  1.0000
  C   C5        1.0  0.65330  0.69500  0.29190  1.0000
  C   C6        1.0  0.34670  0.30500  0.70810  1.0000
  C   C7        1.0  0.59720  0.74400  0.21500  1.0000
  C   C8        1.0  0.40280  0.25600  0.78500  1.0000
  C   C9        1.0  0.13690  0.26690  0.29190  1.0000
  C   C10       1.0  0.86310  0.73310  0.70810  1.0000
  C   C11       1.0  0.17570  0.23720  0.21740  1.0000
  C   C12       1.0  0.82430  0.76280  0.78260  1.0000
