data_image0
_chemical_formula_structural       Ni2O2H4N4O6H2O8P2C2H4C2H4C4H4C4H2C2H2
_chemical_formula_sum              "Ni2 O16 H22 N4 P2 C14"
_cell_length_a       6.96
_cell_length_b       10.68
_cell_length_c       12.14
_cell_angle_alpha    71.13
_cell_angle_beta     80.85
_cell_angle_gamma    72.86

_space_group_name_H-M_alt    "P 1"
_space_group_IT_number       1

loop_
  _space_group_symop_operation_xyz
  'x, y, z'

loop_
  _atom_site_type_symbol
  _atom_site_label
  _atom_site_symmetry_multiplicity
  _atom_site_fract_x
  _atom_site_fract_y
  _atom_site_fract_z
  _atom_site_occupancy
  Ni  Ni1       1.0  0.74350  0.58144  0.75818  1.0000
  Ni  Ni2       1.0  0.25650  0.41856  0.24182  1.0000
  O   O1        1.0  0.94250  0.40130  0.72950  1.0000
  O   O2        1.0  0.05750  0.59870  0.27050  1.0000
  H   H1        1.0  0.94100  0.36500  0.67800  1.0000
  H   H2        1.0  0.05900  0.63500  0.32200  1.0000
  H   H3        1.0  0.06100  0.40200  0.73500  1.0000
  H   H4        1.0  0.93900  0.59800  0.26500  1.0000
  N   N1        1.0  0.56700  0.64020  0.61687  1.0000
  N   N2        1.0  0.43300  0.35980  0.38313  1.0000
  N   N3        1.0  0.89000  0.53690  0.90372  1.0000
  N   N4        1.0  0.11000  0.46310  0.09628  1.0000
  O   O3        1.0  0.94130  0.68620  0.64933  1.0000
  O   O4        1.0  0.05870  0.31380  0.35067  1.0000
  O   O5        1.0  0.05900  0.71980  0.43479  1.0000
  O   O6        1.0  0.94100  0.28020  0.56521  1.0000
  O   O7        1.0  0.78430  0.89930  0.50359  1.0000
  O   O8        1.0  0.21570  0.10070  0.49641  1.0000
  H   H5        1.0  0.75100  0.95000  0.42650  1.0000
  H   H6        1.0  0.24900  0.05000  0.57350  1.0000
  O   O9        1.0  0.55890  0.75650  0.78930  1.0000
  O   O10       1.0  0.44110  0.24350  0.21070  1.0000
  O   O11       1.0  0.33250  0.94840  0.70620  1.0000
  O   O12       1.0  0.66750  0.05160  0.29380  1.0000
  O   O13       1.0  0.53810  0.47320  0.83578  1.0000
  O   O14       1.0  0.46190  0.52680  0.16422  1.0000
  O   O15       1.0  0.31260  0.38840  0.79435  1.0000
  O   O16       1.0  0.68740  0.61160  0.20565  1.0000
  P   P1        1.0  0.89111  0.74201  0.52452  1.0000
  P   P2        1.0  0.10889  0.25799  0.47548  1.0000
  C   C1        1.0  0.70400  0.66110  0.50990  1.0000
  C   C2        1.0  0.29600  0.33890  0.49010  1.0000
  H   H7        1.0  0.62650  0.71840  0.44340  1.0000
  H   H8        1.0  0.37350  0.28160  0.55660  1.0000
  H   H9        1.0  0.77120  0.57340  0.49610  1.0000
  H   H10       1.0  0.22880  0.42660  0.50390  1.0000
  C   C3        1.0  0.41010  0.76850  0.62100  1.0000
  C   C4        1.0  0.58990  0.23150  0.37900  1.0000
  H   H11       1.0  0.27890  0.74940  0.63600  1.0000
  H   H12       1.0  0.72110  0.25060  0.36400  1.0000
  H   H13       1.0  0.41210  0.83590  0.54510  1.0000
  H   H14       1.0  0.58790  0.16410  0.45490  1.0000
  C   C5        1.0  0.43570  0.82920  0.71230  1.0000
  C   C6        1.0  0.56430  0.17080  0.28770  1.0000
  C   C7        1.0  0.47600  0.52540  0.63650  1.0000
  C   C8        1.0  0.52400  0.47460  0.36350  1.0000
  H   H15       1.0  0.56580  0.45780  0.60150  1.0000
  H   H16       1.0  0.43420  0.54220  0.39850  1.0000
  H   H17       1.0  0.35000  0.55910  0.59900  1.0000
  H   H18       1.0  0.65000  0.44090  0.40100  1.0000
  C   C9        1.0  0.43670  0.45820  0.76550  1.0000
  C   C10       1.0  0.56330  0.54180  0.23450  1.0000
  C   C11       1.0  0.02090  0.60360  0.90760  1.0000
  C   C12       1.0  0.97910  0.39640  0.09240  1.0000
  H   H19       1.0  0.03870  0.67730  0.84410  1.0000
  H   H20       1.0  0.96130  0.32270  0.15590  1.0000
  C   C13       1.0  0.86890  0.43330  0.99690  1.0000
  C   C14       1.0  0.13110  0.56670  0.00310  1.0000
  H   H21       1.0  0.77760  0.38450  0.99790  1.0000
  H   H22       1.0  0.22240  0.61550  0.00210  1.0000
