data_image0
_chemical_formula_structural       Co2O2H4N4P2O6H2O8C2H4C2H4C4H4C4H2C2H2
_chemical_formula_sum              "Co2 O16 H22 N4 P2 C14"
_cell_length_a       7.048
_cell_length_b       10.674
_cell_length_c       12.234
_cell_angle_alpha    71.18
_cell_angle_beta     79.85
_cell_angle_gamma    72.86

_space_group_name_H-M_alt    "P 1"
_space_group_IT_number       1

loop_
  _space_group_symop_operation_xyz
  'x, y, z'

loop_
  _atom_site_type_symbol
  _atom_site_label
  _atom_site_symmetry_multiplicity
  _atom_site_fract_x
  _atom_site_fract_y
  _atom_site_fract_z
  _atom_site_occupancy
  Co  Co1       1.0  0.25978  0.41883  0.23970  1.0000
  Co  Co2       1.0  0.74022  0.58117  0.76030  1.0000
  O   O1        1.0  0.05530  0.59950  0.26970  1.0000
  O   O2        1.0  0.94470  0.40050  0.73030  1.0000
  H   H1        1.0  0.94200  0.59600  0.26100  1.0000
  H   H2        1.0  0.05800  0.40400  0.73900  1.0000
  H   H3        1.0  0.04700  0.63000  0.32600  1.0000
  H   H4        1.0  0.95300  0.37000  0.67400  1.0000
  N   N1        1.0  0.43820  0.35920  0.38340  1.0000
  N   N2        1.0  0.56180  0.64080  0.61660  1.0000
  N   N3        1.0  0.11230  0.46220  0.09300  1.0000
  N   N4        1.0  0.88770  0.53780  0.90700  1.0000
  P   P1        1.0  0.11370  0.25715  0.47572  1.0000
  P   P2        1.0  0.88630  0.74285  0.52428  1.0000
  O   O3        1.0  0.06510  0.31300  0.35280  1.0000
  O   O4        1.0  0.93490  0.68700  0.64720  1.0000
  O   O5        1.0  0.94590  0.27860  0.56690  1.0000
  O   O6        1.0  0.05410  0.72140  0.43310  1.0000
  O   O7        1.0  0.21940  0.10050  0.49410  1.0000
  O   O8        1.0  0.78060  0.89950  0.50590  1.0000
  H   H5        1.0  0.25000  0.04100  0.56900  1.0000
  H   H6        1.0  0.75000  0.95900  0.43100  1.0000
  O   O9        1.0  0.45280  0.24470  0.20800  1.0000
  O   O10       1.0  0.54720  0.75530  0.79200  1.0000
  O   O11       1.0  0.67300  0.05350  0.29080  1.0000
  O   O12       1.0  0.32700  0.94650  0.70920  1.0000
  O   O13       1.0  0.46030  0.53490  0.16540  1.0000
  O   O14       1.0  0.53970  0.46510  0.83460  1.0000
  O   O15       1.0  0.69080  0.61310  0.20470  1.0000
  O   O16       1.0  0.30920  0.38690  0.79530  1.0000
  C   C1        1.0  0.29840  0.33820  0.48940  1.0000
  C   C2        1.0  0.70160  0.66180  0.51060  1.0000
  H   H7        1.0  0.23150  0.42590  0.50330  1.0000
  H   H8        1.0  0.76850  0.57410  0.49670  1.0000
  H   H9        1.0  0.37270  0.28130  0.55550  1.0000
  H   H10       1.0  0.62730  0.71870  0.44450  1.0000
  C   C3        1.0  0.59090  0.23250  0.37750  1.0000
  C   C4        1.0  0.40910  0.76750  0.62250  1.0000
  H   H11       1.0  0.58460  0.16390  0.45190  1.0000
  H   H12       1.0  0.41540  0.83610  0.54810  1.0000
  H   H13       1.0  0.72120  0.25070  0.36470  1.0000
  H   H14       1.0  0.27880  0.74930  0.63530  1.0000
  C   C5        1.0  0.57160  0.17410  0.28400  1.0000
  C   C6        1.0  0.42840  0.82590  0.71600  1.0000
  C   C7        1.0  0.52810  0.47490  0.36160  1.0000
  C   C8        1.0  0.47190  0.52510  0.63840  1.0000
  H   H15       1.0  0.65300  0.44130  0.39720  1.0000
  H   H16       1.0  0.34700  0.55870  0.60280  1.0000
  H   H17       1.0  0.43980  0.54120  0.39860  1.0000
  H   H18       1.0  0.56020  0.45880  0.60140  1.0000
  C   C9        1.0  0.56700  0.54560  0.23450  1.0000
  C   C10       1.0  0.43300  0.45440  0.76550  1.0000
  C   C11       1.0  0.98260  0.39480  0.09100  1.0000
  C   C12       1.0  0.01740  0.60520  0.90900  1.0000
  H   H19       1.0  0.96600  0.32040  0.15380  1.0000
  H   H20       1.0  0.03400  0.67960  0.84620  1.0000
  C   C13       1.0  0.12820  0.56740  0.00210  1.0000
  C   C14       1.0  0.87180  0.43260  0.99790  1.0000
  H   H21       1.0  0.21670  0.61760  0.00070  1.0000
  H   H22       1.0  0.78330  0.38240  0.99930  1.0000
