data_image0
_chemical_formula_structural       U8O4H8O52P12C8H4C8H4C8H4C4H8C4H8C4H8
_chemical_formula_sum              "U8 O56 H44 P12 C36"
_cell_length_a       12.498
_cell_length_b       21.561
_cell_length_c       10.037
_cell_angle_alpha    90
_cell_angle_beta     109.279
_cell_angle_gamma    90

_space_group_name_H-M_alt    "P 1"
_space_group_IT_number       1

loop_
  _space_group_symop_operation_xyz
  'x, y, z'

loop_
  _atom_site_type_symbol
  _atom_site_label
  _atom_site_symmetry_multiplicity
  _atom_site_fract_x
  _atom_site_fract_y
  _atom_site_fract_z
  _atom_site_occupancy
  U   U1        1.0  0.17053  0.34289  0.62036  1.0000
  U   U2        1.0  0.82947  0.84289  0.87964  1.0000
  U   U3        1.0  0.82947  0.65711  0.37964  1.0000
  U   U4        1.0  0.17053  0.15711  0.12036  1.0000
  U   U5        1.0  0.53151  0.51948  0.74888  1.0000
  U   U6        1.0  0.46849  0.01948  0.75112  1.0000
  U   U7        1.0  0.46849  0.48052  0.25112  1.0000
  U   U8        1.0  0.53151  0.98052  0.24888  1.0000
  O   O1        1.0  0.14700  0.32770  0.36410  1.0000
  O   O2        1.0  0.85300  0.82770  0.13590  1.0000
  O   O3        1.0  0.85300  0.67230  0.63590  1.0000
  O   O4        1.0  0.14700  0.17230  0.86410  1.0000
  H   H1        1.0  0.14830  0.28840  0.35810  1.0000
  H   H2        1.0  0.85170  0.78840  0.14190  1.0000
  H   H3        1.0  0.85170  0.71160  0.64190  1.0000
  H   H4        1.0  0.14830  0.21160  0.85810  1.0000
  H   H5        1.0  0.19070  0.34660  0.32850  1.0000
  H   H6        1.0  0.80930  0.84660  0.17150  1.0000
  H   H7        1.0  0.80930  0.65340  0.67150  1.0000
  H   H8        1.0  0.19070  0.15340  0.82850  1.0000
  O   O5        1.0  0.09610  0.25890  0.04010  1.0000
  O   O6        1.0  0.90390  0.75890  0.45990  1.0000
  O   O7        1.0  0.90390  0.74110  0.95990  1.0000
  O   O8        1.0  0.09610  0.24110  0.54010  1.0000
  O   O9        1.0  0.13770  0.29650  0.82170  1.0000
  O   O10       1.0  0.86230  0.79650  0.67830  1.0000
  O   O11       1.0  0.86230  0.70350  0.17830  1.0000
  O   O12       1.0  0.13770  0.20350  0.32170  1.0000
  O   O13       1.0  0.23960  0.34270  0.06820  1.0000
  O   O14       1.0  0.76040  0.84270  0.43180  1.0000
  O   O15       1.0  0.76040  0.65730  0.93180  1.0000
  O   O16       1.0  0.23960  0.15730  0.56820  1.0000
  O   O17       1.0  0.67280  0.53280  0.96140  1.0000
  O   O18       1.0  0.32720  0.03280  0.53860  1.0000
  O   O19       1.0  0.32720  0.46720  0.03860  1.0000
  O   O20       1.0  0.67280  0.96720  0.46140  1.0000
  O   O21       1.0  0.76750  0.58470  0.19290  1.0000
  O   O22       1.0  0.23250  0.08470  0.30710  1.0000
  O   O23       1.0  0.23250  0.41530  0.80710  1.0000
  O   O24       1.0  0.76750  0.91530  0.69290  1.0000
  O   O25       1.0  0.58020  0.52890  0.14770  1.0000
  O   O26       1.0  0.41980  0.02890  0.35230  1.0000
  O   O27       1.0  0.41980  0.47110  0.85230  1.0000
  O   O28       1.0  0.58020  0.97110  0.64770  1.0000
  O   O29       1.0  0.34770  0.43720  0.35820  1.0000
  O   O30       1.0  0.65230  0.93720  0.14180  1.0000
  O   O31       1.0  0.65230  0.56280  0.64180  1.0000
  O   O32       1.0  0.34770  0.06280  0.85820  1.0000
  O   O33       1.0  0.37830  0.51500  0.55520  1.0000
  O   O34       1.0  0.62170  0.01500  0.94480  1.0000
  O   O35       1.0  0.62170  0.48500  0.44480  1.0000
  O   O36       1.0  0.37830  0.98500  0.05520  1.0000
  O   O37       1.0  0.23710  0.42640  0.52730  1.0000
  O   O38       1.0  0.76290  0.92640  0.97270  1.0000
  O   O39       1.0  0.76290  0.57360  0.47270  1.0000
  O   O40       1.0  0.23710  0.07360  0.02730  1.0000
  O   O41       1.0  0.30720  0.30970  0.66730  1.0000
  O   O42       1.0  0.69280  0.80970  0.83270  1.0000
  O   O43       1.0  0.69280  0.69030  0.33270  1.0000
  O   O44       1.0  0.30720  0.19030  0.16730  1.0000
  O   O45       1.0  0.03240  0.37370  0.57050  1.0000
  O   O46       1.0  0.96760  0.87370  0.92950  1.0000
  O   O47       1.0  0.96760  0.62630  0.42950  1.0000
  O   O48       1.0  0.03240  0.12630  0.07050  1.0000
  O   O49       1.0  0.48220  0.59570  0.77240  1.0000
  O   O50       1.0  0.51780  0.09570  0.72760  1.0000
  O   O51       1.0  0.51780  0.40430  0.22760  1.0000
  O   O52       1.0  0.48220  0.90430  0.27240  1.0000
  O   O53       1.0  0.58480  0.44510  0.72570  1.0000
  O   O54       1.0  0.41520  0.94510  0.77430  1.0000
  O   O55       1.0  0.41520  0.55490  0.27430  1.0000
  O   O56       1.0  0.58480  0.05490  0.22570  1.0000
  P   P1        1.0  0.12490  0.31368  0.96480  1.0000
  P   P2        1.0  0.87510  0.81368  0.53520  1.0000
  P   P3        1.0  0.87510  0.68632  0.03520  1.0000
  P   P4        1.0  0.12490  0.18632  0.46480  1.0000
  P   P5        1.0  0.69410  0.53028  0.12180  1.0000
  P   P6        1.0  0.30590  0.03028  0.37820  1.0000
  P   P7        1.0  0.30590  0.46972  0.87820  1.0000
  P   P8        1.0  0.69410  0.96972  0.62180  1.0000
  P   P9        1.0  0.29010  0.47110  0.45200  1.0000
  P   P10       1.0  0.70990  0.97110  0.04800  1.0000
  P   P11       1.0  0.70990  0.52890  0.54800  1.0000
  P   P12       1.0  0.29010  0.02890  0.95200  1.0000
  C   C1        1.0  0.00300  0.41210  0.04720  1.0000
  C   C2        1.0  0.99700  0.91210  0.45280  1.0000
  C   C3        1.0  0.99700  0.58790  0.95280  1.0000
  C   C4        1.0  0.00300  0.08790  0.54720  1.0000
  C   C5        1.0  0.89870  0.41630  0.06660  1.0000
  C   C6        1.0  0.10130  0.91630  0.43340  1.0000
  C   C7        1.0  0.10130  0.58370  0.93340  1.0000
  C   C8        1.0  0.89870  0.08370  0.56660  1.0000
  H   H9        1.0  0.83800  0.39420  0.00650  1.0000
  H   H10       1.0  0.16200  0.89420  0.49350  1.0000
  H   H11       1.0  0.16200  0.60580  0.99350  1.0000
  H   H12       1.0  0.83800  0.10580  0.50650  1.0000
  C   C9        1.0  0.88070  0.45230  0.17190  1.0000
  C   C10       1.0  0.11930  0.95230  0.32810  1.0000
  C   C11       1.0  0.11930  0.54770  0.82810  1.0000
  C   C12       1.0  0.88070  0.04770  0.67190  1.0000
  C   C13       1.0  0.97490  0.48380  0.26410  1.0000
  C   C14       1.0  0.02510  0.98380  0.23590  1.0000
  C   C15       1.0  0.02510  0.51620  0.73590  1.0000
  C   C16       1.0  0.97490  0.01620  0.76410  1.0000
  H   H13       1.0  0.96680  0.50640  0.33920  1.0000
  H   H14       1.0  0.03320  0.00640  0.16080  1.0000
  H   H15       1.0  0.03320  0.49360  0.66080  1.0000
  H   H16       1.0  0.96680  0.99360  0.83920  1.0000
  C   C17       1.0  0.07910  0.48170  0.24460  1.0000
  C   C18       1.0  0.92090  0.98170  0.25540  1.0000
  C   C19       1.0  0.92090  0.51830  0.75540  1.0000
  C   C20       1.0  0.07910  0.01830  0.74460  1.0000
  C   C21       1.0  0.09160  0.44800  0.13580  1.0000
  C   C22       1.0  0.90840  0.94800  0.36420  1.0000
  C   C23       1.0  0.90840  0.55200  0.86420  1.0000
  C   C24       1.0  0.09160  0.05200  0.63580  1.0000
  H   H17       1.0  0.16080  0.44880  0.11980  1.0000
  H   H18       1.0  0.83920  0.94880  0.38020  1.0000
  H   H19       1.0  0.83920  0.55120  0.88020  1.0000
  H   H20       1.0  0.16080  0.05120  0.61980  1.0000
  C   C25       1.0  0.01800  0.37340  0.92810  1.0000
  C   C26       1.0  0.98200  0.87340  0.57190  1.0000
  C   C27       1.0  0.98200  0.62660  0.07190  1.0000
  C   C28       1.0  0.01800  0.12660  0.42810  1.0000
  H   H21       1.0  0.03270  0.40190  0.86150  1.0000
  H   H22       1.0  0.96730  0.90190  0.63850  1.0000
  H   H23       1.0  0.96730  0.59810  0.13850  1.0000
  H   H24       1.0  0.03270  0.09810  0.36150  1.0000
  H   H25       1.0  0.94570  0.35380  0.87980  1.0000
  H   H26       1.0  0.05430  0.85380  0.62020  1.0000
  H   H27       1.0  0.05430  0.64620  0.12020  1.0000
  H   H28       1.0  0.94570  0.14620  0.37980  1.0000
  C   C29       1.0  0.76630  0.45920  0.19160  1.0000
  C   C30       1.0  0.23370  0.95920  0.30840  1.0000
  C   C31       1.0  0.23370  0.54080  0.80840  1.0000
  C   C32       1.0  0.76630  0.04080  0.69160  1.0000
  H   H29       1.0  0.77670  0.45710  0.29160  1.0000
  H   H30       1.0  0.22330  0.95710  0.20840  1.0000
  H   H31       1.0  0.22330  0.54290  0.70840  1.0000
  H   H32       1.0  0.77670  0.04290  0.79160  1.0000
  H   H33       1.0  0.71870  0.42460  0.14610  1.0000
  H   H34       1.0  0.28130  0.92460  0.35390  1.0000
  H   H35       1.0  0.28130  0.57540  0.85390  1.0000
  H   H36       1.0  0.71870  0.07540  0.64610  1.0000
  C   C33       1.0  0.17650  0.51910  0.34150  1.0000
  C   C34       1.0  0.82350  0.01910  0.15850  1.0000
  C   C35       1.0  0.82350  0.48090  0.65850  1.0000
  C   C36       1.0  0.17650  0.98090  0.84150  1.0000
  H   H37       1.0  0.14810  0.54510  0.40120  1.0000
  H   H38       1.0  0.85190  0.04510  0.09880  1.0000
  H   H39       1.0  0.85190  0.45490  0.59880  1.0000
  H   H40       1.0  0.14810  0.95490  0.90120  1.0000
  H   H41       1.0  0.20640  0.54600  0.28490  1.0000
  H   H42       1.0  0.79360  0.04600  0.21510  1.0000
  H   H43       1.0  0.79360  0.45400  0.71510  1.0000
  H   H44       1.0  0.20640  0.95400  0.78490  1.0000
