data_image0
_chemical_formula_structural       Au4C8F4C4F4C4F4C4F4C4F4C8F4C4F4C4F4C4F4C4F4Ag4N4O12Ag4N4O12Au4C8F4C4F4C4F4C4F4C4F4C4F4C8F4C4F4C4F4C4F4
_chemical_formula_sum              "Au8 C96 F80 Ag8 N8 O24"
_cell_length_a       14.713
_cell_length_b       17.364
_cell_length_c       27.669
_cell_angle_alpha    90
_cell_angle_beta     90
_cell_angle_gamma    90

_space_group_name_H-M_alt    "P 1"
_space_group_IT_number       1

loop_
  _space_group_symop_operation_xyz
  'x, y, z'

loop_
  _atom_site_type_symbol
  _atom_site_label
  _atom_site_symmetry_multiplicity
  _atom_site_fract_x
  _atom_site_fract_y
  _atom_site_fract_z
  _atom_site_occupancy
  Au  Au1       1.0  0.04620  0.24452  0.49680  1.0000
  Au  Au2       1.0  0.45380  0.75548  0.99680  1.0000
  Au  Au3       1.0  0.54620  0.25548  0.50320  1.0000
  Au  Au4       1.0  0.95380  0.74452  0.00320  1.0000
  C   C1        1.0  0.04980  0.14650  0.45400  1.0000
  C   C2        1.0  0.45020  0.85350  0.95400  1.0000
  C   C3        1.0  0.54980  0.35350  0.54600  1.0000
  C   C4        1.0  0.95020  0.64650  0.04600  1.0000
  C   C5        1.0  0.01670  0.14280  0.40740  1.0000
  C   C6        1.0  0.48330  0.85720  0.90740  1.0000
  C   C7        1.0  0.51670  0.35720  0.59260  1.0000
  C   C8        1.0  0.98330  0.64280  0.09260  1.0000
  F   F1        1.0  0.99320  0.20750  0.38343  1.0000
  F   F2        1.0  0.50680  0.79250  0.88343  1.0000
  F   F3        1.0  0.49320  0.29250  0.61657  1.0000
  F   F4        1.0  0.00680  0.70750  0.11657  1.0000
  C   C9        1.0  0.00470  0.07410  0.38310  1.0000
  C   C10       1.0  0.49530  0.92590  0.88310  1.0000
  C   C11       1.0  0.50470  0.42590  0.61690  1.0000
  C   C12       1.0  0.99530  0.57410  0.11690  1.0000
  F   F5        1.0  0.97030  0.07130  0.33806  1.0000
  F   F6        1.0  0.52970  0.92870  0.83806  1.0000
  F   F7        1.0  0.47030  0.42870  0.66194  1.0000
  F   F8        1.0  0.02970  0.57130  0.16194  1.0000
  C   C13       1.0  0.02740  0.00590  0.40510  1.0000
  C   C14       1.0  0.47260  0.99410  0.90510  1.0000
  C   C15       1.0  0.52740  0.49410  0.59490  1.0000
  C   C16       1.0  0.97260  0.50590  0.09490  1.0000
  F   F9        1.0  0.01590  0.93830  0.38234  1.0000
  F   F10       1.0  0.48410  0.06170  0.88234  1.0000
  F   F11       1.0  0.51590  0.56170  0.61766  1.0000
  F   F12       1.0  0.98410  0.43830  0.11766  1.0000
  C   C17       1.0  0.06220  0.00670  0.45130  1.0000
  C   C18       1.0  0.43780  0.99330  0.95130  1.0000
  C   C19       1.0  0.56220  0.49330  0.54870  1.0000
  C   C20       1.0  0.93780  0.50670  0.04870  1.0000
  F   F13       1.0  0.08440  0.94040  0.47441  1.0000
  F   F14       1.0  0.41560  0.05960  0.97441  1.0000
  F   F15       1.0  0.58440  0.55960  0.52559  1.0000
  F   F16       1.0  0.91560  0.44040  0.02559  1.0000
  C   C21       1.0  0.07380  0.07640  0.47450  1.0000
  C   C22       1.0  0.42620  0.92360  0.97450  1.0000
  C   C23       1.0  0.57380  0.42360  0.52550  1.0000
  C   C24       1.0  0.92620  0.57640  0.02550  1.0000
  F   F17       1.0  0.10490  0.07480  0.52103  1.0000
  F   F18       1.0  0.39510  0.92520  0.02103  1.0000
  F   F19       1.0  0.60490  0.42520  0.47897  1.0000
  F   F20       1.0  0.89510  0.57480  0.97897  1.0000
  C   C25       1.0  0.05260  0.33890  0.54100  1.0000
  C   C26       1.0  0.44740  0.66110  0.04100  1.0000
  C   C27       1.0  0.55260  0.16110  0.45900  1.0000
  C   C28       1.0  0.94740  0.83890  0.95900  1.0000
  C   C29       1.0  0.01970  0.34090  0.58790  1.0000
  C   C30       1.0  0.48030  0.65910  0.08790  1.0000
  C   C31       1.0  0.51970  0.15910  0.41210  1.0000
  C   C32       1.0  0.98030  0.84090  0.91210  1.0000
  F   F21       1.0  0.98360  0.27710  0.60798  1.0000
  F   F22       1.0  0.51640  0.72290  0.10798  1.0000
  F   F23       1.0  0.48360  0.22290  0.39202  1.0000
  F   F24       1.0  0.01640  0.77710  0.89202  1.0000
  C   C33       1.0  0.01720  0.40740  0.61650  1.0000
  C   C34       1.0  0.48280  0.59260  0.11650  1.0000
  C   C35       1.0  0.51720  0.09260  0.38350  1.0000
  C   C36       1.0  0.98280  0.90740  0.88350  1.0000
  F   F25       1.0  0.98140  0.40780  0.66094  1.0000
  F   F26       1.0  0.51860  0.59220  0.16094  1.0000
  F   F27       1.0  0.48140  0.09220  0.33906  1.0000
  F   F28       1.0  0.01860  0.90780  0.83906  1.0000
  C   C37       1.0  0.05440  0.47360  0.59770  1.0000
  C   C38       1.0  0.44560  0.52640  0.09770  1.0000
  C   C39       1.0  0.55440  0.02640  0.40230  1.0000
  C   C40       1.0  0.94560  0.97360  0.90230  1.0000
  F   F29       1.0  0.05640  0.53730  0.62620  1.0000
  F   F30       1.0  0.44360  0.46270  0.12620  1.0000
  F   F31       1.0  0.55640  0.96270  0.37380  1.0000
  F   F32       1.0  0.94360  0.03730  0.87380  1.0000
  C   C41       1.0  0.08900  0.47470  0.55170  1.0000
  C   C42       1.0  0.41100  0.52530  0.05170  1.0000
  C   C43       1.0  0.58900  0.02530  0.44830  1.0000
  C   C44       1.0  0.91100  0.97470  0.94830  1.0000
  F   F33       1.0  0.12550  0.54020  0.53321  1.0000
  F   F34       1.0  0.37450  0.45980  0.03321  1.0000
  F   F35       1.0  0.62550  0.95980  0.46679  1.0000
  F   F36       1.0  0.87450  0.04020  0.96679  1.0000
  C   C45       1.0  0.08720  0.41030  0.52480  1.0000
  C   C46       1.0  0.41280  0.58970  0.02480  1.0000
  C   C47       1.0  0.58720  0.08970  0.47520  1.0000
  C   C48       1.0  0.91280  0.91030  0.97520  1.0000
  F   F37       1.0  0.12070  0.41430  0.47915  1.0000
  F   F38       1.0  0.37930  0.58570  0.97915  1.0000
  F   F39       1.0  0.62070  0.08570  0.52085  1.0000
  F   F40       1.0  0.87930  0.91430  0.02085  1.0000
  Ag  Ag1       1.0  0.19914  0.22905  0.55048  1.0000
  Ag  Ag2       1.0  0.30086  0.77095  0.05048  1.0000
  Ag  Ag3       1.0  0.69914  0.27095  0.44952  1.0000
  Ag  Ag4       1.0  0.80086  0.72905  0.94952  1.0000
  N   N1        1.0  0.19270  0.18000  0.64670  1.0000
  N   N2        1.0  0.30730  0.82000  0.14670  1.0000
  N   N3        1.0  0.69270  0.32000  0.35330  1.0000
  N   N4        1.0  0.80730  0.68000  0.85330  1.0000
  O   O1        1.0  0.17910  0.13160  0.61350  1.0000
  O   O2        1.0  0.32090  0.86840  0.11350  1.0000
  O   O3        1.0  0.67910  0.36840  0.38650  1.0000
  O   O4        1.0  0.82090  0.63160  0.88650  1.0000
  O   O5        1.0  0.21060  0.24850  0.63402  1.0000
  O   O6        1.0  0.28940  0.75150  0.13402  1.0000
  O   O7        1.0  0.71060  0.25150  0.36598  1.0000
  O   O8        1.0  0.78940  0.74850  0.86598  1.0000
  O   O9        1.0  0.18800  0.16260  0.69010  1.0000
  O   O10       1.0  0.31200  0.83740  0.19010  1.0000
  O   O11       1.0  0.68800  0.33740  0.30990  1.0000
  O   O12       1.0  0.81200  0.66260  0.80990  1.0000
  Ag  Ag5       1.0  0.20121  0.25881  0.44504  1.0000
  Ag  Ag6       1.0  0.29879  0.74119  0.94504  1.0000
  Ag  Ag7       1.0  0.70121  0.24119  0.55496  1.0000
  Ag  Ag8       1.0  0.79879  0.75881  0.05496  1.0000
  N   N5        1.0  0.20090  0.31160  0.34950  1.0000
  N   N6        1.0  0.29910  0.68840  0.84950  1.0000
  N   N7        1.0  0.70090  0.18840  0.65050  1.0000
  N   N8        1.0  0.79910  0.81160  0.15050  1.0000
  O   O13       1.0  0.22560  0.24430  0.36155  1.0000
  O   O14       1.0  0.27440  0.75570  0.86155  1.0000
  O   O15       1.0  0.72560  0.25570  0.63845  1.0000
  O   O16       1.0  0.77440  0.74430  0.13845  1.0000
  O   O17       1.0  0.17480  0.35530  0.38280  1.0000
  O   O18       1.0  0.32520  0.64470  0.88280  1.0000
  O   O19       1.0  0.67480  0.14470  0.61720  1.0000
  O   O20       1.0  0.82520  0.85530  0.11720  1.0000
  O   O21       1.0  0.19850  0.33200  0.30640  1.0000
  O   O22       1.0  0.30150  0.66800  0.80640  1.0000
  O   O23       1.0  0.69850  0.16800  0.69360  1.0000
  O   O24       1.0  0.80150  0.83200  0.19360  1.0000
  Au  Au5       1.0  0.35528  0.24507  0.49909  1.0000
  Au  Au6       1.0  0.14472  0.75493  0.99909  1.0000
  Au  Au7       1.0  0.85528  0.25493  0.50091  1.0000
  Au  Au8       1.0  0.64472  0.74507  0.00091  1.0000
  C   C49       1.0  0.34450  0.12700  0.50510  1.0000
  C   C50       1.0  0.15550  0.87300  0.00510  1.0000
  C   C51       1.0  0.84450  0.37300  0.49490  1.0000
  C   C52       1.0  0.65550  0.62700  0.99490  1.0000
  C   C53       1.0  0.35210  0.08620  0.54770  1.0000
  C   C54       1.0  0.14790  0.91380  0.04770  1.0000
  C   C55       1.0  0.85210  0.41380  0.45230  1.0000
  C   C56       1.0  0.64790  0.58620  0.95230  1.0000
  F   F41       1.0  0.37800  0.12400  0.58920  1.0000
  F   F42       1.0  0.12200  0.87600  0.08920  1.0000
  F   F43       1.0  0.87800  0.37600  0.41080  1.0000
  F   F44       1.0  0.62200  0.62400  0.91080  1.0000
  C   C57       1.0  0.33450  0.00880  0.55160  1.0000
  C   C58       1.0  0.16550  0.99120  0.05160  1.0000
  C   C59       1.0  0.83450  0.49120  0.44840  1.0000
  C   C60       1.0  0.66550  0.50880  0.94840  1.0000
  F   F45       1.0  0.34080  0.97120  0.59525  1.0000
  F   F46       1.0  0.15920  0.02880  0.09525  1.0000
  F   F47       1.0  0.84080  0.52880  0.40475  1.0000
  F   F48       1.0  0.65920  0.47120  0.90475  1.0000
  C   C61       1.0  0.31040  0.96860  0.51140  1.0000
  C   C62       1.0  0.18960  0.03140  0.01140  1.0000
  C   C63       1.0  0.81040  0.53140  0.48860  1.0000
  C   C64       1.0  0.68960  0.46860  0.98860  1.0000
  F   F49       1.0  0.28970  0.89170  0.51532  1.0000
  F   F50       1.0  0.21030  0.10830  0.01532  1.0000
  F   F51       1.0  0.78970  0.60830  0.48468  1.0000
  F   F52       1.0  0.71030  0.39170  0.98468  1.0000
  C   C65       1.0  0.30110  0.00470  0.46710  1.0000
  C   C66       1.0  0.19890  0.99530  0.96710  1.0000
  C   C67       1.0  0.80110  0.49530  0.53290  1.0000
  C   C68       1.0  0.69890  0.50470  0.03290  1.0000
  F   F53       1.0  0.27840  0.96570  0.42817  1.0000
  F   F54       1.0  0.22160  0.03430  0.92817  1.0000
  F   F55       1.0  0.77840  0.53430  0.57183  1.0000
  F   F56       1.0  0.72160  0.46570  0.07183  1.0000
  C   C69       1.0  0.31890  0.08340  0.46580  1.0000
  C   C70       1.0  0.18110  0.91660  0.96580  1.0000
  C   C71       1.0  0.81890  0.41660  0.53420  1.0000
  C   C72       1.0  0.68110  0.58340  0.03420  1.0000
  F   F57       1.0  0.30960  0.11670  0.42182  1.0000
  F   F58       1.0  0.19040  0.88330  0.92182  1.0000
  F   F59       1.0  0.80960  0.38330  0.57818  1.0000
  F   F60       1.0  0.69040  0.61670  0.07818  1.0000
  C   C73       1.0  0.34660  0.36240  0.49390  1.0000
  C   C74       1.0  0.15340  0.63760  0.99390  1.0000
  C   C75       1.0  0.84660  0.13760  0.50610  1.0000
  C   C76       1.0  0.65340  0.86240  0.00610  1.0000
  F   F61       1.0  0.31490  0.37110  0.57784  1.0000
  F   F62       1.0  0.18510  0.62890  0.07784  1.0000
  F   F63       1.0  0.81490  0.12890  0.42216  1.0000
  F   F64       1.0  0.68510  0.87110  0.92216  1.0000
  C   C77       1.0  0.32680  0.40630  0.53360  1.0000
  C   C78       1.0  0.17320  0.59370  0.03360  1.0000
  C   C79       1.0  0.82680  0.09370  0.46640  1.0000
  C   C80       1.0  0.67320  0.90630  0.96640  1.0000
  C   C81       1.0  0.32010  0.48590  0.53410  1.0000
  C   C82       1.0  0.17990  0.51410  0.03410  1.0000
  C   C83       1.0  0.82010  0.01410  0.46590  1.0000
  C   C84       1.0  0.67990  0.98590  0.96590  1.0000
  F   F65       1.0  0.30400  0.52510  0.57566  1.0000
  F   F66       1.0  0.19600  0.47490  0.07566  1.0000
  F   F67       1.0  0.80400  0.97490  0.42434  1.0000
  F   F68       1.0  0.69600  0.02510  0.92434  1.0000
  C   C85       1.0  0.32870  0.52480  0.49120  1.0000
  C   C86       1.0  0.17130  0.47520  0.99120  1.0000
  C   C87       1.0  0.82870  0.97520  0.50880  1.0000
  C   C88       1.0  0.67130  0.02480  0.00880  1.0000
  F   F69       1.0  0.31910  0.60230  0.48925  1.0000
  F   F70       1.0  0.18090  0.39770  0.98925  1.0000
  F   F71       1.0  0.81910  0.89770  0.51075  1.0000
  F   F72       1.0  0.68090  0.10230  0.01075  1.0000
  C   C89       1.0  0.34670  0.48440  0.44980  1.0000
  C   C90       1.0  0.15330  0.51560  0.94980  1.0000
  C   C91       1.0  0.84670  0.01560  0.55020  1.0000
  C   C92       1.0  0.65330  0.98440  0.05020  1.0000
  F   F73       1.0  0.35290  0.52290  0.40753  1.0000
  F   F74       1.0  0.14710  0.47710  0.90753  1.0000
  F   F75       1.0  0.85290  0.97710  0.59247  1.0000
  F   F76       1.0  0.64710  0.02290  0.09247  1.0000
  C   C93       1.0  0.35710  0.40480  0.45190  1.0000
  C   C94       1.0  0.14290  0.59520  0.95190  1.0000
  C   C95       1.0  0.85710  0.09520  0.54810  1.0000
  C   C96       1.0  0.64290  0.90480  0.04810  1.0000
  F   F77       1.0  0.37570  0.36830  0.40925  1.0000
  F   F78       1.0  0.12430  0.63170  0.90925  1.0000
  F   F79       1.0  0.87570  0.13170  0.59075  1.0000
  F   F80       1.0  0.62430  0.86830  0.09075  1.0000
