data_image0
_chemical_formula_structural       Ga4Se6F2C2O22
_chemical_formula_sum              "Ga4 Se6 F2 C2 O22"
_cell_length_a       8.9941
_cell_length_b       9.4963
_cell_length_c       11.2959
_cell_angle_alpha    77.128
_cell_angle_beta     68.073
_cell_angle_gamma    83.776

_space_group_name_H-M_alt    "P 1"
_space_group_IT_number       1

loop_
  _space_group_symop_operation_xyz
  'x, y, z'

loop_
  _atom_site_type_symbol
  _atom_site_label
  _atom_site_symmetry_multiplicity
  _atom_site_fract_x
  _atom_site_fract_y
  _atom_site_fract_z
  _atom_site_occupancy
  Ga  Ga1       1.0  0.89904  0.72677  0.10327  1.0000
  Ga  Ga2       1.0  0.10096  0.27323  0.89673  1.0000
  Ga  Ga3       1.0  0.21921  0.64599  0.51976  1.0000
  Ga  Ga4       1.0  0.78079  0.35401  0.48024  1.0000
  Se  Se1       1.0  0.06446  0.61977  0.84001  1.0000
  Se  Se2       1.0  0.93554  0.38023  0.15999  1.0000
  Se  Se3       1.0  0.58752  0.61922  0.35127  1.0000
  Se  Se4       1.0  0.41248  0.38078  0.64873  1.0000
  Se  Se5       1.0  0.02061  0.62847  0.34618  1.0000
  Se  Se6       1.0  0.97939  0.37153  0.65382  1.0000
  F   F1        1.0  0.29190  0.82830  0.50020  1.0000
  F   F2        1.0  0.70810  0.17170  0.49980  1.0000
  C   C1        1.0  0.08770  0.97370  0.98050  1.0000
  C   C2        1.0  0.91230  0.02630  0.01950  1.0000
  O   O1        1.0  0.90750  0.71500  0.92830  1.0000
  O   O2        1.0  0.09250  0.28500  0.07170  1.0000
  O   O3        1.0  0.04410  0.67400  0.69190  1.0000
  O   O4        1.0  0.95590  0.32600  0.30810  1.0000
  O   O5        1.0  0.97910  0.45390  0.88640  1.0000
  O   O6        1.0  0.02090  0.54610  0.11360  1.0000
  O   O7        1.0  0.39780  0.61330  0.35380  1.0000
  O   O8        1.0  0.60220  0.38670  0.64620  1.0000
  O   O9        1.0  0.63510  0.43930  0.38250  1.0000
  O   O10       1.0  0.36490  0.56070  0.61750  1.0000
  O   O11       1.0  0.68420  0.65680  0.18640  1.0000
  O   O12       1.0  0.31580  0.34320  0.81360  1.0000
  O   O13       1.0  0.92650  0.75870  0.26350  1.0000
  O   O14       1.0  0.07350  0.24130  0.73650  1.0000
  O   O15       1.0  0.85440  0.54670  0.46470  1.0000
  O   O16       1.0  0.14560  0.45330  0.53530  1.0000
  O   O17       1.0  0.07120  0.73310  0.42820  1.0000
  O   O18       1.0  0.92880  0.26690  0.57180  1.0000
  O   O19       1.0  0.11530  0.84030  0.00630  1.0000
  O   O20       1.0  0.88470  0.15970  0.99370  1.0000
  O   O21       1.0  0.19080  0.06970  0.92470  1.0000
  O   O22       1.0  0.80920  0.93030  0.07530  1.0000
