data_image0
_chemical_formula_structural       Fe16Cl32O32C16O16C16O16
_chemical_formula_sum              "Fe16 Cl32 O64 C32"
_cell_length_a       13.5878
_cell_length_b       37.972
_cell_length_c       10.821
_cell_angle_alpha    90
_cell_angle_beta     90
_cell_angle_gamma    90

_space_group_name_H-M_alt    "P 1"
_space_group_IT_number       1

loop_
  _space_group_symop_operation_xyz
  'x, y, z'

loop_
  _atom_site_type_symbol
  _atom_site_label
  _atom_site_symmetry_multiplicity
  _atom_site_fract_x
  _atom_site_fract_y
  _atom_site_fract_z
  _atom_site_occupancy
  Fe  Fe1       1.0  0.28815  0.08131  0.05066  1.0000
  Fe  Fe2       1.0  0.71185  0.91869  0.05066  1.0000
  Fe  Fe3       1.0  0.53815  0.16869  0.30066  1.0000
  Fe  Fe4       1.0  0.96185  0.33131  0.30066  1.0000
  Fe  Fe5       1.0  0.28815  0.58131  0.55066  1.0000
  Fe  Fe6       1.0  0.71185  0.41869  0.55066  1.0000
  Fe  Fe7       1.0  0.53815  0.66869  0.80066  1.0000
  Fe  Fe8       1.0  0.96185  0.83131  0.80066  1.0000
  Fe  Fe9       1.0  0.78815  0.08131  0.55066  1.0000
  Fe  Fe10      1.0  0.21185  0.91869  0.55066  1.0000
  Fe  Fe11      1.0  0.03815  0.16869  0.80066  1.0000
  Fe  Fe12      1.0  0.46185  0.33131  0.80066  1.0000
  Fe  Fe13      1.0  0.78815  0.58131  0.05066  1.0000
  Fe  Fe14      1.0  0.21185  0.41869  0.05066  1.0000
  Fe  Fe15      1.0  0.03815  0.66869  0.30066  1.0000
  Fe  Fe16      1.0  0.46185  0.83131  0.30066  1.0000
  Cl  Cl1       1.0  0.39496  0.04033  0.97799  1.0000
  Cl  Cl2       1.0  0.60504  0.95967  0.97799  1.0000
  Cl  Cl3       1.0  0.64496  0.20967  0.22799  1.0000
  Cl  Cl4       1.0  0.85504  0.29033  0.22799  1.0000
  Cl  Cl5       1.0  0.39496  0.54033  0.47799  1.0000
  Cl  Cl6       1.0  0.60504  0.45967  0.47799  1.0000
  Cl  Cl7       1.0  0.64496  0.70967  0.72799  1.0000
  Cl  Cl8       1.0  0.85504  0.79033  0.72799  1.0000
  Cl  Cl9       1.0  0.89496  0.04033  0.47799  1.0000
  Cl  Cl10      1.0  0.10504  0.95967  0.47799  1.0000
  Cl  Cl11      1.0  0.14496  0.20967  0.72799  1.0000
  Cl  Cl12      1.0  0.35504  0.29033  0.72799  1.0000
  Cl  Cl13      1.0  0.89496  0.54033  0.97799  1.0000
  Cl  Cl14      1.0  0.10504  0.45967  0.97799  1.0000
  Cl  Cl15      1.0  0.14496  0.70967  0.22799  1.0000
  Cl  Cl16      1.0  0.35504  0.79033  0.22799  1.0000
  Cl  Cl17      1.0  0.16814  0.04468  0.11287  1.0000
  Cl  Cl18      1.0  0.83186  0.95532  0.11287  1.0000
  Cl  Cl19      1.0  0.41814  0.20532  0.36287  1.0000
  Cl  Cl20      1.0  0.08186  0.29468  0.36287  1.0000
  Cl  Cl21      1.0  0.16814  0.54468  0.61287  1.0000
  Cl  Cl22      1.0  0.83186  0.45532  0.61287  1.0000
  Cl  Cl23      1.0  0.41814  0.70532  0.86287  1.0000
  Cl  Cl24      1.0  0.08186  0.79468  0.86287  1.0000
  Cl  Cl25      1.0  0.66814  0.04468  0.61287  1.0000
  Cl  Cl26      1.0  0.33186  0.95532  0.61287  1.0000
  Cl  Cl27      1.0  0.91814  0.20532  0.86287  1.0000
  Cl  Cl28      1.0  0.58186  0.29468  0.86287  1.0000
  Cl  Cl29      1.0  0.66814  0.54468  0.11287  1.0000
  Cl  Cl30      1.0  0.33186  0.45532  0.11287  1.0000
  Cl  Cl31      1.0  0.91814  0.70532  0.36287  1.0000
  Cl  Cl32      1.0  0.58186  0.79468  0.36287  1.0000
  O   O1        1.0  0.19280  0.12606  0.08190  1.0000
  O   O2        1.0  0.80720  0.87394  0.08190  1.0000
  O   O3        1.0  0.44280  0.12394  0.33190  1.0000
  O   O4        1.0  0.05720  0.37606  0.33190  1.0000
  O   O5        1.0  0.19280  0.62606  0.58190  1.0000
  O   O6        1.0  0.80720  0.37394  0.58190  1.0000
  O   O7        1.0  0.44280  0.62394  0.83190  1.0000
  O   O8        1.0  0.05720  0.87606  0.83190  1.0000
  O   O9        1.0  0.69280  0.12606  0.58190  1.0000
  O   O10       1.0  0.30720  0.87394  0.58190  1.0000
  O   O11       1.0  0.94280  0.12394  0.83190  1.0000
  O   O12       1.0  0.55720  0.37606  0.83190  1.0000
  O   O13       1.0  0.69280  0.62606  0.08190  1.0000
  O   O14       1.0  0.30720  0.37394  0.08190  1.0000
  O   O15       1.0  0.94280  0.62394  0.33190  1.0000
  O   O16       1.0  0.55720  0.87606  0.33190  1.0000
  O   O17       1.0  0.23850  0.09169  0.87670  1.0000
  O   O18       1.0  0.76150  0.90831  0.87670  1.0000
  O   O19       1.0  0.48850  0.15831  0.12670  1.0000
  O   O20       1.0  0.01150  0.34169  0.12670  1.0000
  O   O21       1.0  0.23850  0.59169  0.37670  1.0000
  O   O22       1.0  0.76150  0.40831  0.37670  1.0000
  O   O23       1.0  0.48850  0.65831  0.62670  1.0000
  O   O24       1.0  0.01150  0.84169  0.62670  1.0000
  O   O25       1.0  0.73850  0.09169  0.37670  1.0000
  O   O26       1.0  0.26150  0.90831  0.37670  1.0000
  O   O27       1.0  0.98850  0.15831  0.62670  1.0000
  O   O28       1.0  0.51150  0.34169  0.62670  1.0000
  O   O29       1.0  0.73850  0.59169  0.87670  1.0000
  O   O30       1.0  0.26150  0.40831  0.87670  1.0000
  O   O31       1.0  0.98850  0.65831  0.12670  1.0000
  O   O32       1.0  0.51150  0.84169  0.12670  1.0000
  C   C1        1.0  0.17950  0.11687  0.86720  1.0000
  C   C2        1.0  0.82050  0.88313  0.86720  1.0000
  C   C3        1.0  0.42950  0.13313  0.11720  1.0000
  C   C4        1.0  0.07050  0.36687  0.11720  1.0000
  C   C5        1.0  0.17950  0.61687  0.36720  1.0000
  C   C6        1.0  0.82050  0.38313  0.36720  1.0000
  C   C7        1.0  0.42950  0.63313  0.61720  1.0000
  C   C8        1.0  0.07050  0.86687  0.61720  1.0000
  C   C9        1.0  0.67950  0.11687  0.36720  1.0000
  C   C10       1.0  0.32050  0.88313  0.36720  1.0000
  C   C11       1.0  0.92950  0.13313  0.61720  1.0000
  C   C12       1.0  0.57050  0.36687  0.61720  1.0000
  C   C13       1.0  0.67950  0.61687  0.86720  1.0000
  C   C14       1.0  0.32050  0.38313  0.86720  1.0000
  C   C15       1.0  0.92950  0.63313  0.11720  1.0000
  C   C16       1.0  0.57050  0.86687  0.11720  1.0000
  O   O33       1.0  0.14030  0.12759  0.76940  1.0000
  O   O34       1.0  0.85970  0.87241  0.76940  1.0000
  O   O35       1.0  0.39030  0.12241  0.01940  1.0000
  O   O36       1.0  0.10970  0.37759  0.01940  1.0000
  O   O37       1.0  0.14030  0.62759  0.26940  1.0000
  O   O38       1.0  0.85970  0.37241  0.26940  1.0000
  O   O39       1.0  0.39030  0.62241  0.51940  1.0000
  O   O40       1.0  0.10970  0.87759  0.51940  1.0000
  O   O41       1.0  0.64030  0.12759  0.26940  1.0000
  O   O42       1.0  0.35970  0.87241  0.26940  1.0000
  O   O43       1.0  0.89030  0.12241  0.51940  1.0000
  O   O44       1.0  0.60970  0.37759  0.51940  1.0000
  O   O45       1.0  0.64030  0.62759  0.76940  1.0000
  O   O46       1.0  0.35970  0.37241  0.76940  1.0000
  O   O47       1.0  0.89030  0.62241  0.01940  1.0000
  O   O48       1.0  0.60970  0.87759  0.01940  1.0000
  C   C17       1.0  0.15270  0.13628  0.98610  1.0000
  C   C18       1.0  0.84730  0.86372  0.98610  1.0000
  C   C19       1.0  0.40270  0.11372  0.23610  1.0000
  C   C20       1.0  0.09730  0.38628  0.23610  1.0000
  C   C21       1.0  0.15270  0.63628  0.48610  1.0000
  C   C22       1.0  0.84730  0.36372  0.48610  1.0000
  C   C23       1.0  0.40270  0.61372  0.73610  1.0000
  C   C24       1.0  0.09730  0.88628  0.73610  1.0000
  C   C25       1.0  0.65270  0.13628  0.48610  1.0000
  C   C26       1.0  0.34730  0.86372  0.48610  1.0000
  C   C27       1.0  0.90270  0.11372  0.73610  1.0000
  C   C28       1.0  0.59730  0.38628  0.73610  1.0000
  C   C29       1.0  0.65270  0.63628  0.98610  1.0000
  C   C30       1.0  0.34730  0.36372  0.98610  1.0000
  C   C31       1.0  0.90270  0.61372  0.23610  1.0000
  C   C32       1.0  0.59730  0.88628  0.23610  1.0000
  O   O49       1.0  0.09304  0.16157  0.97370  1.0000
  O   O50       1.0  0.90696  0.83843  0.97370  1.0000
  O   O51       1.0  0.34304  0.08843  0.22370  1.0000
  O   O52       1.0  0.15696  0.41157  0.22370  1.0000
  O   O53       1.0  0.09304  0.66157  0.47370  1.0000
  O   O54       1.0  0.90696  0.33843  0.47370  1.0000
  O   O55       1.0  0.34304  0.58843  0.72370  1.0000
  O   O56       1.0  0.15696  0.91157  0.72370  1.0000
  O   O57       1.0  0.59304  0.16157  0.47370  1.0000
  O   O58       1.0  0.40696  0.83843  0.47370  1.0000
  O   O59       1.0  0.84304  0.08843  0.72370  1.0000
  O   O60       1.0  0.65696  0.41157  0.72370  1.0000
  O   O61       1.0  0.59304  0.66157  0.97370  1.0000
  O   O62       1.0  0.40696  0.33843  0.97370  1.0000
  O   O63       1.0  0.84304  0.58843  0.22370  1.0000
  O   O64       1.0  0.65696  0.91157  0.22370  1.0000
