data_image0
_chemical_formula_structural       Fe6Cl12O24C12
_chemical_formula_sum              "Fe6 Cl12 O24 C12"
_cell_length_a       10.9609
_cell_length_b       14.4602
_cell_length_c       14.578
_cell_angle_alpha    85.006
_cell_angle_beta     78.845
_cell_angle_gamma    83.0191

_space_group_name_H-M_alt    "P 1"
_space_group_IT_number       1

loop_
  _space_group_symop_operation_xyz
  'x, y, z'

loop_
  _atom_site_type_symbol
  _atom_site_label
  _atom_site_symmetry_multiplicity
  _atom_site_fract_x
  _atom_site_fract_y
  _atom_site_fract_z
  _atom_site_occupancy
  Fe  Fe1       1.0  0.09480  0.98780  0.16367  1.0000
  Fe  Fe2       1.0  0.90520  0.01220  0.83633  1.0000
  Fe  Fe3       1.0  0.23571  0.33711  0.16307  1.0000
  Fe  Fe4       1.0  0.76429  0.66289  0.83693  1.0000
  Fe  Fe5       1.0  0.41624  0.33145  0.48831  1.0000
  Fe  Fe6       1.0  0.58376  0.66855  0.51169  1.0000
  Cl  Cl1       1.0  0.26100  0.90109  0.20822  1.0000
  Cl  Cl2       1.0  0.73900  0.09891  0.79178  1.0000
  Cl  Cl3       1.0  0.93810  0.91340  0.24790  1.0000
  Cl  Cl4       1.0  0.06190  0.08660  0.75210  1.0000
  Cl  Cl5       1.0  0.06600  0.40973  0.11110  1.0000
  Cl  Cl6       1.0  0.93400  0.59027  0.88890  1.0000
  Cl  Cl7       1.0  0.38590  0.41452  0.07044  1.0000
  Cl  Cl8       1.0  0.61410  0.58548  0.92956  1.0000
  Cl  Cl9       1.0  0.57910  0.24085  0.54900  1.0000
  Cl  Cl10      1.0  0.42090  0.75915  0.45100  1.0000
  Cl  Cl11      1.0  0.25490  0.25384  0.57921  1.0000
  Cl  Cl12      1.0  0.74510  0.74616  0.42079  1.0000
  O   O1        1.0  0.21210  0.08320  0.07810  1.0000
  O   O2        1.0  0.78790  0.91680  0.92190  1.0000
  O   O3        1.0  0.07190  0.09730  0.24670  1.0000
  O   O4        1.0  0.92810  0.90270  0.75330  1.0000
  O   O5        1.0  0.12210  0.24030  0.24980  1.0000
  O   O6        1.0  0.87790  0.75970  0.75020  1.0000
  O   O7        1.0  0.26570  0.22450  0.08040  1.0000
  O   O8        1.0  0.73430  0.77550  0.91960  1.0000
  O   O9        1.0  0.21310  0.40970  0.27850  1.0000
  O   O10       1.0  0.78690  0.59030  0.72150  1.0000
  O   O11       1.0  0.37040  0.25970  0.23450  1.0000
  O   O12       1.0  0.62960  0.74030  0.76550  1.0000
  O   O13       1.0  0.28430  0.41180  0.41200  1.0000
  O   O14       1.0  0.71570  0.58820  0.58800  1.0000
  O   O15       1.0  0.43910  0.25710  0.36910  1.0000
  O   O16       1.0  0.56090  0.74290  0.63090  1.0000
  O   O17       1.0  0.11210  0.92230  0.04240  1.0000
  O   O18       1.0  0.88790  0.07770  0.95760  1.0000
  O   O19       1.0  0.04180  0.92720  0.90900  1.0000
  O   O20       1.0  0.95820  0.07280  0.09100  1.0000
  O   O21       1.0  0.39340  0.43470  0.57860  1.0000
  O   O22       1.0  0.60660  0.56530  0.42140  1.0000
  O   O23       1.0  0.45880  0.57720  0.58980  1.0000
  O   O24       1.0  0.54120  0.42280  0.41020  1.0000
  C   C1        1.0  0.21070  0.15750  0.11460  1.0000
  C   C2        1.0  0.78930  0.84250  0.88540  1.0000
  C   C3        1.0  0.12910  0.16740  0.21300  1.0000
  C   C4        1.0  0.87090  0.83260  0.78700  1.0000
  C   C5        1.0  0.28320  0.37940  0.33690  1.0000
  C   C6        1.0  0.71680  0.62060  0.66310  1.0000
  C   C7        1.0  0.37140  0.29010  0.31120  1.0000
  C   C8        1.0  0.62860  0.70990  0.68880  1.0000
  C   C9        1.0  0.04480  0.95680  0.98590  1.0000
  C   C10       1.0  0.95520  0.04320  0.01410  1.0000
  C   C11       1.0  0.45420  0.50180  0.54980  1.0000
  C   C12       1.0  0.54580  0.49820  0.45020  1.0000
