data_image0
_chemical_formula_structural       Fe4Cl8C8O16
_chemical_formula_sum              "Fe4 Cl8 C8 O16"
_cell_length_a       8.8836
_cell_length_b       15.1939
_cell_length_c       17.9685
_cell_angle_alpha    90
_cell_angle_beta     91.556
_cell_angle_gamma    90

_space_group_name_H-M_alt    "P 1"
_space_group_IT_number       1

loop_
  _space_group_symop_operation_xyz
  'x, y, z'

loop_
  _atom_site_type_symbol
  _atom_site_label
  _atom_site_symmetry_multiplicity
  _atom_site_fract_x
  _atom_site_fract_y
  _atom_site_fract_z
  _atom_site_occupancy
  Fe  Fe1       1.0  0.24497  0.02455  0.91276  1.0000
  Fe  Fe2       1.0  0.75503  0.52455  0.58724  1.0000
  Fe  Fe3       1.0  0.75503  0.97545  0.08724  1.0000
  Fe  Fe4       1.0  0.24497  0.47545  0.41276  1.0000
  Cl  Cl1       1.0  0.15407  0.96363  0.80686  1.0000
  Cl  Cl2       1.0  0.84593  0.46363  0.69314  1.0000
  Cl  Cl3       1.0  0.84593  0.03637  0.19314  1.0000
  Cl  Cl4       1.0  0.15407  0.53637  0.30686  1.0000
  Cl  Cl5       1.0  0.34419  0.14890  0.86534  1.0000
  Cl  Cl6       1.0  0.65581  0.64890  0.63466  1.0000
  Cl  Cl7       1.0  0.65581  0.85110  0.13466  1.0000
  Cl  Cl8       1.0  0.34419  0.35110  0.36534  1.0000
  C   C1        1.0  0.02500  0.95370  0.00860  1.0000
  C   C2        1.0  0.97500  0.45370  0.49140  1.0000
  C   C3        1.0  0.97500  0.04630  0.99140  1.0000
  C   C4        1.0  0.02500  0.54630  0.50860  1.0000
  C   C5        1.0  0.47160  0.03090  0.02980  1.0000
  C   C6        1.0  0.52840  0.53090  0.47020  1.0000
  C   C7        1.0  0.52840  0.96910  0.97020  1.0000
  C   C8        1.0  0.47160  0.46910  0.52980  1.0000
  O   O1        1.0  0.14230  0.92590  0.97930  1.0000
  O   O2        1.0  0.85770  0.42590  0.52070  1.0000
  O   O3        1.0  0.85770  0.07410  0.02070  1.0000
  O   O4        1.0  0.14230  0.57410  0.47930  1.0000
  O   O5        1.0  0.34160  0.06220  0.01850  1.0000
  O   O6        1.0  0.65840  0.56220  0.48150  1.0000
  O   O7        1.0  0.65840  0.93780  0.98150  1.0000
  O   O8        1.0  0.34160  0.43780  0.51850  1.0000
  O   O9        1.0  0.55920  0.04810  0.08290  1.0000
  O   O10       1.0  0.44080  0.54810  0.41710  1.0000
  O   O11       1.0  0.44080  0.95190  0.91710  1.0000
  O   O12       1.0  0.55920  0.45190  0.58290  1.0000
  O   O13       1.0  0.94260  0.91010  0.05330  1.0000
  O   O14       1.0  0.05740  0.41010  0.44670  1.0000
  O   O15       1.0  0.05740  0.08990  0.94670  1.0000
  O   O16       1.0  0.94260  0.58990  0.55330  1.0000
