data_image0
_chemical_formula_structural       Cu4N24C16
_chemical_formula_sum              "Cu4 N24 C16"
_cell_length_a       12.7929
_cell_length_b       13.4006
_cell_length_c       14.4847
_cell_angle_alpha    90
_cell_angle_beta     90
_cell_angle_gamma    90

_space_group_name_H-M_alt    "P 1"
_space_group_IT_number       1

loop_
  _space_group_symop_operation_xyz
  'x, y, z'

loop_
  _atom_site_type_symbol
  _atom_site_label
  _atom_site_symmetry_multiplicity
  _atom_site_fract_x
  _atom_site_fract_y
  _atom_site_fract_z
  _atom_site_occupancy
  Cu  Cu1       1.0  0.50274  0.09989  0.39858  1.0000
  Cu  Cu2       1.0  0.99726  0.90011  0.89858  1.0000
  Cu  Cu3       1.0  0.49726  0.59989  0.10142  1.0000
  Cu  Cu4       1.0  0.00274  0.40011  0.60142  1.0000
  N   N1        1.0  0.52450  0.17433  0.27500  1.0000
  N   N2        1.0  0.97550  0.82567  0.77500  1.0000
  N   N3        1.0  0.47550  0.67433  0.22500  1.0000
  N   N4        1.0  0.02450  0.32567  0.72500  1.0000
  N   N5        1.0  0.55410  0.27550  0.13528  1.0000
  N   N6        1.0  0.94590  0.72450  0.63528  1.0000
  N   N7        1.0  0.44590  0.77550  0.36472  1.0000
  N   N8        1.0  0.05410  0.22450  0.86472  1.0000
  N   N9        1.0  0.53432  0.45741  0.12412  1.0000
  N   N10       1.0  0.96568  0.54259  0.62412  1.0000
  N   N11       1.0  0.46568  0.95741  0.37588  1.0000
  N   N12       1.0  0.03432  0.04259  0.87588  1.0000
  N   N13       1.0  0.40650  0.18380  0.47300  1.0000
  N   N14       1.0  0.09350  0.81620  0.97300  1.0000
  N   N15       1.0  0.59350  0.68380  0.02700  1.0000
  N   N16       1.0  0.90650  0.31620  0.52700  1.0000
  N   N17       1.0  0.33030  0.32640  0.55610  1.0000
  N   N18       1.0  0.16970  0.67360  0.05610  1.0000
  N   N19       1.0  0.66970  0.82640  0.94390  1.0000
  N   N20       1.0  0.83030  0.17360  0.44390  1.0000
  N   N21       1.0  0.15360  0.39550  0.54821  1.0000
  N   N22       1.0  0.34640  0.60450  0.04821  1.0000
  N   N23       1.0  0.84640  0.89550  0.95179  1.0000
  N   N24       1.0  0.65360  0.10450  0.45179  1.0000
  C   C1        1.0  0.53690  0.22520  0.21210  1.0000
  C   C2        1.0  0.96310  0.77480  0.71210  1.0000
  C   C3        1.0  0.46310  0.72520  0.28790  1.0000
  C   C4        1.0  0.03690  0.27480  0.78790  1.0000
  C   C5        1.0  0.54250  0.37220  0.13384  1.0000
  C   C6        1.0  0.95750  0.62780  0.63384  1.0000
  C   C7        1.0  0.45750  0.87220  0.36616  1.0000
  C   C8        1.0  0.04250  0.12780  0.86616  1.0000
  C   C9        1.0  0.36590  0.24950  0.51030  1.0000
  C   C10       1.0  0.13410  0.75050  0.01030  1.0000
  C   C11       1.0  0.63410  0.74950  0.98970  1.0000
  C   C12       1.0  0.86590  0.25050  0.48970  1.0000
  C   C13       1.0  0.23530  0.35950  0.54799  1.0000
  C   C14       1.0  0.26470  0.64050  0.04799  1.0000
  C   C15       1.0  0.76470  0.85950  0.95201  1.0000
  C   C16       1.0  0.73530  0.14050  0.45201  1.0000
