data_image0
_chemical_formula_structural       V4Se4O24C4
_chemical_formula_sum              "V4 Se4 O24 C4"
_cell_length_a       9.024
_cell_length_b       9.571
_cell_length_c       12.313
_cell_angle_alpha    68.243
_cell_angle_beta     73.643
_cell_angle_gamma    82.752

_space_group_name_H-M_alt    "P 1"
_space_group_IT_number       1

loop_
  _space_group_symop_operation_xyz
  'x, y, z'

loop_
  _atom_site_type_symbol
  _atom_site_label
  _atom_site_symmetry_multiplicity
  _atom_site_fract_x
  _atom_site_fract_y
  _atom_site_fract_z
  _atom_site_occupancy
  V   V1        1.0  0.53883  0.71313  0.29200  1.0000
  V   V2        1.0  0.46117  0.28687  0.70800  1.0000
  V   V3        1.0  0.35535  0.31206  0.20562  1.0000
  V   V4        1.0  0.64465  0.68794  0.79438  1.0000
  Se  Se1       1.0  0.48220  0.36230  0.41576  1.0000
  Se  Se2       1.0  0.51780  0.63770  0.58424  1.0000
  Se  Se3       1.0  0.44452  0.65471  0.06435  1.0000
  Se  Se4       1.0  0.55548  0.34529  0.93565  1.0000
  O   O1        1.0  0.69608  0.62707  0.24541  1.0000
  O   O2        1.0  0.30392  0.37293  0.75459  1.0000
  O   O3        1.0  0.41271  0.27146  0.56493  1.0000
  O   O4        1.0  0.58729  0.72854  0.43507  1.0000
  O   O5        1.0  0.40344  0.53994  0.39793  1.0000
  O   O6        1.0  0.59656  0.46006  0.60207  1.0000
  O   O7        1.0  0.44181  0.74663  0.15690  1.0000
  O   O8        1.0  0.55819  0.25337  0.84310  1.0000
  O   O9        1.0  0.33280  0.85346  0.33535  1.0000
  O   O10       1.0  0.66720  0.14654  0.66465  1.0000
  O   O11       1.0  0.62399  0.92603  0.21231  1.0000
  O   O12       1.0  0.37601  0.07397  0.78769  1.0000
  O   O13       1.0  0.19657  0.40825  0.19340  1.0000
  O   O14       1.0  0.80343  0.59175  0.80660  1.0000
  O   O15       1.0  0.26562  0.09923  0.28662  1.0000
  O   O16       1.0  0.73438  0.90077  0.71338  1.0000
  O   O17       1.0  0.56673  0.16384  0.20333  1.0000
  O   O18       1.0  0.43327  0.83616  0.79667  1.0000
  O   O19       1.0  0.35882  0.28613  0.37272  1.0000
  O   O20       1.0  0.64118  0.71387  0.62728  1.0000
  O   O21       1.0  0.50594  0.47523  0.13678  1.0000
  O   O22       1.0  0.49406  0.52477  0.86322  1.0000
  O   O23       1.0  0.60997  0.71551  0.95494  1.0000
  O   O24       1.0  0.39003  0.28449  0.04506  1.0000
  C   C1        1.0  0.36130  0.98970  0.28849  1.0000
  C   C2        1.0  0.63870  0.01030  0.71151  1.0000
  C   C3        1.0  0.53210  0.03110  0.22822  1.0000
  C   C4        1.0  0.46790  0.96890  0.77178  1.0000
