data_image0
_chemical_formula_structural       V4Se4O24C4
_chemical_formula_sum              "V4 Se4 O24 C4"
_cell_length_a       9.29
_cell_length_b       9.723
_cell_length_c       11.28
_cell_angle_alpha    110.687
_cell_angle_beta     90.346
_cell_angle_gamma    114.511

_space_group_name_H-M_alt    "P 1"
_space_group_IT_number       1

loop_
  _space_group_symop_operation_xyz
  'x, y, z'

loop_
  _atom_site_type_symbol
  _atom_site_label
  _atom_site_symmetry_multiplicity
  _atom_site_fract_x
  _atom_site_fract_y
  _atom_site_fract_z
  _atom_site_occupancy
  V   V1        1.0  0.27539  0.54122  0.63987  1.0000
  V   V2        1.0  0.72461  0.45878  0.36013  1.0000
  V   V3        1.0  0.77416  0.54069  0.88735  1.0000
  V   V4        1.0  0.22584  0.45931  0.11265  1.0000
  Se  Se1       1.0  0.58130  0.47518  0.62504  1.0000
  Se  Se2       1.0  0.41870  0.52482  0.37496  1.0000
  Se  Se3       1.0  0.09115  0.48792  0.86443  1.0000
  Se  Se4       1.0  0.90885  0.51208  0.13557  1.0000
  O   O1        1.0  0.38590  0.68300  0.77410  1.0000
  O   O2        1.0  0.61410  0.31700  0.22590  1.0000
  O   O3        1.0  0.13470  0.66060  0.63680  1.0000
  O   O4        1.0  0.86530  0.33940  0.36320  1.0000
  O   O5        1.0  0.90600  0.62810  0.53790  1.0000
  O   O6        1.0  0.09400  0.37190  0.46210  1.0000
  O   O7        1.0  0.59830  0.36060  0.47750  1.0000
  O   O8        1.0  0.40170  0.63940  0.52250  1.0000
  O   O9        1.0  0.37460  0.38720  0.60770  1.0000
  O   O10       1.0  0.62540  0.61280  0.39230  1.0000
  O   O11       1.0  0.10030  0.39930  0.70860  1.0000
  O   O12       1.0  0.89970  0.60070  0.29140  1.0000
  O   O13       1.0  0.90110  0.68590  0.85210  1.0000
  O   O14       1.0  0.09890  0.31410  0.14790  1.0000
  O   O15       1.0  0.41660  0.63760  0.04850  1.0000
  O   O16       1.0  0.58340  0.36240  0.95150  1.0000
  O   O17       1.0  0.62230  0.64630  0.94230  1.0000
  O   O18       1.0  0.37770  0.35370  0.05770  1.0000
  O   O19       1.0  0.62800  0.38880  0.71570  1.0000
  O   O20       1.0  0.37200  0.61120  0.28430  1.0000
  O   O21       1.0  0.88560  0.39680  0.85620  1.0000
  O   O22       1.0  0.11440  0.60320  0.14380  1.0000
  O   O23       1.0  0.13460  0.36840  0.92320  1.0000
  O   O24       1.0  0.86540  0.63160  0.07680  1.0000
  C   C1        1.0  0.01150  0.58360  0.55040  1.0000
  C   C2        1.0  0.98850  0.41640  0.44960  1.0000
  C   C3        1.0  0.50990  0.58300  0.99780  1.0000
  C   C4        1.0  0.49010  0.41700  0.00220  1.0000
