data_image0
_chemical_formula_structural       V4Se4O24C4
_chemical_formula_sum              "V4 Se4 O24 C4"
_cell_length_a       9.2248
_cell_length_b       11.2499
_cell_length_c       9.3512
_cell_angle_alpha    90
_cell_angle_beta     116.378
_cell_angle_gamma    90

_space_group_name_H-M_alt    "P 1"
_space_group_IT_number       1

loop_
  _space_group_symop_operation_xyz
  'x, y, z'

loop_
  _atom_site_type_symbol
  _atom_site_label
  _atom_site_symmetry_multiplicity
  _atom_site_fract_x
  _atom_site_fract_y
  _atom_site_fract_z
  _atom_site_occupancy
  V   V1        1.0  0.57023  0.62167  0.28849  1.0000
  V   V2        1.0  0.42977  0.12167  0.21151  1.0000
  V   V3        1.0  0.42977  0.37833  0.71151  1.0000
  V   V4        1.0  0.57023  0.87833  0.78849  1.0000
  Se  Se1       1.0  0.49687  0.63103  0.59393  1.0000
  Se  Se2       1.0  0.50313  0.13103  0.90607  1.0000
  Se  Se3       1.0  0.50313  0.36897  0.40607  1.0000
  Se  Se4       1.0  0.49687  0.86897  0.09393  1.0000
  O   O1        1.0  0.71880  0.70327  0.40320  1.0000
  O   O2        1.0  0.28120  0.20327  0.09680  1.0000
  O   O3        1.0  0.28120  0.29673  0.59680  1.0000
  O   O4        1.0  0.71880  0.79673  0.90320  1.0000
  O   O5        1.0  0.35980  0.53918  0.61210  1.0000
  O   O6        1.0  0.64020  0.03918  0.88790  1.0000
  O   O7        1.0  0.64020  0.46082  0.38790  1.0000
  O   O8        1.0  0.35980  0.96082  0.11210  1.0000
  O   O9        1.0  0.42120  0.63349  0.39028  1.0000
  O   O10       1.0  0.57880  0.13349  0.10972  1.0000
  O   O11       1.0  0.57880  0.36651  0.60972  1.0000
  O   O12       1.0  0.42120  0.86651  0.89028  1.0000
  O   O13       1.0  0.42750  0.76163  0.62530  1.0000
  O   O14       1.0  0.57250  0.26163  0.87470  1.0000
  O   O15       1.0  0.57250  0.23837  0.37470  1.0000
  O   O16       1.0  0.42750  0.73837  0.12530  1.0000
  O   O17       1.0  0.66650  0.58171  0.13310  1.0000
  O   O18       1.0  0.33350  0.08171  0.36690  1.0000
  O   O19       1.0  0.33350  0.41829  0.86690  1.0000
  O   O20       1.0  0.66650  0.91829  0.63310  1.0000
  O   O21       1.0  0.62160  0.49713  0.90120  1.0000
  O   O22       1.0  0.37840  0.99713  0.59880  1.0000
  O   O23       1.0  0.37840  0.50287  0.09880  1.0000
  O   O24       1.0  0.62160  0.00287  0.40120  1.0000
  C   C1        1.0  0.58230  0.52239  0.00940  1.0000
  C   C2        1.0  0.41770  0.02239  0.49060  1.0000
  C   C3        1.0  0.41770  0.47761  0.99060  1.0000
  C   C4        1.0  0.58230  0.97761  0.50940  1.0000
