data_image0
_chemical_formula_structural       O16P16C8Zn16C16P8O16Zn4C16O16C8O24H24
_chemical_formula_sum              "O72 P24 C48 Zn20 H24"
_cell_length_a       8.29575
_cell_length_b       16.4162
_cell_length_c       19.7053
_cell_angle_alpha    90
_cell_angle_beta     90
_cell_angle_gamma    90

_space_group_name_H-M_alt    "P 1"
_space_group_IT_number       1

loop_
  _space_group_symop_operation_xyz
  'x, y, z'

loop_
  _atom_site_type_symbol
  _atom_site_label
  _atom_site_symmetry_multiplicity
  _atom_site_fract_x
  _atom_site_fract_y
  _atom_site_fract_z
  _atom_site_occupancy
  O   O1        1.0  0.27730  0.30870  0.65830  1.0000
  O   O2        1.0  0.72270  0.69130  0.65830  1.0000
  O   O3        1.0  0.22270  0.80870  0.34170  1.0000
  O   O4        1.0  0.77730  0.19130  0.34170  1.0000
  O   O5        1.0  0.77730  0.80870  0.15830  1.0000
  O   O6        1.0  0.22270  0.19130  0.15830  1.0000
  O   O7        1.0  0.72270  0.30870  0.84170  1.0000
  O   O8        1.0  0.27730  0.69130  0.84170  1.0000
  O   O9        1.0  0.72270  0.69130  0.34170  1.0000
  O   O10       1.0  0.27730  0.30870  0.34170  1.0000
  O   O11       1.0  0.77730  0.19130  0.65830  1.0000
  O   O12       1.0  0.22270  0.80870  0.65830  1.0000
  O   O13       1.0  0.22270  0.19130  0.84170  1.0000
  O   O14       1.0  0.77730  0.80870  0.84170  1.0000
  O   O15       1.0  0.27730  0.69130  0.15830  1.0000
  O   O16       1.0  0.72270  0.30870  0.15830  1.0000
  P   P1        1.0  0.15180  0.37990  0.64050  1.0000
  P   P2        1.0  0.84820  0.62010  0.64050  1.0000
  P   P3        1.0  0.34820  0.87990  0.35950  1.0000
  P   P4        1.0  0.65180  0.12010  0.35950  1.0000
  P   P5        1.0  0.65180  0.87990  0.14050  1.0000
  P   P6        1.0  0.34820  0.12010  0.14050  1.0000
  P   P7        1.0  0.84820  0.37990  0.85950  1.0000
  P   P8        1.0  0.15180  0.62010  0.85950  1.0000
  P   P9        1.0  0.84820  0.62010  0.35950  1.0000
  P   P10       1.0  0.15180  0.37990  0.35950  1.0000
  P   P11       1.0  0.65180  0.12010  0.64050  1.0000
  P   P12       1.0  0.34820  0.87990  0.64050  1.0000
  P   P13       1.0  0.34820  0.12010  0.85950  1.0000
  P   P14       1.0  0.65180  0.87990  0.85950  1.0000
  P   P15       1.0  0.15180  0.62010  0.14050  1.0000
  P   P16       1.0  0.84820  0.37990  0.14050  1.0000
  C   C1        1.0  0.15642  0.39402  0.50000  1.0000
  C   C2        1.0  0.84358  0.60598  0.50000  1.0000
  C   C3        1.0  0.34358  0.89402  0.50000  1.0000
  C   C4        1.0  0.65642  0.10598  0.50000  1.0000
  C   C5        1.0  0.65642  0.89402  0.00000  1.0000
  C   C6        1.0  0.34358  0.10598  0.00000  1.0000
  C   C7        1.0  0.84358  0.39402  0.00000  1.0000
  C   C8        1.0  0.15642  0.60598  0.00000  1.0000
  Zn  Zn1       1.0  0.40010  0.25150  0.58990  1.0000
  Zn  Zn2       1.0  0.59990  0.74850  0.58990  1.0000
  Zn  Zn3       1.0  0.09990  0.75150  0.41010  1.0000
  Zn  Zn4       1.0  0.90010  0.24850  0.41010  1.0000
  Zn  Zn5       1.0  0.90010  0.75150  0.08990  1.0000
  Zn  Zn6       1.0  0.09990  0.24850  0.08990  1.0000
  Zn  Zn7       1.0  0.59990  0.25150  0.91010  1.0000
  Zn  Zn8       1.0  0.40010  0.74850  0.91010  1.0000
  Zn  Zn9       1.0  0.59990  0.74850  0.41010  1.0000
  Zn  Zn10      1.0  0.40010  0.25150  0.41010  1.0000
  Zn  Zn11      1.0  0.90010  0.24850  0.58990  1.0000
  Zn  Zn12      1.0  0.09990  0.75150  0.58990  1.0000
  Zn  Zn13      1.0  0.09990  0.24850  0.91010  1.0000
  Zn  Zn14      1.0  0.90010  0.75150  0.91010  1.0000
  Zn  Zn15      1.0  0.40010  0.74850  0.08990  1.0000
  Zn  Zn16      1.0  0.59990  0.25150  0.08990  1.0000
  C   C9        1.0  0.18467  0.43287  0.56138  1.0000
  C   C10       1.0  0.81533  0.56713  0.56138  1.0000
  C   C11       1.0  0.31533  0.93287  0.43862  1.0000
  C   C12       1.0  0.68467  0.06713  0.43862  1.0000
  C   C13       1.0  0.68467  0.93287  0.06138  1.0000
  C   C14       1.0  0.31533  0.06713  0.06138  1.0000
  C   C15       1.0  0.81533  0.43287  0.93862  1.0000
  C   C16       1.0  0.18467  0.56713  0.93862  1.0000
  C   C17       1.0  0.81533  0.56713  0.43862  1.0000
  C   C18       1.0  0.18467  0.43287  0.43862  1.0000
  C   C19       1.0  0.68467  0.06713  0.56138  1.0000
  C   C20       1.0  0.31533  0.93287  0.56138  1.0000
  C   C21       1.0  0.31533  0.06713  0.93862  1.0000
  C   C22       1.0  0.68467  0.93287  0.93862  1.0000
  C   C23       1.0  0.18467  0.56713  0.06138  1.0000
  C   C24       1.0  0.81533  0.43287  0.06138  1.0000
  P   P17       1.0  0.34150  0.65531  0.50000  1.0000
  P   P18       1.0  0.65850  0.34469  0.50000  1.0000
  P   P19       1.0  0.15850  0.15531  0.50000  1.0000
  P   P20       1.0  0.84150  0.84469  0.50000  1.0000
  P   P21       1.0  0.84150  0.15531  0.00000  1.0000
  P   P22       1.0  0.15850  0.84469  0.00000  1.0000
  P   P23       1.0  0.65850  0.65531  0.00000  1.0000
  P   P24       1.0  0.34150  0.34469  0.00000  1.0000
  O   O17       1.0  0.17430  0.43570  0.70570  1.0000
  O   O18       1.0  0.82570  0.56430  0.70570  1.0000
  O   O19       1.0  0.32570  0.93570  0.29430  1.0000
  O   O20       1.0  0.67430  0.06430  0.29430  1.0000
  O   O21       1.0  0.67430  0.93570  0.20570  1.0000
  O   O22       1.0  0.32570  0.06430  0.20570  1.0000
  O   O23       1.0  0.82570  0.43570  0.79430  1.0000
  O   O24       1.0  0.17430  0.56430  0.79430  1.0000
  O   O25       1.0  0.82570  0.56430  0.29430  1.0000
  O   O26       1.0  0.17430  0.43570  0.29430  1.0000
  O   O27       1.0  0.67430  0.06430  0.70570  1.0000
  O   O28       1.0  0.32570  0.93570  0.70570  1.0000
  O   O29       1.0  0.32570  0.06430  0.79430  1.0000
  O   O30       1.0  0.67430  0.93570  0.79430  1.0000
  O   O31       1.0  0.17430  0.56430  0.20570  1.0000
  O   O32       1.0  0.82570  0.43570  0.20570  1.0000
  Zn  Zn17      1.0  0.00000  0.50000  0.75000  1.0000
  Zn  Zn18      1.0  0.50000  0.00000  0.25000  1.0000
  Zn  Zn19      1.0  0.00000  0.50000  0.25000  1.0000
  Zn  Zn20      1.0  0.50000  0.00000  0.75000  1.0000
  C   C25       1.0  0.24243  0.51230  0.56135  1.0000
  C   C26       1.0  0.75757  0.48770  0.56135  1.0000
  C   C27       1.0  0.25757  0.01230  0.43865  1.0000
  C   C28       1.0  0.74243  0.98770  0.43865  1.0000
  C   C29       1.0  0.74243  0.01230  0.06135  1.0000
  C   C30       1.0  0.25757  0.98770  0.06135  1.0000
  C   C31       1.0  0.75757  0.51230  0.93865  1.0000
  C   C32       1.0  0.24243  0.48770  0.93865  1.0000
  C   C33       1.0  0.75757  0.48770  0.43865  1.0000
  C   C34       1.0  0.24243  0.51230  0.43865  1.0000
  C   C35       1.0  0.74243  0.98770  0.56135  1.0000
  C   C36       1.0  0.25757  0.01230  0.56135  1.0000
  C   C37       1.0  0.25757  0.98770  0.93865  1.0000
  C   C38       1.0  0.74243  0.01230  0.93865  1.0000
  C   C39       1.0  0.24243  0.48770  0.06135  1.0000
  C   C40       1.0  0.75757  0.51230  0.06135  1.0000
  O   O33       1.0  0.97720  0.34180  0.64110  1.0000
  O   O34       1.0  0.02280  0.65820  0.64110  1.0000
  O   O35       1.0  0.52280  0.84180  0.35890  1.0000
  O   O36       1.0  0.47720  0.15820  0.35890  1.0000
  O   O37       1.0  0.47720  0.84180  0.14110  1.0000
  O   O38       1.0  0.52280  0.15820  0.14110  1.0000
  O   O39       1.0  0.02280  0.34180  0.85890  1.0000
  O   O40       1.0  0.97720  0.65820  0.85890  1.0000
  O   O41       1.0  0.02280  0.65820  0.35890  1.0000
  O   O42       1.0  0.97720  0.34180  0.35890  1.0000
  O   O43       1.0  0.47720  0.15820  0.64110  1.0000
  O   O44       1.0  0.52280  0.84180  0.64110  1.0000
  O   O45       1.0  0.52280  0.15820  0.85890  1.0000
  O   O46       1.0  0.47720  0.84180  0.85890  1.0000
  O   O47       1.0  0.97720  0.65820  0.14110  1.0000
  O   O48       1.0  0.02280  0.34180  0.14110  1.0000
  C   C41       1.0  0.27080  0.55129  0.50000  1.0000
  C   C42       1.0  0.72920  0.44871  0.50000  1.0000
  C   C43       1.0  0.22920  0.05129  0.50000  1.0000
  C   C44       1.0  0.77080  0.94871  0.50000  1.0000
  C   C45       1.0  0.77080  0.05129  0.00000  1.0000
  C   C46       1.0  0.22920  0.94871  0.00000  1.0000
  C   C47       1.0  0.72920  0.55129  0.00000  1.0000
  C   C48       1.0  0.27080  0.44871  0.00000  1.0000
  O   O49       1.0  0.43100  0.67900  0.43400  1.0000
  O   O50       1.0  0.56900  0.32100  0.43400  1.0000
  O   O51       1.0  0.06900  0.17900  0.56600  1.0000
  O   O52       1.0  0.93100  0.82100  0.56600  1.0000
  O   O53       1.0  0.93100  0.17900  0.93400  1.0000
  O   O54       1.0  0.06900  0.82100  0.93400  1.0000
  O   O55       1.0  0.56900  0.67900  0.06600  1.0000
  O   O56       1.0  0.43100  0.32100  0.06600  1.0000
  O   O57       1.0  0.56900  0.32100  0.56600  1.0000
  O   O58       1.0  0.43100  0.67900  0.56600  1.0000
  O   O59       1.0  0.93100  0.82100  0.43400  1.0000
  O   O60       1.0  0.06900  0.17900  0.43400  1.0000
  O   O61       1.0  0.06900  0.82100  0.06600  1.0000
  O   O62       1.0  0.93100  0.17900  0.06600  1.0000
  O   O63       1.0  0.43100  0.32100  0.93400  1.0000
  O   O64       1.0  0.56900  0.67900  0.93400  1.0000
  O   O65       1.0  0.19500  0.71750  0.50000  1.0000
  O   O66       1.0  0.80500  0.28250  0.50000  1.0000
  O   O67       1.0  0.30500  0.21750  0.50000  1.0000
  O   O68       1.0  0.69500  0.78250  0.50000  1.0000
  O   O69       1.0  0.69500  0.21750  0.00000  1.0000
  O   O70       1.0  0.30500  0.78250  0.00000  1.0000
  O   O71       1.0  0.80500  0.71750  0.00000  1.0000
  O   O72       1.0  0.19500  0.28250  0.00000  1.0000
  H   H1        1.0  0.11650  0.33913  0.50000  1.0000
  H   H2        1.0  0.88350  0.66087  0.50000  1.0000
  H   H3        1.0  0.38350  0.83913  0.50000  1.0000
  H   H4        1.0  0.61650  0.16087  0.50000  1.0000
  H   H5        1.0  0.61650  0.83913  0.00000  1.0000
  H   H6        1.0  0.38350  0.16087  0.00000  1.0000
  H   H7        1.0  0.88350  0.33913  0.00000  1.0000
  H   H8        1.0  0.11650  0.66087  0.00000  1.0000
  H   H9        1.0  0.26257  0.53999  0.60342  1.0000
  H   H10       1.0  0.73743  0.46001  0.60342  1.0000
  H   H11       1.0  0.23743  0.03999  0.39658  1.0000
  H   H12       1.0  0.76257  0.96001  0.39658  1.0000
  H   H13       1.0  0.76257  0.03999  0.10342  1.0000
  H   H14       1.0  0.23743  0.96001  0.10342  1.0000
  H   H15       1.0  0.73743  0.53999  0.89658  1.0000
  H   H16       1.0  0.26257  0.46001  0.89658  1.0000
  H   H17       1.0  0.73743  0.46001  0.39658  1.0000
  H   H18       1.0  0.26257  0.53999  0.39658  1.0000
  H   H19       1.0  0.76257  0.96001  0.60342  1.0000
  H   H20       1.0  0.23743  0.03999  0.60342  1.0000
  H   H21       1.0  0.23743  0.96001  0.89658  1.0000
  H   H22       1.0  0.76257  0.03999  0.89658  1.0000
  H   H23       1.0  0.26257  0.46001  0.10342  1.0000
  H   H24       1.0  0.73743  0.53999  0.10342  1.0000
