data_image0
_chemical_formula_structural       Zn4O32N8H8C24H8C16H8C16H8C16H16C16H8C8H8
_chemical_formula_sum              "Zn4 O32 N8 H64 C96"
_cell_length_a       16.317
_cell_length_b       13.02
_cell_length_c       13.591
_cell_angle_alpha    90
_cell_angle_beta     100.303
_cell_angle_gamma    90

_space_group_name_H-M_alt    "P 1"
_space_group_IT_number       1

loop_
  _space_group_symop_operation_xyz
  'x, y, z'

loop_
  _atom_site_type_symbol
  _atom_site_label
  _atom_site_symmetry_multiplicity
  _atom_site_fract_x
  _atom_site_fract_y
  _atom_site_fract_z
  _atom_site_occupancy
  Zn  Zn1       1.0  0.00000  0.33665  0.75000  1.0000
  Zn  Zn2       1.0  0.50000  0.83665  0.75000  1.0000
  Zn  Zn3       1.0  0.00000  0.66335  0.25000  1.0000
  Zn  Zn4       1.0  0.50000  0.16335  0.25000  1.0000
  O   O1        1.0  0.05536  0.24280  0.66660  1.0000
  O   O2        1.0  0.94464  0.24280  0.83340  1.0000
  O   O3        1.0  0.55536  0.74280  0.66660  1.0000
  O   O4        1.0  0.44464  0.74280  0.83340  1.0000
  O   O5        1.0  0.94464  0.75720  0.33340  1.0000
  O   O6        1.0  0.05536  0.75720  0.16660  1.0000
  O   O7        1.0  0.44464  0.25720  0.33340  1.0000
  O   O8        1.0  0.55536  0.25720  0.16660  1.0000
  O   O9        1.0  0.13960  0.20130  0.80890  1.0000
  O   O10       1.0  0.86040  0.20130  0.69110  1.0000
  O   O11       1.0  0.63960  0.70130  0.80890  1.0000
  O   O12       1.0  0.36040  0.70130  0.69110  1.0000
  O   O13       1.0  0.86040  0.79870  0.19110  1.0000
  O   O14       1.0  0.13960  0.79870  0.30890  1.0000
  O   O15       1.0  0.36040  0.29870  0.19110  1.0000
  O   O16       1.0  0.63960  0.29870  0.30890  1.0000
  O   O17       1.0  0.36860  0.95640  0.81340  1.0000
  O   O18       1.0  0.63140  0.95640  0.68660  1.0000
  O   O19       1.0  0.86860  0.45640  0.81340  1.0000
  O   O20       1.0  0.13140  0.45640  0.68660  1.0000
  O   O21       1.0  0.63140  0.04360  0.18660  1.0000
  O   O22       1.0  0.36860  0.04360  0.31340  1.0000
  O   O23       1.0  0.13140  0.54360  0.18660  1.0000
  O   O24       1.0  0.86860  0.54360  0.31340  1.0000
  O   O25       1.0  0.41503  0.92570  0.67030  1.0000
  O   O26       1.0  0.58497  0.92570  0.82970  1.0000
  O   O27       1.0  0.91503  0.42570  0.67030  1.0000
  O   O28       1.0  0.08497  0.42570  0.82970  1.0000
  O   O29       1.0  0.58497  0.07430  0.32970  1.0000
  O   O30       1.0  0.41503  0.07430  0.17030  1.0000
  O   O31       1.0  0.08497  0.57430  0.32970  1.0000
  O   O32       1.0  0.91503  0.57430  0.17030  1.0000
  N   N1        1.0  0.21280  0.09410  0.40070  1.0000
  N   N2        1.0  0.78720  0.09410  0.09930  1.0000
  N   N3        1.0  0.71280  0.59410  0.40070  1.0000
  N   N4        1.0  0.28720  0.59410  0.09930  1.0000
  N   N5        1.0  0.78720  0.90590  0.59930  1.0000
  N   N6        1.0  0.21280  0.90590  0.90070  1.0000
  N   N7        1.0  0.28720  0.40590  0.59930  1.0000
  N   N8        1.0  0.71280  0.40590  0.90070  1.0000
  H   H1        1.0  0.23200  0.04380  0.37050  1.0000
  H   H2        1.0  0.76800  0.04380  0.12950  1.0000
  H   H3        1.0  0.73200  0.54380  0.37050  1.0000
  H   H4        1.0  0.26800  0.54380  0.12950  1.0000
  H   H5        1.0  0.76800  0.95620  0.62950  1.0000
  H   H6        1.0  0.23200  0.95620  0.87050  1.0000
  H   H7        1.0  0.26800  0.45620  0.62950  1.0000
  H   H8        1.0  0.73200  0.45620  0.87050  1.0000
  C   C1        1.0  0.11940  0.19670  0.71550  1.0000
  C   C2        1.0  0.88060  0.19670  0.78450  1.0000
  C   C3        1.0  0.61940  0.69670  0.71550  1.0000
  C   C4        1.0  0.38060  0.69670  0.78450  1.0000
  C   C5        1.0  0.88060  0.80330  0.28450  1.0000
  C   C6        1.0  0.11940  0.80330  0.21550  1.0000
  C   C7        1.0  0.38060  0.30330  0.28450  1.0000
  C   C8        1.0  0.61940  0.30330  0.21550  1.0000
  C   C9        1.0  0.17280  0.13670  0.65890  1.0000
  C   C10       1.0  0.82720  0.13670  0.84110  1.0000
  C   C11       1.0  0.67280  0.63670  0.65890  1.0000
  C   C12       1.0  0.32720  0.63670  0.84110  1.0000
  C   C13       1.0  0.82720  0.86330  0.34110  1.0000
  C   C14       1.0  0.17280  0.86330  0.15890  1.0000
  C   C15       1.0  0.32720  0.36330  0.34110  1.0000
  C   C16       1.0  0.67280  0.36330  0.15890  1.0000
  C   C17       1.0  0.16450  0.14430  0.55390  1.0000
  C   C18       1.0  0.83550  0.14430  0.94610  1.0000
  C   C19       1.0  0.66450  0.64430  0.55390  1.0000
  C   C20       1.0  0.33550  0.64430  0.94610  1.0000
  C   C21       1.0  0.83550  0.85570  0.44610  1.0000
  C   C22       1.0  0.16450  0.85570  0.05390  1.0000
  C   C23       1.0  0.33550  0.35570  0.44610  1.0000
  C   C24       1.0  0.66450  0.35570  0.05390  1.0000
  H   H9        1.0  0.12260  0.18500  0.51820  1.0000
  H   H10       1.0  0.87740  0.18500  0.98180  1.0000
  H   H11       1.0  0.62260  0.68500  0.51820  1.0000
  H   H12       1.0  0.37740  0.68500  0.98180  1.0000
  H   H13       1.0  0.87740  0.81500  0.48180  1.0000
  H   H14       1.0  0.12260  0.81500  0.01820  1.0000
  H   H15       1.0  0.37740  0.31500  0.48180  1.0000
  H   H16       1.0  0.62260  0.31500  0.01820  1.0000
  C   C25       1.0  0.21850  0.09130  0.50350  1.0000
  C   C26       1.0  0.78150  0.09130  0.99650  1.0000
  C   C27       1.0  0.71850  0.59130  0.50350  1.0000
  C   C28       1.0  0.28150  0.59130  0.99650  1.0000
  C   C29       1.0  0.78150  0.90870  0.49650  1.0000
  C   C30       1.0  0.21850  0.90870  0.00350  1.0000
  C   C31       1.0  0.28150  0.40870  0.49650  1.0000
  C   C32       1.0  0.71850  0.40870  0.00350  1.0000
  C   C33       1.0  0.28240  0.03160  0.55850  1.0000
  C   C34       1.0  0.71760  0.03160  0.94150  1.0000
  C   C35       1.0  0.78240  0.53160  0.55850  1.0000
  C   C36       1.0  0.21760  0.53160  0.94150  1.0000
  C   C37       1.0  0.71760  0.96840  0.44150  1.0000
  C   C38       1.0  0.28240  0.96840  0.05850  1.0000
  C   C39       1.0  0.21760  0.46840  0.44150  1.0000
  C   C40       1.0  0.78240  0.46840  0.05850  1.0000
  H   H17       1.0  0.31950  0.99710  0.52550  1.0000
  H   H18       1.0  0.68050  0.99710  0.97450  1.0000
  H   H19       1.0  0.81950  0.49710  0.52550  1.0000
  H   H20       1.0  0.18050  0.49710  0.97450  1.0000
  H   H21       1.0  0.68050  0.00290  0.47450  1.0000
  H   H22       1.0  0.31950  0.00290  0.02550  1.0000
  H   H23       1.0  0.18050  0.50290  0.47450  1.0000
  H   H24       1.0  0.81950  0.50290  0.02550  1.0000
  C   C41       1.0  0.29080  0.02360  0.66300  1.0000
  C   C42       1.0  0.70920  0.02360  0.83700  1.0000
  C   C43       1.0  0.79080  0.52360  0.66300  1.0000
  C   C44       1.0  0.20920  0.52360  0.83700  1.0000
  C   C45       1.0  0.70920  0.97640  0.33700  1.0000
  C   C46       1.0  0.29080  0.97640  0.16300  1.0000
  C   C47       1.0  0.20920  0.47640  0.33700  1.0000
  C   C48       1.0  0.79080  0.47640  0.16300  1.0000
  C   C49       1.0  0.23650  0.07560  0.71180  1.0000
  C   C50       1.0  0.76350  0.07560  0.78820  1.0000
  C   C51       1.0  0.73650  0.57560  0.71180  1.0000
  C   C52       1.0  0.26350  0.57560  0.78820  1.0000
  C   C53       1.0  0.76350  0.92440  0.28820  1.0000
  C   C54       1.0  0.23650  0.92440  0.21180  1.0000
  C   C55       1.0  0.26350  0.42440  0.28820  1.0000
  C   C56       1.0  0.73650  0.42440  0.21180  1.0000
  H   H25       1.0  0.24210  0.07000  0.78100  1.0000
  H   H26       1.0  0.75790  0.07000  0.71900  1.0000
  H   H27       1.0  0.74210  0.57000  0.78100  1.0000
  H   H28       1.0  0.25790  0.57000  0.71900  1.0000
  H   H29       1.0  0.75790  0.93000  0.21900  1.0000
  H   H30       1.0  0.24210  0.93000  0.28100  1.0000
  H   H31       1.0  0.25790  0.43000  0.21900  1.0000
  H   H32       1.0  0.74210  0.43000  0.28100  1.0000
  C   C57       1.0  0.36310  0.96360  0.72120  1.0000
  C   C58       1.0  0.63690  0.96360  0.77880  1.0000
  C   C59       1.0  0.86310  0.46360  0.72120  1.0000
  C   C60       1.0  0.13690  0.46360  0.77880  1.0000
  C   C61       1.0  0.63690  0.03640  0.27880  1.0000
  C   C62       1.0  0.36310  0.03640  0.22120  1.0000
  C   C63       1.0  0.13690  0.53640  0.27880  1.0000
  C   C64       1.0  0.86310  0.53640  0.22120  1.0000
  C   C65       1.0  0.17560  0.18200  0.34310  1.0000
  C   C66       1.0  0.82440  0.18200  0.15690  1.0000
  C   C67       1.0  0.67560  0.68200  0.34310  1.0000
  C   C68       1.0  0.32440  0.68200  0.15690  1.0000
  C   C69       1.0  0.82440  0.81800  0.65690  1.0000
  C   C70       1.0  0.17560  0.81800  0.84310  1.0000
  C   C71       1.0  0.32440  0.31800  0.65690  1.0000
  C   C72       1.0  0.67560  0.31800  0.84310  1.0000
  H   H33       1.0  0.20570  0.19360  0.28860  1.0000
  H   H34       1.0  0.79430  0.19360  0.21140  1.0000
  H   H35       1.0  0.70570  0.69360  0.28860  1.0000
  H   H36       1.0  0.29430  0.69360  0.21140  1.0000
  H   H37       1.0  0.79430  0.80640  0.71140  1.0000
  H   H38       1.0  0.20570  0.80640  0.78860  1.0000
  H   H39       1.0  0.29430  0.30640  0.71140  1.0000
  H   H40       1.0  0.70570  0.30640  0.78860  1.0000
  H   H41       1.0  0.18380  0.24210  0.38590  1.0000
  H   H42       1.0  0.81620  0.24210  0.11410  1.0000
  H   H43       1.0  0.68380  0.74210  0.38590  1.0000
  H   H44       1.0  0.31620  0.74210  0.11410  1.0000
  H   H45       1.0  0.81620  0.75790  0.61410  1.0000
  H   H46       1.0  0.18380  0.75790  0.88590  1.0000
  H   H47       1.0  0.31620  0.25790  0.61410  1.0000
  H   H48       1.0  0.68380  0.25790  0.88590  1.0000
  C   C73       1.0  0.08300  0.17360  0.29910  1.0000
  C   C74       1.0  0.91700  0.17360  0.20090  1.0000
  C   C75       1.0  0.58300  0.67360  0.29910  1.0000
  C   C76       1.0  0.41700  0.67360  0.20090  1.0000
  C   C77       1.0  0.91700  0.82640  0.70090  1.0000
  C   C78       1.0  0.08300  0.82640  0.79910  1.0000
  C   C79       1.0  0.41700  0.32640  0.70090  1.0000
  C   C80       1.0  0.58300  0.32640  0.79910  1.0000
  C   C81       1.0  0.04210  0.08250  0.27390  1.0000
  C   C82       1.0  0.95790  0.08250  0.22610  1.0000
  C   C83       1.0  0.54210  0.58250  0.27390  1.0000
  C   C84       1.0  0.45790  0.58250  0.22610  1.0000
  C   C85       1.0  0.95790  0.91750  0.72610  1.0000
  C   C86       1.0  0.04210  0.91750  0.77390  1.0000
  C   C87       1.0  0.45790  0.41750  0.72610  1.0000
  C   C88       1.0  0.54210  0.41750  0.77390  1.0000
  H   H49       1.0  0.07000  0.02050  0.28840  1.0000
  H   H50       1.0  0.93000  0.02050  0.21160  1.0000
  H   H51       1.0  0.57000  0.52050  0.28840  1.0000
  H   H52       1.0  0.43000  0.52050  0.21160  1.0000
  H   H53       1.0  0.93000  0.97950  0.71160  1.0000
  H   H54       1.0  0.07000  0.97950  0.78840  1.0000
  H   H55       1.0  0.43000  0.47950  0.71160  1.0000
  H   H56       1.0  0.57000  0.47950  0.78840  1.0000
  C   C89       1.0  0.04100  0.26350  0.27410  1.0000
  C   C90       1.0  0.95900  0.26350  0.22590  1.0000
  C   C91       1.0  0.54100  0.76350  0.27410  1.0000
  C   C92       1.0  0.45900  0.76350  0.22590  1.0000
  C   C93       1.0  0.95900  0.73650  0.72590  1.0000
  C   C94       1.0  0.04100  0.73650  0.77410  1.0000
  C   C95       1.0  0.45900  0.23650  0.72590  1.0000
  C   C96       1.0  0.54100  0.23650  0.77410  1.0000
  H   H57       1.0  0.06820  0.32580  0.28980  1.0000
  H   H58       1.0  0.93180  0.32580  0.21020  1.0000
  H   H59       1.0  0.56820  0.82580  0.28980  1.0000
  H   H60       1.0  0.43180  0.82580  0.21020  1.0000
  H   H61       1.0  0.93180  0.67420  0.71020  1.0000
  H   H62       1.0  0.06820  0.67420  0.78980  1.0000
  H   H63       1.0  0.43180  0.17420  0.71020  1.0000
  H   H64       1.0  0.56820  0.17420  0.78980  1.0000
