data_image0
_chemical_formula_structural       Mn5P2H2O28H4C10
_chemical_formula_sum              "Mn5 P2 H6 O28 C10"
_cell_length_a       9.7205
_cell_length_b       9.7468
_cell_length_c       10.8926
_cell_angle_alpha    83.989
_cell_angle_beta     75.467
_cell_angle_gamma    78.545

_space_group_name_H-M_alt    "P 1"
_space_group_IT_number       1

loop_
  _space_group_symop_operation_xyz
  'x, y, z'

loop_
  _atom_site_type_symbol
  _atom_site_label
  _atom_site_symmetry_multiplicity
  _atom_site_fract_x
  _atom_site_fract_y
  _atom_site_fract_z
  _atom_site_occupancy
  Mn  Mn1       1.0  0.50000  0.00000  0.00000  1.0000
  Mn  Mn2       1.0  0.36465  0.25534  0.52307  1.0000
  Mn  Mn3       1.0  0.63535  0.74466  0.47693  1.0000
  Mn  Mn4       1.0  0.24086  0.55013  0.28165  1.0000
  Mn  Mn5       1.0  0.75914  0.44987  0.71835  1.0000
  P   P1        1.0  0.47556  0.97749  0.69689  1.0000
  P   P2        1.0  0.52444  0.02251  0.30311  1.0000
  H   H1        1.0  0.59300  0.04210  0.66860  1.0000
  H   H2        1.0  0.40700  0.95790  0.33140  1.0000
  O   O1        1.0  0.41740  0.97630  0.83980  1.0000
  O   O2        1.0  0.58260  0.02370  0.16020  1.0000
  O   O3        1.0  0.36790  0.06080  0.62540  1.0000
  O   O4        1.0  0.63210  0.93920  0.37460  1.0000
  O   O5        1.0  0.52760  0.82830  0.65390  1.0000
  O   O6        1.0  0.47240  0.17170  0.34610  1.0000
  O   O7        1.0  0.70210  0.04610  0.87820  1.0000
  O   O8        1.0  0.29790  0.95390  0.12180  1.0000
  O   O9        1.0  0.80040  0.22210  0.76970  1.0000
  O   O10       1.0  0.19960  0.77790  0.23030  1.0000
  O   O11       1.0  0.45710  0.23230  0.96790  1.0000
  O   O12       1.0  0.54290  0.76770  0.03210  1.0000
  O   O13       1.0  0.56540  0.40390  0.85800  1.0000
  O   O14       1.0  0.43460  0.59610  0.14200  1.0000
  O   O15       1.0  0.02990  0.55400  0.24170  1.0000
  O   O16       1.0  0.97010  0.44600  0.75830  1.0000
  O   O17       1.0  0.79540  0.63860  0.31110  1.0000
  O   O18       1.0  0.20460  0.36140  0.68890  1.0000
  O   O19       1.0  0.08020  0.62590  0.45530  1.0000
  O   O20       1.0  0.91980  0.37410  0.54470  1.0000
  O   O21       1.0  0.84550  0.70890  0.52470  1.0000
  O   O22       1.0  0.15450  0.29110  0.47530  1.0000
  O   O23       1.0  0.37550  0.47240  0.41860  1.0000
  O   O24       1.0  0.62450  0.52760  0.58140  1.0000
  O   O25       1.0  0.46430  0.66510  0.42370  1.0000
  O   O26       1.0  0.53570  0.33490  0.57630  1.0000
  O   O27       1.0  0.30560  0.34480  0.20290  1.0000
  O   O28       1.0  0.69440  0.65520  0.79710  1.0000
  H   H3        1.0  0.35230  0.28090  0.24360  1.0000
  H   H4        1.0  0.64770  0.71910  0.75640  1.0000
  H   H5        1.0  0.34040  0.32880  0.12530  1.0000
  H   H6        1.0  0.65960  0.67120  0.87470  1.0000
  C   C1        1.0  0.69980  0.17310  0.84320  1.0000
  C   C2        1.0  0.30020  0.82690  0.15680  1.0000
  C   C3        1.0  0.56080  0.27920  0.89370  1.0000
  C   C4        1.0  0.43920  0.72080  0.10630  1.0000
  C   C5        1.0  0.92350  0.61070  0.32190  1.0000
  C   C6        1.0  0.07650  0.38930  0.67810  1.0000
  C   C7        1.0  0.95280  0.65110  0.44520  1.0000
  C   C8        1.0  0.04720  0.34890  0.55480  1.0000
  C   C9        1.0  0.45360  0.54110  0.45470  1.0000
  C   C10       1.0  0.54640  0.45890  0.54530  1.0000
