data_image0
_chemical_formula_structural       Co4P4H4O4H4O24C8
_chemical_formula_sum              "Co4 P4 H8 O28 C8"
_cell_length_a       8.8749
_cell_length_b       7.4104
_cell_length_c       15.2333
_cell_angle_alpha    90
_cell_angle_beta     102.172
_cell_angle_gamma    90

_space_group_name_H-M_alt    "P 1"
_space_group_IT_number       1

loop_
  _space_group_symop_operation_xyz
  'x, y, z'

loop_
  _atom_site_type_symbol
  _atom_site_label
  _atom_site_symmetry_multiplicity
  _atom_site_fract_x
  _atom_site_fract_y
  _atom_site_fract_z
  _atom_site_occupancy
  Co  Co1       1.0  0.78969  0.52945  0.10589  1.0000
  Co  Co2       1.0  0.71031  0.02945  0.39411  1.0000
  Co  Co3       1.0  0.21031  0.47055  0.89411  1.0000
  Co  Co4       1.0  0.28969  0.97055  0.60589  1.0000
  P   P1        1.0  0.87064  0.88556  0.23356  1.0000
  P   P2        1.0  0.62936  0.38556  0.26644  1.0000
  P   P3        1.0  0.12936  0.11444  0.76644  1.0000
  P   P4        1.0  0.37064  0.61444  0.73356  1.0000
  H   H1        1.0  0.99600  0.94540  0.28450  1.0000
  H   H2        1.0  0.50400  0.44540  0.21550  1.0000
  H   H3        1.0  0.00400  0.05460  0.71550  1.0000
  H   H4        1.0  0.49600  0.55460  0.78450  1.0000
  O   O1        1.0  0.81810  0.02850  0.15844  1.0000
  O   O2        1.0  0.68190  0.52850  0.34156  1.0000
  O   O3        1.0  0.18190  0.97150  0.84156  1.0000
  O   O4        1.0  0.31810  0.47150  0.65844  1.0000
  H   H5        1.0  0.79990  0.12420  0.18120  1.0000
  H   H6        1.0  0.70010  0.62420  0.31880  1.0000
  H   H7        1.0  0.20010  0.87580  0.81880  1.0000
  H   H8        1.0  0.29990  0.37580  0.68120  1.0000
  O   O5        1.0  0.75340  0.86440  0.29171  1.0000
  O   O6        1.0  0.74660  0.36440  0.20829  1.0000
  O   O7        1.0  0.24660  0.13560  0.70829  1.0000
  O   O8        1.0  0.25340  0.63560  0.79171  1.0000
  O   O9        1.0  0.91137  0.71650  0.19059  1.0000
  O   O10       1.0  0.58863  0.21650  0.30941  1.0000
  O   O11       1.0  0.08863  0.28350  0.80941  1.0000
  O   O12       1.0  0.41137  0.78350  0.69059  1.0000
  O   O13       1.0  0.65498  0.35150  0.01205  1.0000
  O   O14       1.0  0.84502  0.85150  0.48795  1.0000
  O   O15       1.0  0.34502  0.64850  0.98795  1.0000
  O   O16       1.0  0.15498  0.14850  0.51205  1.0000
  O   O17       1.0  0.42537  0.33880  0.91894  1.0000
  O   O18       1.0  0.07463  0.83880  0.58106  1.0000
  O   O19       1.0  0.57463  0.66120  0.08106  1.0000
  O   O20       1.0  0.92537  0.16120  0.41894  1.0000
  O   O21       1.0  0.99412  0.38780  0.10056  1.0000
  O   O22       1.0  0.50588  0.88780  0.39944  1.0000
  O   O23       1.0  0.00588  0.61220  0.89944  1.0000
  O   O24       1.0  0.49412  0.11220  0.60056  1.0000
  O   O25       1.0  0.15160  0.34830  0.00600  1.0000
  O   O26       1.0  0.34840  0.84830  0.49400  1.0000
  O   O27       1.0  0.84840  0.65170  0.99400  1.0000
  O   O28       1.0  0.65160  0.15170  0.50600  1.0000
  C   C1        1.0  0.52300  0.41030  0.98032  1.0000
  C   C2        1.0  0.97700  0.91030  0.51968  1.0000
  C   C3        1.0  0.47700  0.58970  0.01968  1.0000
  C   C4        1.0  0.02300  0.08970  0.48032  1.0000
  C   C5        1.0  0.04170  0.42450  0.03060  1.0000
  C   C6        1.0  0.45830  0.92450  0.46940  1.0000
  C   C7        1.0  0.95830  0.57550  0.96940  1.0000
  C   C8        1.0  0.54170  0.07550  0.53060  1.0000
