data_image0
_chemical_formula_structural       Tb4C4O8C4H4C4N4C4H4C8O24C4N4C12H4C12H4C4H8
_chemical_formula_sum              "Tb4 C56 O32 H24 N8"
_cell_length_a       9.239
_cell_length_b       10.1754
_cell_length_c       21.7961
_cell_angle_alpha    90
_cell_angle_beta     100.182
_cell_angle_gamma    90

_space_group_name_H-M_alt    "P 1"
_space_group_IT_number       1

loop_
  _space_group_symop_operation_xyz
  'x, y, z'

loop_
  _atom_site_type_symbol
  _atom_site_label
  _atom_site_symmetry_multiplicity
  _atom_site_fract_x
  _atom_site_fract_y
  _atom_site_fract_z
  _atom_site_occupancy
  Tb  Tb1       1.0  0.38302  0.37299  0.43972  1.0000
  Tb  Tb2       1.0  0.61698  0.87299  0.06028  1.0000
  Tb  Tb3       1.0  0.61698  0.62701  0.56028  1.0000
  Tb  Tb4       1.0  0.38302  0.12701  0.93972  1.0000
  C   C1        1.0  0.25490  0.12770  0.44337  1.0000
  C   C2        1.0  0.74510  0.62770  0.05663  1.0000
  C   C3        1.0  0.74510  0.87230  0.55663  1.0000
  C   C4        1.0  0.25490  0.37230  0.94337  1.0000
  O   O1        1.0  0.50330  0.53220  0.38723  1.0000
  O   O2        1.0  0.49670  0.03220  0.11277  1.0000
  O   O3        1.0  0.49670  0.46780  0.61277  1.0000
  O   O4        1.0  0.50330  0.96780  0.88723  1.0000
  O   O5        1.0  0.73950  0.89150  0.17369  1.0000
  O   O6        1.0  0.26050  0.39150  0.32631  1.0000
  O   O7        1.0  0.26050  0.10850  0.82631  1.0000
  O   O8        1.0  0.73950  0.60850  0.67369  1.0000
  C   C5        1.0  0.02330  0.76470  0.44137  1.0000
  C   C6        1.0  0.97670  0.26470  0.05863  1.0000
  C   C7        1.0  0.97670  0.23530  0.55863  1.0000
  C   C8        1.0  0.02330  0.73530  0.94137  1.0000
  H   H1        1.0  0.97220  0.68570  0.44060  1.0000
  H   H2        1.0  0.02780  0.18570  0.05940  1.0000
  H   H3        1.0  0.02780  0.31430  0.55940  1.0000
  H   H4        1.0  0.97220  0.81430  0.94060  1.0000
  C   C9        1.0  0.17650  0.76500  0.45806  1.0000
  C   C10       1.0  0.82350  0.26500  0.04194  1.0000
  C   C11       1.0  0.82350  0.23500  0.54194  1.0000
  C   C12       1.0  0.17650  0.73500  0.95806  1.0000
  N   N1        1.0  0.73580  0.85840  0.29910  1.0000
  N   N2        1.0  0.26420  0.35840  0.20090  1.0000
  N   N3        1.0  0.26420  0.14160  0.70090  1.0000
  N   N4        1.0  0.73580  0.64160  0.79910  1.0000
  C   C13       1.0  0.25490  0.88220  0.46060  1.0000
  C   C14       1.0  0.74510  0.38220  0.03940  1.0000
  C   C15       1.0  0.74510  0.11780  0.53940  1.0000
  C   C16       1.0  0.25490  0.61780  0.96060  1.0000
  H   H5        1.0  0.35630  0.88330  0.47360  1.0000
  H   H6        1.0  0.64370  0.38330  0.02640  1.0000
  H   H7        1.0  0.64370  0.11670  0.52640  1.0000
  H   H8        1.0  0.35630  0.61670  0.97360  1.0000
  C   C17       1.0  0.60150  0.61790  0.40244  1.0000
  C   C18       1.0  0.39850  0.11790  0.09756  1.0000
  C   C19       1.0  0.39850  0.38210  0.59756  1.0000
  C   C20       1.0  0.60150  0.88210  0.90244  1.0000
  C   C21       1.0  0.25880  0.63640  0.46743  1.0000
  C   C22       1.0  0.74120  0.13640  0.03257  1.0000
  C   C23       1.0  0.74120  0.36360  0.53257  1.0000
  C   C24       1.0  0.25880  0.86360  0.96743  1.0000
  O   O9        1.0  0.55490  0.75260  0.15020  1.0000
  O   O10       1.0  0.44510  0.25260  0.34980  1.0000
  O   O11       1.0  0.44510  0.24740  0.84980  1.0000
  O   O12       1.0  0.55490  0.74740  0.65020  1.0000
  O   O13       1.0  0.17820  0.22820  0.42335  1.0000
  O   O14       1.0  0.82180  0.72820  0.07665  1.0000
  O   O15       1.0  0.82180  0.77180  0.57665  1.0000
  O   O16       1.0  0.17820  0.27180  0.92335  1.0000
  O   O17       1.0  0.66740  0.64200  0.45670  1.0000
  O   O18       1.0  0.33260  0.14200  0.04330  1.0000
  O   O19       1.0  0.33260  0.35800  0.54330  1.0000
  O   O20       1.0  0.66740  0.85800  0.95670  1.0000
  O   O21       1.0  0.19850  0.53650  0.43960  1.0000
  O   O22       1.0  0.80150  0.03650  0.06040  1.0000
  O   O23       1.0  0.80150  0.46350  0.56040  1.0000
  O   O24       1.0  0.19850  0.96350  0.93960  1.0000
  O   O25       1.0  0.39010  0.13720  0.46279  1.0000
  O   O26       1.0  0.60990  0.63720  0.03721  1.0000
  O   O27       1.0  0.60990  0.86280  0.53721  1.0000
  O   O28       1.0  0.39010  0.36280  0.96279  1.0000
  O   O29       1.0  0.38700  0.63190  0.49953  1.0000
  O   O30       1.0  0.61300  0.13190  0.00047  1.0000
  O   O31       1.0  0.61300  0.36810  0.50047  1.0000
  O   O32       1.0  0.38700  0.86810  0.99953  1.0000
  C   C25       1.0  0.94630  0.88070  0.42599  1.0000
  C   C26       1.0  0.05370  0.38070  0.07401  1.0000
  C   C27       1.0  0.05370  0.11930  0.57401  1.0000
  C   C28       1.0  0.94630  0.61930  0.92599  1.0000
  N   N5        1.0  0.72160  0.80790  0.35479  1.0000
  N   N6        1.0  0.27840  0.30790  0.14521  1.0000
  N   N7        1.0  0.27840  0.19210  0.64521  1.0000
  N   N8        1.0  0.72160  0.69210  0.85479  1.0000
  C   C29       1.0  0.63850  0.69630  0.34886  1.0000
  C   C30       1.0  0.36150  0.19630  0.15114  1.0000
  C   C31       1.0  0.36150  0.30370  0.65114  1.0000
  C   C32       1.0  0.63850  0.80370  0.84886  1.0000
  C   C33       1.0  0.65130  0.80920  0.19007  1.0000
  C   C34       1.0  0.34870  0.30920  0.30993  1.0000
  C   C35       1.0  0.34870  0.19080  0.80993  1.0000
  C   C36       1.0  0.65130  0.69080  0.69007  1.0000
  C   C37       1.0  0.02430  0.99600  0.42654  1.0000
  C   C38       1.0  0.97570  0.49600  0.07346  1.0000
  C   C39       1.0  0.97570  0.00400  0.57346  1.0000
  C   C40       1.0  0.02430  0.50400  0.92654  1.0000
  H   H9        1.0  0.97390  0.07400  0.41560  1.0000
  H   H10       1.0  0.02610  0.57400  0.08440  1.0000
  H   H11       1.0  0.02610  0.92600  0.58440  1.0000
  H   H12       1.0  0.97390  0.42600  0.91560  1.0000
  C   C41       1.0  0.17690  0.99870  0.44308  1.0000
  C   C42       1.0  0.82310  0.49870  0.05692  1.0000
  C   C43       1.0  0.82310  0.00130  0.55692  1.0000
  C   C44       1.0  0.17690  0.50130  0.94308  1.0000
  C   C45       1.0  0.66050  0.77770  0.25666  1.0000
  C   C46       1.0  0.33950  0.27770  0.24334  1.0000
  C   C47       1.0  0.33950  0.22230  0.74334  1.0000
  C   C48       1.0  0.66050  0.72230  0.75666  1.0000
  C   C49       1.0  0.59690  0.67540  0.28580  1.0000
  C   C50       1.0  0.40310  0.17540  0.21420  1.0000
  C   C51       1.0  0.40310  0.32460  0.71420  1.0000
  C   C52       1.0  0.59690  0.82460  0.78580  1.0000
  H   H13       1.0  0.53860  0.60750  0.26660  1.0000
  H   H14       1.0  0.46140  0.10750  0.23340  1.0000
  H   H15       1.0  0.46140  0.39250  0.73340  1.0000
  H   H16       1.0  0.53860  0.89250  0.76660  1.0000
  C   C53       1.0  0.77990  0.88480  0.41034  1.0000
  C   C54       1.0  0.22010  0.38480  0.08966  1.0000
  C   C55       1.0  0.22010  0.11520  0.58966  1.0000
  C   C56       1.0  0.77990  0.61520  0.91034  1.0000
  H   H17       1.0  0.73970  0.85120  0.44540  1.0000
  H   H18       1.0  0.26030  0.35120  0.05460  1.0000
  H   H19       1.0  0.26030  0.14880  0.55460  1.0000
  H   H20       1.0  0.73970  0.64880  0.94540  1.0000
  H   H21       1.0  0.74820  0.97540  0.40370  1.0000
  H   H22       1.0  0.25180  0.47540  0.09630  1.0000
  H   H23       1.0  0.25180  0.02460  0.59630  1.0000
  H   H24       1.0  0.74820  0.52460  0.90370  1.0000
