data_image0
_chemical_formula_structural       Cr2Mn2O12C12Br4O4C2Br2C6Br2C4O4C2Br2C6Br2C4O4
_chemical_formula_sum              "Cr2 Mn2 O24 C36 Br12"
_cell_length_a       9.9557
_cell_length_b       23.6054
_cell_length_c       12.2129
_cell_angle_alpha    90
_cell_angle_beta     105.187
_cell_angle_gamma    90

_space_group_name_H-M_alt    "P 1"
_space_group_IT_number       1

loop_
  _space_group_symop_operation_xyz
  'x, y, z'

loop_
  _atom_site_type_symbol
  _atom_site_label
  _atom_site_symmetry_multiplicity
  _atom_site_fract_x
  _atom_site_fract_y
  _atom_site_fract_z
  _atom_site_occupancy
  Cr  Cr1       1.0  0.22020  0.79245  0.70710  1.0000
  Cr  Cr2       1.0  0.77980  0.29245  0.29290  1.0000
  Mn  Mn1       1.0  0.76040  0.96210  0.18460  1.0000
  Mn  Mn2       1.0  0.23960  0.46210  0.81540  1.0000
  O   O1        1.0  0.37010  0.84650  0.71910  1.0000
  O   O2        1.0  0.62990  0.34650  0.28090  1.0000
  O   O3        1.0  0.26850  0.80300  0.87350  1.0000
  O   O4        1.0  0.73150  0.30300  0.12650  1.0000
  O   O5        1.0  0.35220  0.72840  0.72580  1.0000
  O   O6        1.0  0.64780  0.22840  0.27420  1.0000
  O   O7        1.0  0.09490  0.72830  0.70940  1.0000
  O   O8        1.0  0.90510  0.22830  0.29060  1.0000
  O   O9        1.0  0.17870  0.78930  0.53810  1.0000
  O   O10       1.0  0.82130  0.28930  0.46190  1.0000
  O   O11       1.0  0.07970  0.85250  0.67380  1.0000
  O   O12       1.0  0.92030  0.35250  0.32620  1.0000
  C   C1        1.0  0.52980  0.90110  0.85580  1.0000
  C   C2        1.0  0.47020  0.40110  0.14420  1.0000
  C   C3        1.0  0.42150  0.86230  0.82520  1.0000
  C   C4        1.0  0.57850  0.36230  0.17480  1.0000
  C   C5        1.0  0.36940  0.83690  0.90830  1.0000
  C   C6        1.0  0.63060  0.33690  0.09170  1.0000
  C   C7        1.0  0.42560  0.85030  0.02190  1.0000
  C   C8        1.0  0.57440  0.35030  0.97810  1.0000
  C   C9        1.0  0.53390  0.88920  0.05240  1.0000
  C   C10       1.0  0.46610  0.38920  0.94760  1.0000
  C   C11       1.0  0.58600  0.91460  0.96940  1.0000
  C   C12       1.0  0.41400  0.41460  0.03060  1.0000
  Br  Br1       1.0  0.34260  0.82063  0.13557  1.0000
  Br  Br2       1.0  0.65740  0.32063  0.86443  1.0000
  Br  Br3       1.0  0.59970  0.94028  0.74204  1.0000
  Br  Br4       1.0  0.40030  0.44028  0.25796  1.0000
  O   O13       1.0  0.59480  0.90080  0.15960  1.0000
  O   O14       1.0  0.40520  0.40080  0.84040  1.0000
  O   O15       1.0  0.68890  0.94930  0.00460  1.0000
  O   O16       1.0  0.31110  0.44930  0.99540  1.0000
  C   C13       1.0  0.37710  0.62850  0.77110  1.0000
  C   C14       1.0  0.62290  0.12850  0.22890  1.0000
  Br  Br5       1.0  0.57180  0.63356  0.79670  1.0000
  Br  Br6       1.0  0.42820  0.13356  0.20330  1.0000
  C   C15       1.0  0.30460  0.67900  0.74580  1.0000
  C   C16       1.0  0.69540  0.17900  0.25420  1.0000
  C   C17       1.0  0.14800  0.68030  0.72700  1.0000
  C   C18       1.0  0.85200  0.18030  0.27300  1.0000
  C   C19       1.0  0.07700  0.63150  0.73390  1.0000
  C   C20       1.0  0.92300  0.13150  0.26610  1.0000
  Br  Br7       1.0  0.88210  0.63038  0.71180  1.0000
  Br  Br8       1.0  0.11790  0.13038  0.28820  1.0000
  C   C21       1.0  0.15100  0.58070  0.77320  1.0000
  C   C22       1.0  0.84900  0.08070  0.22680  1.0000
  C   C23       1.0  0.31700  0.58090  0.78400  1.0000
  C   C24       1.0  0.68300  0.08090  0.21600  1.0000
  O   O17       1.0  0.09930  0.53370  0.78320  1.0000
  O   O18       1.0  0.90070  0.03370  0.21680  1.0000
  O   O19       1.0  0.37630  0.53450  0.81850  1.0000
  O   O20       1.0  0.62370  0.03450  0.18150  1.0000
  C   C25       1.0  0.03760  0.83190  0.37630  1.0000
  C   C26       1.0  0.96240  0.33190  0.62370  1.0000
  Br  Br9       1.0  0.09850  0.78687  0.27319  1.0000
  Br  Br10      1.0  0.90150  0.28687  0.72681  1.0000
  C   C27       1.0  0.08960  0.82560  0.48350  1.0000
  C   C28       1.0  0.91040  0.32560  0.51650  1.0000
  C   C29       1.0  0.03410  0.86580  0.57140  1.0000
  C   C30       1.0  0.96590  0.36580  0.42860  1.0000
  C   C31       1.0  0.94690  0.90560  0.53330  1.0000
  C   C32       1.0  0.05310  0.40560  0.46670  1.0000
  Br  Br11      1.0  0.87880  0.95764  0.62537  1.0000
  Br  Br12      1.0  0.12120  0.45764  0.37463  1.0000
  C   C33       1.0  0.89600  0.91560  0.41130  1.0000
  C   C34       1.0  0.10400  0.41560  0.58870  1.0000
  C   C35       1.0  0.95050  0.87890  0.32960  1.0000
  C   C36       1.0  0.04950  0.37890  0.67040  1.0000
  O   O21       1.0  0.80810  0.95090  0.35910  1.0000
  O   O22       1.0  0.19190  0.45090  0.64090  1.0000
  O   O23       1.0  0.91080  0.89170  0.22850  1.0000
  O   O24       1.0  0.08920  0.39170  0.77150  1.0000
