data_image0
_chemical_formula_structural       C72O48Cl24Cr4Mn4
_chemical_formula_sum              "C72 O48 Cl24 Cr4 Mn4"
_cell_length_a       12.978
_cell_length_b       24.8692
_cell_length_c       21.9676
_cell_angle_alpha    90
_cell_angle_beta     90
_cell_angle_gamma    90

_space_group_name_H-M_alt    "P 1"
_space_group_IT_number       1

loop_
  _space_group_symop_operation_xyz
  'x, y, z'

loop_
  _atom_site_type_symbol
  _atom_site_label
  _atom_site_symmetry_multiplicity
  _atom_site_fract_x
  _atom_site_fract_y
  _atom_site_fract_z
  _atom_site_occupancy
  C   C1        1.0  0.15590  0.32680  0.78240  1.0000
  C   C2        1.0  0.84410  0.67320  0.28240  1.0000
  C   C3        1.0  0.15590  0.67320  0.21760  1.0000
  C   C4        1.0  0.84410  0.32680  0.71760  1.0000
  C   C5        1.0  0.65590  0.82680  0.78240  1.0000
  C   C6        1.0  0.34410  0.17320  0.28240  1.0000
  C   C7        1.0  0.65590  0.17320  0.21760  1.0000
  C   C8        1.0  0.34410  0.82680  0.71760  1.0000
  C   C9        1.0  0.18940  0.29890  0.72280  1.0000
  C   C10       1.0  0.81060  0.70110  0.22280  1.0000
  C   C11       1.0  0.18940  0.70110  0.27720  1.0000
  C   C12       1.0  0.81060  0.29890  0.77720  1.0000
  C   C13       1.0  0.68940  0.79890  0.72280  1.0000
  C   C14       1.0  0.31060  0.20110  0.22280  1.0000
  C   C15       1.0  0.68940  0.20110  0.27720  1.0000
  C   C16       1.0  0.31060  0.79890  0.77720  1.0000
  C   C17       1.0  0.27950  0.31540  0.69590  1.0000
  C   C18       1.0  0.72050  0.68460  0.19590  1.0000
  C   C19       1.0  0.27950  0.68460  0.30410  1.0000
  C   C20       1.0  0.72050  0.31540  0.80410  1.0000
  C   C21       1.0  0.77950  0.81540  0.69590  1.0000
  C   C22       1.0  0.22050  0.18460  0.19590  1.0000
  C   C23       1.0  0.77950  0.18460  0.30410  1.0000
  C   C24       1.0  0.22050  0.81540  0.80410  1.0000
  C   C25       1.0  0.34060  0.35630  0.72070  1.0000
  C   C26       1.0  0.65940  0.64370  0.22070  1.0000
  C   C27       1.0  0.34060  0.64370  0.27930  1.0000
  C   C28       1.0  0.65940  0.35630  0.77930  1.0000
  C   C29       1.0  0.84060  0.85630  0.72070  1.0000
  C   C30       1.0  0.15940  0.14370  0.22070  1.0000
  C   C31       1.0  0.84060  0.14370  0.27930  1.0000
  C   C32       1.0  0.15940  0.85630  0.77930  1.0000
  C   C33       1.0  0.30810  0.38320  0.78140  1.0000
  C   C34       1.0  0.69190  0.61680  0.28140  1.0000
  C   C35       1.0  0.30810  0.61680  0.21860  1.0000
  C   C36       1.0  0.69190  0.38320  0.71860  1.0000
  C   C37       1.0  0.80810  0.88320  0.78140  1.0000
  C   C38       1.0  0.19190  0.11680  0.28140  1.0000
  C   C39       1.0  0.80810  0.11680  0.21860  1.0000
  C   C40       1.0  0.19190  0.88320  0.71860  1.0000
  C   C41       1.0  0.21490  0.36500  0.80880  1.0000
  C   C42       1.0  0.78510  0.63500  0.30880  1.0000
  C   C43       1.0  0.21490  0.63500  0.19120  1.0000
  C   C44       1.0  0.78510  0.36500  0.69120  1.0000
  C   C45       1.0  0.71490  0.86500  0.80880  1.0000
  C   C46       1.0  0.28510  0.13500  0.30880  1.0000
  C   C47       1.0  0.71490  0.13500  0.19120  1.0000
  C   C48       1.0  0.28510  0.86500  0.69120  1.0000
  C   C49       1.0  0.53260  0.64860  0.77850  1.0000
  C   C50       1.0  0.46740  0.35140  0.27850  1.0000
  C   C51       1.0  0.53260  0.35140  0.22150  1.0000
  C   C52       1.0  0.46740  0.64860  0.72150  1.0000
  C   C53       1.0  0.03260  0.14860  0.77850  1.0000
  C   C54       1.0  0.96740  0.85140  0.27850  1.0000
  C   C55       1.0  0.03260  0.85140  0.22150  1.0000
  C   C56       1.0  0.96740  0.14860  0.72150  1.0000
  C   C57       1.0  0.56370  0.60030  0.80480  1.0000
  C   C58       1.0  0.43630  0.39970  0.30480  1.0000
  C   C59       1.0  0.56370  0.39970  0.19520  1.0000
  C   C60       1.0  0.43630  0.60030  0.69520  1.0000
  C   C61       1.0  0.06370  0.10030  0.80480  1.0000
  C   C62       1.0  0.93630  0.89970  0.30480  1.0000
  C   C63       1.0  0.06370  0.89970  0.19520  1.0000
  C   C64       1.0  0.93630  0.10030  0.69520  1.0000
  C   C65       1.0  0.53220  0.55010  0.77950  1.0000
  C   C66       1.0  0.46780  0.44990  0.27950  1.0000
  C   C67       1.0  0.53220  0.44990  0.22050  1.0000
  C   C68       1.0  0.46780  0.55010  0.72050  1.0000
  C   C69       1.0  0.03220  0.05010  0.77950  1.0000
  C   C70       1.0  0.96780  0.94990  0.27950  1.0000
  C   C71       1.0  0.03220  0.94990  0.22050  1.0000
  C   C72       1.0  0.96780  0.05010  0.72050  1.0000
  O   O1        1.0  0.06760  0.31030  0.80160  1.0000
  O   O2        1.0  0.93240  0.68970  0.30160  1.0000
  O   O3        1.0  0.06760  0.68970  0.19840  1.0000
  O   O4        1.0  0.93240  0.31030  0.69840  1.0000
  O   O5        1.0  0.56760  0.81030  0.80160  1.0000
  O   O6        1.0  0.43240  0.18970  0.30160  1.0000
  O   O7        1.0  0.56760  0.18970  0.19840  1.0000
  O   O8        1.0  0.43240  0.81030  0.69840  1.0000
  O   O9        1.0  0.12890  0.26370  0.70260  1.0000
  O   O10       1.0  0.87110  0.73630  0.20260  1.0000
  O   O11       1.0  0.12890  0.73630  0.29740  1.0000
  O   O12       1.0  0.87110  0.26370  0.79740  1.0000
  O   O13       1.0  0.62890  0.76370  0.70260  1.0000
  O   O14       1.0  0.37110  0.23630  0.20260  1.0000
  O   O15       1.0  0.62890  0.23630  0.29740  1.0000
  O   O16       1.0  0.37110  0.76370  0.79740  1.0000
  O   O17       1.0  0.42270  0.37430  0.69900  1.0000
  O   O18       1.0  0.57730  0.62570  0.19900  1.0000
  O   O19       1.0  0.42270  0.62570  0.30100  1.0000
  O   O20       1.0  0.57730  0.37430  0.80100  1.0000
  O   O21       1.0  0.92270  0.87430  0.69900  1.0000
  O   O22       1.0  0.07730  0.12570  0.19900  1.0000
  O   O23       1.0  0.92270  0.12570  0.30100  1.0000
  O   O24       1.0  0.07730  0.87430  0.80100  1.0000
  O   O25       1.0  0.36570  0.41870  0.80160  1.0000
  O   O26       1.0  0.63430  0.58130  0.30160  1.0000
  O   O27       1.0  0.36570  0.58130  0.19840  1.0000
  O   O28       1.0  0.63430  0.41870  0.69840  1.0000
  O   O29       1.0  0.86570  0.91870  0.80160  1.0000
  O   O30       1.0  0.13430  0.08130  0.30160  1.0000
  O   O31       1.0  0.86570  0.08130  0.19840  1.0000
  O   O32       1.0  0.13430  0.91870  0.69840  1.0000
  O   O33       1.0  0.55560  0.69490  0.79860  1.0000
  O   O34       1.0  0.44440  0.30510  0.29860  1.0000
  O   O35       1.0  0.55560  0.30510  0.20140  1.0000
  O   O36       1.0  0.44440  0.69490  0.70140  1.0000
  O   O37       1.0  0.05560  0.19490  0.79860  1.0000
  O   O38       1.0  0.94440  0.80510  0.29860  1.0000
  O   O39       1.0  0.05560  0.80510  0.20140  1.0000
  O   O40       1.0  0.94440  0.19490  0.70140  1.0000
  O   O41       1.0  0.55380  0.50460  0.80050  1.0000
  O   O42       1.0  0.44620  0.49540  0.30050  1.0000
  O   O43       1.0  0.55380  0.49540  0.19950  1.0000
  O   O44       1.0  0.44620  0.50460  0.69950  1.0000
  O   O45       1.0  0.05380  0.00460  0.80050  1.0000
  O   O46       1.0  0.94620  0.99540  0.30050  1.0000
  O   O47       1.0  0.05380  0.99540  0.19950  1.0000
  O   O48       1.0  0.94620  0.00460  0.69950  1.0000
  Cl  Cl1       1.0  0.32060  0.28439  0.62841  1.0000
  Cl  Cl2       1.0  0.67940  0.71561  0.12841  1.0000
  Cl  Cl3       1.0  0.32060  0.71561  0.37159  1.0000
  Cl  Cl4       1.0  0.67940  0.28439  0.87159  1.0000
  Cl  Cl5       1.0  0.82060  0.78439  0.62841  1.0000
  Cl  Cl6       1.0  0.17940  0.21561  0.12841  1.0000
  Cl  Cl7       1.0  0.82060  0.21561  0.37159  1.0000
  Cl  Cl8       1.0  0.17940  0.78439  0.87159  1.0000
  Cl  Cl9       1.0  0.17750  0.39528  0.87676  1.0000
  Cl  Cl10      1.0  0.82250  0.60472  0.37676  1.0000
  Cl  Cl11      1.0  0.17750  0.60472  0.12324  1.0000
  Cl  Cl12      1.0  0.82250  0.39528  0.62324  1.0000
  Cl  Cl13      1.0  0.67750  0.89528  0.87676  1.0000
  Cl  Cl14      1.0  0.32250  0.10472  0.37676  1.0000
  Cl  Cl15      1.0  0.67750  0.10472  0.12324  1.0000
  Cl  Cl16      1.0  0.32250  0.89528  0.62324  1.0000
  Cl  Cl17      1.0  0.64270  0.60214  0.86753  1.0000
  Cl  Cl18      1.0  0.35730  0.39786  0.36753  1.0000
  Cl  Cl19      1.0  0.64270  0.39786  0.13247  1.0000
  Cl  Cl20      1.0  0.35730  0.60214  0.63247  1.0000
  Cl  Cl21      1.0  0.14270  0.10214  0.86753  1.0000
  Cl  Cl22      1.0  0.85730  0.89786  0.36753  1.0000
  Cl  Cl23      1.0  0.14270  0.89786  0.13247  1.0000
  Cl  Cl24      1.0  0.85730  0.10214  0.63247  1.0000
  Cr  Cr1       1.0  0.00000  0.25529  0.75000  1.0000
  Cr  Cr2       1.0  0.00000  0.74471  0.25000  1.0000
  Cr  Cr3       1.0  0.50000  0.75529  0.75000  1.0000
  Cr  Cr4       1.0  0.50000  0.24471  0.25000  1.0000
  Mn  Mn1       1.0  0.50000  0.43695  0.75000  1.0000
  Mn  Mn2       1.0  0.50000  0.56305  0.25000  1.0000
  Mn  Mn3       1.0  0.00000  0.93695  0.75000  1.0000
  Mn  Mn4       1.0  0.00000  0.06305  0.25000  1.0000
