data_image0
_chemical_formula_structural       C36O24Cl16Cr2Mn2
_chemical_formula_sum              "C36 O24 Cl16 Cr2 Mn2"
_cell_length_a       13.2167
_cell_length_b       16.2053
_cell_length_c       20.2599
_cell_angle_alpha    97.796
_cell_angle_beta     97.354
_cell_angle_gamma    95.928

_space_group_name_H-M_alt    "P 1"
_space_group_IT_number       1

loop_
  _space_group_symop_operation_xyz
  'x, y, z'

loop_
  _atom_site_type_symbol
  _atom_site_label
  _atom_site_symmetry_multiplicity
  _atom_site_fract_x
  _atom_site_fract_y
  _atom_site_fract_z
  _atom_site_occupancy
  C   C1        1.0  0.88300  0.20640  0.30950  1.0000
  C   C2        1.0  0.11700  0.79360  0.69050  1.0000
  C   C3        1.0  0.94380  0.27970  0.35580  1.0000
  C   C4        1.0  0.05620  0.72030  0.64420  1.0000
  C   C5        1.0  0.89990  0.32490  0.40450  1.0000
  C   C6        1.0  0.10010  0.67510  0.59550  1.0000
  C   C7        1.0  0.79970  0.29910  0.41600  1.0000
  C   C8        1.0  0.20030  0.70090  0.58400  1.0000
  C   C9        1.0  0.73710  0.22370  0.36880  1.0000
  C   C10       1.0  0.26290  0.77630  0.63120  1.0000
  C   C11       1.0  0.78340  0.18310  0.31570  1.0000
  C   C12       1.0  0.21660  0.81690  0.68430  1.0000
  C   C13       1.0  0.06580  0.20790  0.12700  1.0000
  C   C14       1.0  0.93420  0.79210  0.87300  1.0000
  C   C15       1.0  0.02450  0.29050  0.14470  1.0000
  C   C16       1.0  0.97550  0.70950  0.85530  1.0000
  C   C17       1.0  0.00280  0.34130  0.09800  1.0000
  C   C18       1.0  0.99720  0.65870  0.90200  1.0000
  C   C19       1.0  0.01580  0.31750  0.02920  1.0000
  C   C20       1.0  0.98420  0.68250  0.97080  1.0000
  C   C21       1.0  0.04930  0.22940  0.00980  1.0000
  C   C22       1.0  0.95070  0.77060  0.99020  1.0000
  C   C23       1.0  0.07430  0.18010  0.06100  1.0000
  C   C24       1.0  0.92570  0.81990  0.93900  1.0000
  C   C25       1.0  0.40430  0.20890  0.41520  1.0000
  C   C26       1.0  0.59570  0.79110  0.58480  1.0000
  C   C27       1.0  0.43600  0.29300  0.39030  1.0000
  C   C28       1.0  0.56400  0.70700  0.60970  1.0000
  C   C29       1.0  0.36550  0.32410  0.34420  1.0000
  C   C30       1.0  0.63450  0.67590  0.65580  1.0000
  C   C31       1.0  0.27140  0.27810  0.31960  1.0000
  C   C32       1.0  0.72860  0.72190  0.68040  1.0000
  C   C33       1.0  0.24090  0.19540  0.34380  1.0000
  C   C34       1.0  0.75910  0.80460  0.65620  1.0000
  C   C35       1.0  0.30780  0.16370  0.38870  1.0000
  C   C36       1.0  0.69220  0.83630  0.61130  1.0000
  O   O1        1.0  0.93300  0.17040  0.26550  1.0000
  O   O2        1.0  0.06700  0.82960  0.73450  1.0000
  O   O3        1.0  0.03630  0.29680  0.34510  1.0000
  O   O4        1.0  0.96370  0.70320  0.65490  1.0000
  O   O5        1.0  0.75610  0.33270  0.46150  1.0000
  O   O6        1.0  0.24390  0.66730  0.53850  1.0000
  O   O7        1.0  0.64800  0.20330  0.37960  1.0000
  O   O8        1.0  0.35200  0.79670  0.62040  1.0000
  O   O9        1.0  0.09000  0.16940  0.17710  1.0000
  O   O10       1.0  0.91000  0.83060  0.82290  1.0000
  O   O11       1.0  0.01250  0.30700  0.20690  1.0000
  O   O12       1.0  0.98750  0.69300  0.79310  1.0000
  O   O13       1.0  0.00250  0.36200  0.98530  1.0000
  O   O14       1.0  0.99750  0.63800  0.01470  1.0000
  O   O15       1.0  0.05190  0.20790  0.94960  1.0000
  O   O16       1.0  0.94810  0.79210  0.05040  1.0000
  O   O17       1.0  0.46800  0.18770  0.45780  1.0000
  O   O18       1.0  0.53200  0.81230  0.54220  1.0000
  O   O19       1.0  0.52220  0.32950  0.41420  1.0000
  O   O20       1.0  0.47780  0.67050  0.58580  1.0000
  O   O21       1.0  0.20300  0.30040  0.27760  1.0000
  O   O22       1.0  0.79700  0.69960  0.72240  1.0000
  O   O23       1.0  0.14990  0.15980  0.31890  1.0000
  O   O24       1.0  0.85010  0.84020  0.68110  1.0000
  Cl  Cl1       1.0  0.96750  0.41287  0.45444  1.0000
  Cl  Cl2       1.0  0.03250  0.58713  0.54556  1.0000
  Cl  Cl3       1.0  0.71201  0.10086  0.25990  1.0000
  Cl  Cl4       1.0  0.28799  0.89914  0.74010  1.0000
  Cl  Cl5       1.0  0.96390  0.43804  0.12118  1.0000
  Cl  Cl6       1.0  0.03610  0.56196  0.87882  1.0000
  Cl  Cl7       1.0  0.11874  0.08501  0.03938  1.0000
  Cl  Cl8       1.0  0.88126  0.91499  0.96062  1.0000
  Cl  Cl9       1.0  0.39594  0.42070  0.32089  1.0000
  Cl  Cl10      1.0  0.60406  0.57930  0.67911  1.0000
  Cl  Cl11      1.0  0.27338  0.07022  0.41708  1.0000
  Cl  Cl12      1.0  0.72662  0.92978  0.58292  1.0000
  Cl  Cl13      1.0  0.71056  0.15978  0.53089  1.0000
  Cl  Cl14      1.0  0.28944  0.84022  0.46911  1.0000
  Cl  Cl15      1.0  0.58441  0.36531  0.57730  1.0000
  Cl  Cl16      1.0  0.41559  0.63469  0.42270  1.0000
  Cr  Cr1       1.0  0.06957  0.23038  0.26383  1.0000
  Cr  Cr2       1.0  0.93043  0.76962  0.73617  1.0000
  Mn  Mn1       1.0  0.61845  0.26703  0.48668  1.0000
  Mn  Mn2       1.0  0.38155  0.73297  0.51332  1.0000
