data_image0
_chemical_formula_structural       C72O48Cr4Mn4Br24
_chemical_formula_sum              "C72 O48 Cr4 Mn4 Br24"
_cell_length_a       13.9066
_cell_length_b       23.1892
_cell_length_c       22.7189
_cell_angle_alpha    90
_cell_angle_beta     101.422
_cell_angle_gamma    90

_space_group_name_H-M_alt    "P 1"
_space_group_IT_number       1

loop_
  _space_group_symop_operation_xyz
  'x, y, z'

loop_
  _atom_site_type_symbol
  _atom_site_label
  _atom_site_symmetry_multiplicity
  _atom_site_fract_x
  _atom_site_fract_y
  _atom_site_fract_z
  _atom_site_occupancy
  C   C1        1.0  0.72440  0.58760  0.27340  1.0000
  C   C2        1.0  0.27560  0.08760  0.22660  1.0000
  C   C3        1.0  0.27560  0.41240  0.72660  1.0000
  C   C4        1.0  0.72440  0.91240  0.77340  1.0000
  C   C5        1.0  0.70130  0.53860  0.30400  1.0000
  C   C6        1.0  0.29870  0.03860  0.19600  1.0000
  C   C7        1.0  0.29870  0.46140  0.69600  1.0000
  C   C8        1.0  0.70130  0.96140  0.80400  1.0000
  C   C9        1.0  0.72270  0.48290  0.28350  1.0000
  C   C10       1.0  0.27730  0.98290  0.21650  1.0000
  C   C11       1.0  0.27730  0.51710  0.71650  1.0000
  C   C12       1.0  0.72270  0.01710  0.78350  1.0000
  C   C13       1.0  0.75800  0.47580  0.22390  1.0000
  C   C14       1.0  0.24200  0.97580  0.27610  1.0000
  C   C15       1.0  0.24200  0.52420  0.77610  1.0000
  C   C16       1.0  0.75800  0.02420  0.72390  1.0000
  C   C17       1.0  0.77310  0.52290  0.19010  1.0000
  C   C18       1.0  0.22690  0.02290  0.30990  1.0000
  C   C19       1.0  0.22690  0.47710  0.80990  1.0000
  C   C20       1.0  0.77310  0.97710  0.69010  1.0000
  C   C21       1.0  0.75490  0.58050  0.21120  1.0000
  C   C22       1.0  0.24510  0.08050  0.28880  1.0000
  C   C23       1.0  0.24510  0.41950  0.78880  1.0000
  C   C24       1.0  0.75490  0.91950  0.71120  1.0000
  C   C25       1.0  0.55450  0.32630  0.24310  1.0000
  C   C26       1.0  0.44550  0.82630  0.25690  1.0000
  C   C27       1.0  0.44550  0.67370  0.75690  1.0000
  C   C28       1.0  0.55450  0.17370  0.74310  1.0000
  C   C29       1.0  0.59980  0.29810  0.30220  1.0000
  C   C30       1.0  0.40020  0.79810  0.19780  1.0000
  C   C31       1.0  0.40020  0.70190  0.69780  1.0000
  C   C32       1.0  0.59980  0.20190  0.80220  1.0000
  C   C33       1.0  0.54020  0.26190  0.32880  1.0000
  C   C34       1.0  0.45980  0.76190  0.17120  1.0000
  C   C35       1.0  0.45980  0.73810  0.67120  1.0000
  C   C36       1.0  0.54020  0.23810  0.82880  1.0000
  C   C37       1.0  0.44790  0.24820  0.30130  1.0000
  C   C38       1.0  0.55210  0.74820  0.19870  1.0000
  C   C39       1.0  0.55210  0.75180  0.69870  1.0000
  C   C40       1.0  0.44790  0.25180  0.80130  1.0000
  C   C41       1.0  0.39940  0.27950  0.24070  1.0000
  C   C42       1.0  0.60060  0.77950  0.25930  1.0000
  C   C43       1.0  0.60060  0.72050  0.75930  1.0000
  C   C44       1.0  0.39940  0.22050  0.74070  1.0000
  C   C45       1.0  0.45960  0.31680  0.21540  1.0000
  C   C46       1.0  0.54040  0.81680  0.28460  1.0000
  C   C47       1.0  0.54040  0.68320  0.78460  1.0000
  C   C48       1.0  0.45960  0.18320  0.71540  1.0000
  C   C49       1.0  0.09250  0.28070  0.29970  1.0000
  C   C50       1.0  0.90750  0.78070  0.20030  1.0000
  C   C51       1.0  0.90750  0.71930  0.70030  1.0000
  C   C52       1.0  0.09250  0.21930  0.79970  1.0000
  C   C53       1.0  0.04120  0.24360  0.24210  1.0000
  C   C54       1.0  0.95880  0.74360  0.25790  1.0000
  C   C55       1.0  0.95880  0.75640  0.75790  1.0000
  C   C56       1.0  0.04120  0.25640  0.74210  1.0000
  C   C57       1.0  0.94020  0.25240  0.21930  1.0000
  C   C58       1.0  0.05980  0.75240  0.28070  1.0000
  C   C59       1.0  0.05980  0.74760  0.78070  1.0000
  C   C60       1.0  0.94020  0.24760  0.71930  1.0000
  C   C61       1.0  0.88890  0.29250  0.24350  1.0000
  C   C62       1.0  0.11110  0.79250  0.25650  1.0000
  C   C63       1.0  0.11110  0.70750  0.75650  1.0000
  C   C64       1.0  0.88890  0.20750  0.74350  1.0000
  C   C65       1.0  0.93560  0.33000  0.29790  1.0000
  C   C66       1.0  0.06440  0.83000  0.20210  1.0000
  C   C67       1.0  0.06440  0.67000  0.70210  1.0000
  C   C68       1.0  0.93560  0.17000  0.79790  1.0000
  C   C69       1.0  0.03510  0.32420  0.31840  1.0000
  C   C70       1.0  0.96490  0.82420  0.18160  1.0000
  C   C71       1.0  0.96490  0.67580  0.68160  1.0000
  C   C72       1.0  0.03510  0.17580  0.81840  1.0000
  O   O1        1.0  0.71320  0.43530  0.31110  1.0000
  O   O2        1.0  0.28680  0.93530  0.18890  1.0000
  O   O3        1.0  0.28680  0.56470  0.68890  1.0000
  O   O4        1.0  0.71320  0.06470  0.81110  1.0000
  O   O5        1.0  0.77660  0.42450  0.21310  1.0000
  O   O6        1.0  0.22340  0.92450  0.28690  1.0000
  O   O7        1.0  0.22340  0.57550  0.78690  1.0000
  O   O8        1.0  0.77660  0.07550  0.71310  1.0000
  O   O9        1.0  0.71790  0.63670  0.28930  1.0000
  O   O10       1.0  0.28210  0.13670  0.21070  1.0000
  O   O11       1.0  0.28210  0.36330  0.71070  1.0000
  O   O12       1.0  0.71790  0.86330  0.78930  1.0000
  O   O13       1.0  0.76630  0.62430  0.18430  1.0000
  O   O14       1.0  0.23370  0.12430  0.31570  1.0000
  O   O15       1.0  0.23370  0.37570  0.81570  1.0000
  O   O16       1.0  0.76630  0.87570  0.68430  1.0000
  O   O17       1.0  0.60880  0.35900  0.21940  1.0000
  O   O18       1.0  0.39120  0.85900  0.28060  1.0000
  O   O19       1.0  0.39120  0.64100  0.78060  1.0000
  O   O20       1.0  0.60880  0.14100  0.71940  1.0000
  O   O21       1.0  0.68810  0.31300  0.32150  1.0000
  O   O22       1.0  0.31190  0.81300  0.17850  1.0000
  O   O23       1.0  0.31190  0.68700  0.67850  1.0000
  O   O24       1.0  0.68810  0.18700  0.82150  1.0000
  O   O25       1.0  0.31090  0.26530  0.21860  1.0000
  O   O26       1.0  0.68910  0.76530  0.28140  1.0000
  O   O27       1.0  0.68910  0.73470  0.78140  1.0000
  O   O28       1.0  0.31090  0.23470  0.71860  1.0000
  O   O29       1.0  0.39270  0.21370  0.32090  1.0000
  O   O30       1.0  0.60730  0.71370  0.17910  1.0000
  O   O31       1.0  0.60730  0.78630  0.67910  1.0000
  O   O32       1.0  0.39270  0.28630  0.82090  1.0000
  O   O33       1.0  0.17670  0.27080  0.31730  1.0000
  O   O34       1.0  0.82330  0.77080  0.18270  1.0000
  O   O35       1.0  0.82330  0.72920  0.68270  1.0000
  O   O36       1.0  0.17670  0.22920  0.81730  1.0000
  O   O37       1.0  0.09590  0.20840  0.22530  1.0000
  O   O38       1.0  0.90410  0.70840  0.27470  1.0000
  O   O39       1.0  0.90410  0.79160  0.77470  1.0000
  O   O40       1.0  0.09590  0.29160  0.72530  1.0000
  O   O41       1.0  0.88040  0.36440  0.31620  1.0000
  O   O42       1.0  0.11960  0.86440  0.18380  1.0000
  O   O43       1.0  0.11960  0.63560  0.68380  1.0000
  O   O44       1.0  0.88040  0.13560  0.81620  1.0000
  O   O45       1.0  0.79580  0.30250  0.22530  1.0000
  O   O46       1.0  0.20420  0.80250  0.27470  1.0000
  O   O47       1.0  0.20420  0.69750  0.77470  1.0000
  O   O48       1.0  0.79580  0.19750  0.72530  1.0000
  Cr  Cr1       1.0  0.74420  0.36618  0.26839  1.0000
  Cr  Cr2       1.0  0.25580  0.86618  0.23161  1.0000
  Cr  Cr3       1.0  0.25580  0.63382  0.73161  1.0000
  Cr  Cr4       1.0  0.74420  0.13382  0.76839  1.0000
  Mn  Mn1       1.0  0.75510  0.70403  0.22934  1.0000
  Mn  Mn2       1.0  0.24490  0.20403  0.27066  1.0000
  Mn  Mn3       1.0  0.24490  0.29597  0.77066  1.0000
  Mn  Mn4       1.0  0.75510  0.79597  0.72934  1.0000
  Br  Br1       1.0  0.66190  0.54620  0.37750  1.0000
  Br  Br2       1.0  0.33810  0.04620  0.12250  1.0000
  Br  Br3       1.0  0.33810  0.45380  0.62250  1.0000
  Br  Br4       1.0  0.66190  0.95380  0.87750  1.0000
  Br  Br5       1.0  0.81011  0.51420  0.11704  1.0000
  Br  Br6       1.0  0.18989  0.01420  0.38296  1.0000
  Br  Br7       1.0  0.18989  0.48580  0.88296  1.0000
  Br  Br8       1.0  0.81011  0.98580  0.61704  1.0000
  Br  Br9       1.0  0.59713  0.22843  0.40353  1.0000
  Br  Br10      1.0  0.40287  0.72843  0.09647  1.0000
  Br  Br11      1.0  0.40287  0.77157  0.59647  1.0000
  Br  Br12      1.0  0.59713  0.27157  0.90353  1.0000
  Br  Br13      1.0  0.40046  0.35531  0.14366  1.0000
  Br  Br14      1.0  0.59954  0.85531  0.35634  1.0000
  Br  Br15      1.0  0.59954  0.64469  0.85634  1.0000
  Br  Br16      1.0  0.40046  0.14469  0.64366  1.0000
  Br  Br17      1.0  0.09447  0.37349  0.38206  1.0000
  Br  Br18      1.0  0.90553  0.87349  0.11794  1.0000
  Br  Br19      1.0  0.90553  0.62651  0.61794  1.0000
  Br  Br20      1.0  0.09447  0.12651  0.88206  1.0000
  Br  Br21      1.0  0.88211  0.20787  0.15251  1.0000
  Br  Br22      1.0  0.11789  0.70787  0.34749  1.0000
  Br  Br23      1.0  0.11789  0.79213  0.84749  1.0000
  Br  Br24      1.0  0.88211  0.29213  0.65251  1.0000
