data_image0
_chemical_formula_structural       C108O72Cl36Cr6Mn6
_chemical_formula_sum              "C108 O72 Cl36 Cr6 Mn6"
_cell_length_a       13.7059
_cell_length_b       13.7059
_cell_length_c       66.2433
_cell_angle_alpha    90
_cell_angle_beta     90
_cell_angle_gamma    120

_space_group_name_H-M_alt    "P 1"
_space_group_IT_number       1

loop_
  _space_group_symop_operation_xyz
  'x, y, z'

loop_
  _atom_site_type_symbol
  _atom_site_label
  _atom_site_symmetry_multiplicity
  _atom_site_fract_x
  _atom_site_fract_y
  _atom_site_fract_z
  _atom_site_occupancy
  C   C1        1.0  0.23250  0.52320  0.24010  1.0000
  C   C2        1.0  0.76750  0.47680  0.74010  1.0000
  C   C3        1.0  0.47680  0.70930  0.57343  1.0000
  C   C4        1.0  0.29070  0.76750  0.90677  1.0000
  C   C5        1.0  0.70930  0.23250  0.40677  1.0000
  C   C6        1.0  0.52320  0.29070  0.07343  1.0000
  C   C7        1.0  0.70930  0.47680  0.75990  1.0000
  C   C8        1.0  0.76750  0.29070  0.42657  1.0000
  C   C9        1.0  0.52320  0.23250  0.09323  1.0000
  C   C10       1.0  0.47680  0.76750  0.59323  1.0000
  C   C11       1.0  0.23250  0.70930  0.92657  1.0000
  C   C12       1.0  0.29070  0.52320  0.25990  1.0000
  C   C13       1.0  0.25860  0.63120  0.23120  1.0000
  C   C14       1.0  0.74140  0.36880  0.73120  1.0000
  C   C15       1.0  0.36880  0.62740  0.56453  1.0000
  C   C16       1.0  0.37260  0.74140  0.89787  1.0000
  C   C17       1.0  0.62740  0.25860  0.39787  1.0000
  C   C18       1.0  0.63120  0.37260  0.06453  1.0000
  C   C19       1.0  0.62740  0.36880  0.76880  1.0000
  C   C20       1.0  0.74140  0.37260  0.43547  1.0000
  C   C21       1.0  0.63120  0.25860  0.10213  1.0000
  C   C22       1.0  0.36880  0.74140  0.60213  1.0000
  C   C23       1.0  0.25860  0.62740  0.93547  1.0000
  C   C24       1.0  0.37260  0.63120  0.26880  1.0000
  C   C25       1.0  0.33670  0.72710  0.24020  1.0000
  C   C26       1.0  0.66330  0.27290  0.74020  1.0000
  C   C27       1.0  0.27290  0.60960  0.57353  1.0000
  C   C28       1.0  0.39040  0.66330  0.90687  1.0000
  C   C29       1.0  0.60960  0.33670  0.40687  1.0000
  C   C30       1.0  0.72710  0.39040  0.07353  1.0000
  C   C31       1.0  0.60960  0.27290  0.75980  1.0000
  C   C32       1.0  0.66330  0.39040  0.42647  1.0000
  C   C33       1.0  0.72710  0.33670  0.09313  1.0000
  C   C34       1.0  0.27290  0.66330  0.59313  1.0000
  C   C35       1.0  0.33670  0.60960  0.92647  1.0000
  C   C36       1.0  0.39040  0.72710  0.25980  1.0000
  C   C37       1.0  0.33270  0.03260  0.25960  1.0000
  C   C38       1.0  0.66730  0.96740  0.75960  1.0000
  C   C39       1.0  0.96740  0.30010  0.59293  1.0000
  C   C40       1.0  0.69990  0.66730  0.92627  1.0000
  C   C41       1.0  0.30010  0.33270  0.42627  1.0000
  C   C42       1.0  0.03260  0.69990  0.09293  1.0000
  C   C43       1.0  0.30010  0.96740  0.74040  1.0000
  C   C44       1.0  0.66730  0.69990  0.40707  1.0000
  C   C45       1.0  0.03260  0.33270  0.07373  1.0000
  C   C46       1.0  0.96740  0.66730  0.57373  1.0000
  C   C47       1.0  0.33270  0.30010  0.90707  1.0000
  C   C48       1.0  0.69990  0.03260  0.24040  1.0000
  C   C49       1.0  0.39960  0.09500  0.24100  1.0000
  C   C50       1.0  0.60040  0.90500  0.74100  1.0000
  C   C51       1.0  0.90500  0.30460  0.57433  1.0000
  C   C52       1.0  0.69540  0.60040  0.90767  1.0000
  C   C53       1.0  0.30460  0.39960  0.40767  1.0000
  C   C54       1.0  0.09500  0.69540  0.07433  1.0000
  C   C55       1.0  0.30460  0.90500  0.75900  1.0000
  C   C56       1.0  0.60040  0.69540  0.42567  1.0000
  C   C57       1.0  0.09500  0.39960  0.09233  1.0000
  C   C58       1.0  0.90500  0.60040  0.59233  1.0000
  C   C59       1.0  0.39960  0.30460  0.92567  1.0000
  C   C60       1.0  0.69540  0.09500  0.25900  1.0000
  C   C61       1.0  0.23720  0.13940  0.25900  1.0000
  C   C62       1.0  0.76280  0.86060  0.75900  1.0000
  C   C63       1.0  0.86060  0.09780  0.59233  1.0000
  C   C64       1.0  0.90220  0.76280  0.92567  1.0000
  C   C65       1.0  0.09780  0.23720  0.42567  1.0000
  C   C66       1.0  0.13940  0.90220  0.09233  1.0000
  C   C67       1.0  0.09780  0.86060  0.74100  1.0000
  C   C68       1.0  0.76280  0.90220  0.40767  1.0000
  C   C69       1.0  0.13940  0.23720  0.07433  1.0000
  C   C70       1.0  0.86060  0.76280  0.57433  1.0000
  C   C71       1.0  0.23720  0.09780  0.90767  1.0000
  C   C72       1.0  0.90220  0.13940  0.24100  1.0000
  C   C73       1.0  0.25780  0.05860  0.26830  1.0000
  C   C74       1.0  0.74220  0.94140  0.76830  1.0000
  C   C75       1.0  0.94140  0.19920  0.60163  1.0000
  C   C76       1.0  0.80080  0.74220  0.93497  1.0000
  C   C77       1.0  0.19920  0.25780  0.43497  1.0000
  C   C78       1.0  0.05860  0.80080  0.10163  1.0000
  C   C79       1.0  0.19920  0.94140  0.73170  1.0000
  C   C80       1.0  0.74220  0.80080  0.39837  1.0000
  C   C81       1.0  0.05860  0.25780  0.06503  1.0000
  C   C82       1.0  0.94140  0.74220  0.56503  1.0000
  C   C83       1.0  0.25780  0.19920  0.89837  1.0000
  C   C84       1.0  0.80080  0.05860  0.23170  1.0000
  C   C85       1.0  0.29960  0.20240  0.23970  1.0000
  C   C86       1.0  0.70040  0.79760  0.73970  1.0000
  C   C87       1.0  0.79760  0.09720  0.57303  1.0000
  C   C88       1.0  0.90280  0.70040  0.90637  1.0000
  C   C89       1.0  0.09720  0.29960  0.40637  1.0000
  C   C90       1.0  0.20240  0.90280  0.07303  1.0000
  C   C91       1.0  0.09720  0.79760  0.76030  1.0000
  C   C92       1.0  0.70040  0.90280  0.42697  1.0000
  C   C93       1.0  0.20240  0.29960  0.09363  1.0000
  C   C94       1.0  0.79760  0.70040  0.59363  1.0000
  C   C95       1.0  0.29960  0.09720  0.92697  1.0000
  C   C96       1.0  0.90280  0.20240  0.26030  1.0000
  C   C97       1.0  0.37790  0.17330  0.23160  1.0000
  C   C98       1.0  0.62210  0.82670  0.73160  1.0000
  C   C99       1.0  0.82670  0.20460  0.56493  1.0000
  C   C100      1.0  0.79540  0.62210  0.89827  1.0000
  C   C101      1.0  0.20460  0.37790  0.39827  1.0000
  C   C102      1.0  0.17330  0.79540  0.06493  1.0000
  C   C103      1.0  0.20460  0.82670  0.76840  1.0000
  C   C104      1.0  0.62210  0.79540  0.43507  1.0000
  C   C105      1.0  0.17330  0.37790  0.10173  1.0000
  C   C106      1.0  0.82670  0.62210  0.60173  1.0000
  C   C107      1.0  0.37790  0.20460  0.93507  1.0000
  C   C108      1.0  0.79540  0.17330  0.26840  1.0000
  O   O1        1.0  0.16110  0.42800  0.23407  1.0000
  O   O2        1.0  0.83890  0.57200  0.73407  1.0000
  O   O3        1.0  0.57200  0.73310  0.56740  1.0000
  O   O4        1.0  0.26690  0.83890  0.90074  1.0000
  O   O5        1.0  0.73310  0.16110  0.40074  1.0000
  O   O6        1.0  0.42800  0.26690  0.06740  1.0000
  O   O7        1.0  0.73310  0.57200  0.76593  1.0000
  O   O8        1.0  0.83890  0.26690  0.43260  1.0000
  O   O9        1.0  0.42800  0.16110  0.09926  1.0000
  O   O10       1.0  0.57200  0.83890  0.59926  1.0000
  O   O11       1.0  0.16110  0.73310  0.93260  1.0000
  O   O12       1.0  0.26690  0.42800  0.26593  1.0000
  O   O13       1.0  0.36130  0.82470  0.23295  1.0000
  O   O14       1.0  0.63870  0.17530  0.73295  1.0000
  O   O15       1.0  0.17530  0.53660  0.56628  1.0000
  O   O16       1.0  0.46340  0.63870  0.89962  1.0000
  O   O17       1.0  0.53660  0.36130  0.39962  1.0000
  O   O18       1.0  0.82470  0.46340  0.06628  1.0000
  O   O19       1.0  0.53660  0.17530  0.76705  1.0000
  O   O20       1.0  0.63870  0.46340  0.43372  1.0000
  O   O21       1.0  0.82470  0.36130  0.10038  1.0000
  O   O22       1.0  0.17530  0.63870  0.60038  1.0000
  O   O23       1.0  0.36130  0.53660  0.93372  1.0000
  O   O24       1.0  0.46340  0.82470  0.26705  1.0000
  O   O25       1.0  0.35480  0.96030  0.26640  1.0000
  O   O26       1.0  0.64520  0.03970  0.76640  1.0000
  O   O27       1.0  0.03970  0.39450  0.59973  1.0000
  O   O28       1.0  0.60550  0.64520  0.93307  1.0000
  O   O29       1.0  0.39450  0.35480  0.43307  1.0000
  O   O30       1.0  0.96030  0.60550  0.09973  1.0000
  O   O31       1.0  0.39450  0.03970  0.73360  1.0000
  O   O32       1.0  0.64520  0.60550  0.40027  1.0000
  O   O33       1.0  0.96030  0.35480  0.06693  1.0000
  O   O34       1.0  0.03970  0.64520  0.56693  1.0000
  O   O35       1.0  0.35480  0.39450  0.90027  1.0000
  O   O36       1.0  0.60550  0.96030  0.23360  1.0000
  O   O37       1.0  0.46520  0.06240  0.23363  1.0000
  O   O38       1.0  0.53480  0.93760  0.73363  1.0000
  O   O39       1.0  0.93760  0.40280  0.56696  1.0000
  O   O40       1.0  0.59720  0.53480  0.90030  1.0000
  O   O41       1.0  0.40280  0.46520  0.40030  1.0000
  O   O42       1.0  0.06240  0.59720  0.06696  1.0000
  O   O43       1.0  0.40280  0.93760  0.76637  1.0000
  O   O44       1.0  0.53480  0.59720  0.43304  1.0000
  O   O45       1.0  0.06240  0.46520  0.09970  1.0000
  O   O46       1.0  0.93760  0.53480  0.59970  1.0000
  O   O47       1.0  0.46520  0.40280  0.93304  1.0000
  O   O48       1.0  0.59720  0.06240  0.26637  1.0000
  O   O49       1.0  0.16710  0.16680  0.26672  1.0000
  O   O50       1.0  0.83290  0.83320  0.76672  1.0000
  O   O51       1.0  0.83320  0.00030  0.60005  1.0000
  O   O52       1.0  0.99970  0.83290  0.93339  1.0000
  O   O53       1.0  0.00030  0.16710  0.43339  1.0000
  O   O54       1.0  0.16680  0.99970  0.10005  1.0000
  O   O55       1.0  0.00030  0.83320  0.73328  1.0000
  O   O56       1.0  0.83290  0.99970  0.39995  1.0000
  O   O57       1.0  0.16680  0.16710  0.06661  1.0000
  O   O58       1.0  0.83320  0.83290  0.56661  1.0000
  O   O59       1.0  0.16710  0.00030  0.89995  1.0000
  O   O60       1.0  0.99970  0.16680  0.23328  1.0000
  O   O61       1.0  0.27180  0.26940  0.23234  1.0000
  O   O62       1.0  0.72820  0.73060  0.73234  1.0000
  O   O63       1.0  0.73060  0.00240  0.56567  1.0000
  O   O64       1.0  0.99760  0.72820  0.89901  1.0000
  O   O65       1.0  0.00240  0.27180  0.39901  1.0000
  O   O66       1.0  0.26940  0.99760  0.06567  1.0000
  O   O67       1.0  0.00240  0.73060  0.76766  1.0000
  O   O68       1.0  0.72820  0.99760  0.43433  1.0000
  O   O69       1.0  0.26940  0.27180  0.10099  1.0000
  O   O70       1.0  0.73060  0.72820  0.60099  1.0000
  O   O71       1.0  0.27180  0.00240  0.93433  1.0000
  O   O72       1.0  0.99760  0.26940  0.26766  1.0000
  Cl  Cl1       1.0  0.18990  0.62660  0.20912  1.0000
  Cl  Cl2       1.0  0.81010  0.37340  0.70912  1.0000
  Cl  Cl3       1.0  0.37340  0.56330  0.54245  1.0000
  Cl  Cl4       1.0  0.43670  0.81010  0.87579  1.0000
  Cl  Cl5       1.0  0.56330  0.18990  0.37579  1.0000
  Cl  Cl6       1.0  0.62660  0.43670  0.04245  1.0000
  Cl  Cl7       1.0  0.56330  0.37340  0.79088  1.0000
  Cl  Cl8       1.0  0.81010  0.43670  0.45755  1.0000
  Cl  Cl9       1.0  0.62660  0.18990  0.12421  1.0000
  Cl  Cl10      1.0  0.37340  0.81010  0.62421  1.0000
  Cl  Cl11      1.0  0.18990  0.56330  0.95755  1.0000
  Cl  Cl12      1.0  0.43670  0.62660  0.29088  1.0000
  Cl  Cl13      1.0  0.18860  0.99140  0.29009  1.0000
  Cl  Cl14      1.0  0.81140  0.00860  0.79009  1.0000
  Cl  Cl15      1.0  0.00860  0.19720  0.62342  1.0000
  Cl  Cl16      1.0  0.80280  0.81140  0.95676  1.0000
  Cl  Cl17      1.0  0.19720  0.18860  0.45676  1.0000
  Cl  Cl18      1.0  0.99140  0.80280  0.12342  1.0000
  Cl  Cl19      1.0  0.19720  0.00860  0.70991  1.0000
  Cl  Cl20      1.0  0.81140  0.80280  0.37658  1.0000
  Cl  Cl21      1.0  0.99140  0.18860  0.04324  1.0000
  Cl  Cl22      1.0  0.00860  0.81140  0.54324  1.0000
  Cl  Cl23      1.0  0.18860  0.19720  0.87658  1.0000
  Cl  Cl24      1.0  0.80280  0.99140  0.20991  1.0000
  Cl  Cl25      1.0  0.45570  0.24930  0.21120  1.0000
  Cl  Cl26      1.0  0.54430  0.75070  0.71120  1.0000
  Cl  Cl27      1.0  0.75070  0.20640  0.54453  1.0000
  Cl  Cl28      1.0  0.79360  0.54430  0.87787  1.0000
  Cl  Cl29      1.0  0.20640  0.45570  0.37787  1.0000
  Cl  Cl30      1.0  0.24930  0.79360  0.04453  1.0000
  Cl  Cl31      1.0  0.20640  0.75070  0.78880  1.0000
  Cl  Cl32      1.0  0.54430  0.79360  0.45547  1.0000
  Cl  Cl33      1.0  0.24930  0.45570  0.12213  1.0000
  Cl  Cl34      1.0  0.75070  0.54430  0.62213  1.0000
  Cl  Cl35      1.0  0.45570  0.20640  0.95547  1.0000
  Cl  Cl36      1.0  0.79360  0.24930  0.28880  1.0000
  Cr  Cr1       1.0  0.47580  0.95160  0.25000  1.0000
  Cr  Cr2       1.0  0.52420  0.04840  0.75000  1.0000
  Cr  Cr3       1.0  0.04840  0.52420  0.58333  1.0000
  Cr  Cr4       1.0  0.47580  0.52420  0.91667  1.0000
  Cr  Cr5       1.0  0.52420  0.47580  0.41667  1.0000
  Cr  Cr6       1.0  0.95160  0.47580  0.08333  1.0000
  Mn  Mn1       1.0  0.14271  0.28540  0.25000  1.0000
  Mn  Mn2       1.0  0.85729  0.71460  0.75000  1.0000
  Mn  Mn3       1.0  0.71460  0.85731  0.58333  1.0000
  Mn  Mn4       1.0  0.14269  0.85729  0.91667  1.0000
  Mn  Mn5       1.0  0.85731  0.14271  0.41667  1.0000
  Mn  Mn6       1.0  0.28540  0.14269  0.08333  1.0000
