data_image0
_chemical_formula_structural       Zn8O48N8H8C24H8C8H8C24H8C8H8C24H8C8H8C8H24C8H24
_chemical_formula_sum              "Zn8 O48 N8 H104 C112"
_cell_length_a       18.421
_cell_length_b       30.906
_cell_length_c       11.346
_cell_angle_alpha    90
_cell_angle_beta     90
_cell_angle_gamma    90

_space_group_name_H-M_alt    "P 1"
_space_group_IT_number       1

loop_
  _space_group_symop_operation_xyz
  'x, y, z'

loop_
  _atom_site_type_symbol
  _atom_site_label
  _atom_site_symmetry_multiplicity
  _atom_site_fract_x
  _atom_site_fract_y
  _atom_site_fract_z
  _atom_site_occupancy
  Zn  Zn1       1.0  0.74817  0.57437  0.82017  1.0000
  Zn  Zn2       1.0  0.75183  0.42563  0.32017  1.0000
  Zn  Zn3       1.0  0.25183  0.07437  0.17983  1.0000
  Zn  Zn4       1.0  0.24817  0.92563  0.67983  1.0000
  Zn  Zn5       1.0  0.25183  0.42563  0.17983  1.0000
  Zn  Zn6       1.0  0.24817  0.57437  0.67983  1.0000
  Zn  Zn7       1.0  0.74817  0.92563  0.82017  1.0000
  Zn  Zn8       1.0  0.75183  0.07437  0.32017  1.0000
  O   O1        1.0  0.65833  0.56316  0.90871  1.0000
  O   O2        1.0  0.84167  0.43684  0.40871  1.0000
  O   O3        1.0  0.34167  0.06316  0.09129  1.0000
  O   O4        1.0  0.15833  0.93684  0.59129  1.0000
  O   O5        1.0  0.34167  0.43684  0.09129  1.0000
  O   O6        1.0  0.15833  0.56316  0.59129  1.0000
  O   O7        1.0  0.65833  0.93684  0.90871  1.0000
  O   O8        1.0  0.84167  0.06316  0.40871  1.0000
  O   O9        1.0  0.66892  0.49777  0.82720  1.0000
  O   O10       1.0  0.83108  0.50223  0.32720  1.0000
  O   O11       1.0  0.33108  0.99777  0.17280  1.0000
  O   O12       1.0  0.16892  0.00223  0.67280  1.0000
  O   O13       1.0  0.33108  0.50223  0.17280  1.0000
  O   O14       1.0  0.16892  0.49777  0.67280  1.0000
  O   O15       1.0  0.66892  0.00223  0.82720  1.0000
  O   O16       1.0  0.83108  0.99777  0.32720  1.0000
  O   O17       1.0  0.84206  0.54729  0.85243  1.0000
  O   O18       1.0  0.65794  0.45271  0.35243  1.0000
  O   O19       1.0  0.15794  0.04729  0.14757  1.0000
  O   O20       1.0  0.34206  0.95271  0.64757  1.0000
  O   O21       1.0  0.15794  0.45271  0.14757  1.0000
  O   O22       1.0  0.34206  0.54729  0.64757  1.0000
  O   O23       1.0  0.84206  0.95271  0.85243  1.0000
  O   O24       1.0  0.65794  0.04729  0.35243  1.0000
  O   O25       1.0  0.80801  0.52970  0.03599  1.0000
  O   O26       1.0  0.69199  0.47030  0.53599  1.0000
  O   O27       1.0  0.19199  0.02970  0.96401  1.0000
  O   O28       1.0  0.30801  0.97030  0.46401  1.0000
  O   O29       1.0  0.19199  0.47030  0.96401  1.0000
  O   O30       1.0  0.30801  0.52970  0.46401  1.0000
  O   O31       1.0  0.80801  0.97030  0.03599  1.0000
  O   O32       1.0  0.69199  0.02970  0.53599  1.0000
  O   O33       1.0  0.75628  0.63783  0.79740  1.0000
  O   O34       1.0  0.74372  0.36217  0.29740  1.0000
  O   O35       1.0  0.24372  0.13783  0.20260  1.0000
  O   O36       1.0  0.25628  0.86217  0.70260  1.0000
  O   O37       1.0  0.24372  0.36217  0.20260  1.0000
  O   O38       1.0  0.25628  0.63783  0.70260  1.0000
  O   O39       1.0  0.75628  0.86217  0.79740  1.0000
  O   O40       1.0  0.74372  0.13783  0.29740  1.0000
  O   O41       1.0  0.78004  0.63646  0.98921  1.0000
  O   O42       1.0  0.71996  0.36354  0.48921  1.0000
  O   O43       1.0  0.21996  0.13646  0.01079  1.0000
  O   O44       1.0  0.28004  0.86354  0.51079  1.0000
  O   O45       1.0  0.21996  0.36354  0.01079  1.0000
  O   O46       1.0  0.28004  0.63646  0.51079  1.0000
  O   O47       1.0  0.78004  0.86354  0.98921  1.0000
  O   O48       1.0  0.71996  0.13646  0.48921  1.0000
  N   N1        1.0  0.73121  0.55959  0.64500  1.0000
  N   N2        1.0  0.76879  0.44041  0.14500  1.0000
  N   N3        1.0  0.26879  0.05959  0.35500  1.0000
  N   N4        1.0  0.23121  0.94041  0.85500  1.0000
  N   N5        1.0  0.26879  0.44041  0.35500  1.0000
  N   N6        1.0  0.23121  0.55959  0.85500  1.0000
  N   N7        1.0  0.73121  0.94041  0.64500  1.0000
  N   N8        1.0  0.76879  0.05959  0.14500  1.0000
  H   H1        1.0  0.72000  0.53100  0.64000  1.0000
  H   H2        1.0  0.78000  0.46900  0.14000  1.0000
  H   H3        1.0  0.28000  0.03100  0.36000  1.0000
  H   H4        1.0  0.22000  0.96900  0.86000  1.0000
  H   H5        1.0  0.28000  0.46900  0.36000  1.0000
  H   H6        1.0  0.22000  0.53100  0.86000  1.0000
  H   H7        1.0  0.72000  0.96900  0.64000  1.0000
  H   H8        1.0  0.78000  0.03100  0.14000  1.0000
  C   C1        1.0  0.63617  0.52421  0.88920  1.0000
  C   C2        1.0  0.86383  0.47579  0.38920  1.0000
  C   C3        1.0  0.36383  0.02421  0.11080  1.0000
  C   C4        1.0  0.13617  0.97579  0.61080  1.0000
  C   C5        1.0  0.36383  0.47579  0.11080  1.0000
  C   C6        1.0  0.13617  0.52421  0.61080  1.0000
  C   C7        1.0  0.63617  0.97579  0.88920  1.0000
  C   C8        1.0  0.86383  0.02421  0.38920  1.0000
  C   C9        1.0  0.56500  0.51227  0.94660  1.0000
  C   C10       1.0  0.93500  0.48773  0.44660  1.0000
  C   C11       1.0  0.43500  0.01227  0.05340  1.0000
  C   C12       1.0  0.06500  0.98773  0.55340  1.0000
  C   C13       1.0  0.43500  0.48773  0.05340  1.0000
  C   C14       1.0  0.06500  0.51227  0.55340  1.0000
  C   C15       1.0  0.56500  0.98773  0.94660  1.0000
  C   C16       1.0  0.93500  0.01227  0.44660  1.0000
  C   C17       1.0  0.52584  0.54188  0.01400  1.0000
  C   C18       1.0  0.97416  0.45812  0.51400  1.0000
  C   C19       1.0  0.47416  0.04188  0.98600  1.0000
  C   C20       1.0  0.02584  0.95812  0.48600  1.0000
  C   C21       1.0  0.47416  0.45812  0.98600  1.0000
  C   C22       1.0  0.02584  0.54188  0.48600  1.0000
  C   C23       1.0  0.52584  0.95812  0.01400  1.0000
  C   C24       1.0  0.97416  0.04188  0.51400  1.0000
  H   H9        1.0  0.54310  0.56990  0.02410  1.0000
  H   H10       1.0  0.95690  0.43010  0.52410  1.0000
  H   H11       1.0  0.45690  0.06990  0.97590  1.0000
  H   H12       1.0  0.04310  0.93010  0.47590  1.0000
  H   H13       1.0  0.45690  0.43010  0.97590  1.0000
  H   H14       1.0  0.04310  0.56990  0.47590  1.0000
  H   H15       1.0  0.54310  0.93010  0.02410  1.0000
  H   H16       1.0  0.95690  0.06990  0.52410  1.0000
  C   C25       1.0  0.53859  0.47065  0.93430  1.0000
  C   C26       1.0  0.96141  0.52935  0.43430  1.0000
  C   C27       1.0  0.46141  0.97065  0.06570  1.0000
  C   C28       1.0  0.03859  0.02935  0.56570  1.0000
  C   C29       1.0  0.46141  0.52935  0.06570  1.0000
  C   C30       1.0  0.03859  0.47065  0.56570  1.0000
  C   C31       1.0  0.53859  0.02935  0.93430  1.0000
  C   C32       1.0  0.96141  0.97065  0.43430  1.0000
  H   H17       1.0  0.56480  0.45070  0.89020  1.0000
  H   H18       1.0  0.93520  0.54930  0.39020  1.0000
  H   H19       1.0  0.43520  0.95070  0.10980  1.0000
  H   H20       1.0  0.06480  0.04930  0.60980  1.0000
  H   H21       1.0  0.43520  0.54930  0.10980  1.0000
  H   H22       1.0  0.06480  0.45070  0.60980  1.0000
  H   H23       1.0  0.56480  0.04930  0.89020  1.0000
  H   H24       1.0  0.93520  0.95070  0.39020  1.0000
  C   C33       1.0  0.85371  0.53206  0.95700  1.0000
  C   C34       1.0  0.64629  0.46794  0.45700  1.0000
  C   C35       1.0  0.14629  0.03206  0.04300  1.0000
  C   C36       1.0  0.35371  0.96794  0.54300  1.0000
  C   C37       1.0  0.14629  0.46794  0.04300  1.0000
  C   C38       1.0  0.35371  0.53206  0.54300  1.0000
  C   C39       1.0  0.85371  0.96794  0.95700  1.0000
  C   C40       1.0  0.64629  0.03206  0.45700  1.0000
  C   C41       1.0  0.92994  0.51533  0.97790  1.0000
  C   C42       1.0  0.57006  0.48467  0.47790  1.0000
  C   C43       1.0  0.07006  0.01533  0.02210  1.0000
  C   C44       1.0  0.42994  0.98467  0.52210  1.0000
  C   C45       1.0  0.07006  0.48467  0.02210  1.0000
  C   C46       1.0  0.42994  0.51533  0.52210  1.0000
  C   C47       1.0  0.92994  0.98467  0.97790  1.0000
  C   C48       1.0  0.57006  0.01533  0.47790  1.0000
  C   C49       1.0  0.97830  0.50915  0.88420  1.0000
  C   C50       1.0  0.52170  0.49085  0.38420  1.0000
  C   C51       1.0  0.02170  0.00915  0.11580  1.0000
  C   C52       1.0  0.47830  0.99085  0.61580  1.0000
  C   C53       1.0  0.02170  0.49085  0.11580  1.0000
  C   C54       1.0  0.47830  0.50915  0.61580  1.0000
  C   C55       1.0  0.97830  0.99085  0.88420  1.0000
  C   C56       1.0  0.52170  0.00915  0.38420  1.0000
  H   H25       1.0  0.96370  0.51520  0.80760  1.0000
  H   H26       1.0  0.53630  0.48480  0.30760  1.0000
  H   H27       1.0  0.03630  0.01520  0.19240  1.0000
  H   H28       1.0  0.46370  0.98480  0.69240  1.0000
  H   H29       1.0  0.03630  0.48480  0.19240  1.0000
  H   H30       1.0  0.46370  0.51520  0.69240  1.0000
  H   H31       1.0  0.96370  0.98480  0.80760  1.0000
  H   H32       1.0  0.53630  0.01520  0.30760  1.0000
  C   C57       1.0  0.95059  0.50634  0.09420  1.0000
  C   C58       1.0  0.54941  0.49366  0.59420  1.0000
  C   C59       1.0  0.04941  0.00634  0.90580  1.0000
  C   C60       1.0  0.45059  0.99366  0.40580  1.0000
  C   C61       1.0  0.04941  0.49366  0.90580  1.0000
  C   C62       1.0  0.45059  0.50634  0.40580  1.0000
  C   C63       1.0  0.95059  0.99366  0.09420  1.0000
  C   C64       1.0  0.54941  0.00634  0.59420  1.0000
  H   H33       1.0  0.91820  0.51050  0.15610  1.0000
  H   H34       1.0  0.58180  0.48950  0.65610  1.0000
  H   H35       1.0  0.08180  0.01050  0.84390  1.0000
  H   H36       1.0  0.41820  0.98950  0.34390  1.0000
  H   H37       1.0  0.08180  0.48950  0.84390  1.0000
  H   H38       1.0  0.41820  0.51050  0.34390  1.0000
  H   H39       1.0  0.91820  0.98950  0.15610  1.0000
  H   H40       1.0  0.58180  0.01050  0.65610  1.0000
  C   C65       1.0  0.76932  0.65657  0.89790  1.0000
  C   C66       1.0  0.73068  0.34343  0.39790  1.0000
  C   C67       1.0  0.23068  0.15657  0.10210  1.0000
  C   C68       1.0  0.26932  0.84343  0.60210  1.0000
  C   C69       1.0  0.23068  0.34343  0.10210  1.0000
  C   C70       1.0  0.26932  0.65657  0.60210  1.0000
  C   C71       1.0  0.76932  0.84343  0.89790  1.0000
  C   C72       1.0  0.73068  0.15657  0.39790  1.0000
  C   C73       1.0  0.76968  0.70493  0.89430  1.0000
  C   C74       1.0  0.73032  0.29507  0.39430  1.0000
  C   C75       1.0  0.23032  0.20493  0.10570  1.0000
  C   C76       1.0  0.26968  0.79507  0.60570  1.0000
  C   C77       1.0  0.23032  0.29507  0.10570  1.0000
  C   C78       1.0  0.26968  0.70493  0.60570  1.0000
  C   C79       1.0  0.76968  0.79507  0.89430  1.0000
  C   C80       1.0  0.73032  0.20493  0.39430  1.0000
  C   C81       1.0  0.77888  0.72718  0.99800  1.0000
  C   C82       1.0  0.72112  0.27282  0.49800  1.0000
  C   C83       1.0  0.22112  0.22718  0.00200  1.0000
  C   C84       1.0  0.27888  0.77282  0.50200  1.0000
  C   C85       1.0  0.22112  0.27282  0.00200  1.0000
  C   C86       1.0  0.27888  0.72718  0.50200  1.0000
  C   C87       1.0  0.77888  0.77282  0.99800  1.0000
  C   C88       1.0  0.72112  0.22718  0.49800  1.0000
  H   H41       1.0  0.78510  0.71210  0.06830  1.0000
  H   H42       1.0  0.71490  0.28790  0.56830  1.0000
  H   H43       1.0  0.21490  0.21210  0.93170  1.0000
  H   H44       1.0  0.28510  0.78790  0.43170  1.0000
  H   H45       1.0  0.21490  0.28790  0.93170  1.0000
  H   H46       1.0  0.28510  0.71210  0.43170  1.0000
  H   H47       1.0  0.78510  0.78790  0.06830  1.0000
  H   H48       1.0  0.71490  0.21210  0.56830  1.0000
  C   C89       1.0  0.75900  0.72744  0.79220  1.0000
  C   C90       1.0  0.74100  0.27256  0.29220  1.0000
  C   C91       1.0  0.24100  0.22744  0.20780  1.0000
  C   C92       1.0  0.25900  0.77256  0.70780  1.0000
  C   C93       1.0  0.24100  0.27256  0.20780  1.0000
  C   C94       1.0  0.25900  0.72744  0.70780  1.0000
  C   C95       1.0  0.75900  0.77256  0.79220  1.0000
  C   C96       1.0  0.74100  0.22744  0.29220  1.0000
  H   H49       1.0  0.75170  0.71250  0.72200  1.0000
  H   H50       1.0  0.74830  0.28750  0.22200  1.0000
  H   H51       1.0  0.24830  0.21250  0.27800  1.0000
  H   H52       1.0  0.25170  0.78750  0.77800  1.0000
  H   H53       1.0  0.24830  0.28750  0.27800  1.0000
  H   H54       1.0  0.25170  0.71250  0.77800  1.0000
  H   H55       1.0  0.75170  0.78750  0.72200  1.0000
  H   H56       1.0  0.74830  0.21250  0.22200  1.0000
  C   C97       1.0  0.79857  0.56728  0.57450  1.0000
  C   C98       1.0  0.70143  0.43272  0.07450  1.0000
  C   C99       1.0  0.20143  0.06728  0.42550  1.0000
  C   C100      1.0  0.29857  0.93272  0.92550  1.0000
  C   C101      1.0  0.20143  0.43272  0.42550  1.0000
  C   C102      1.0  0.29857  0.56728  0.92550  1.0000
  C   C103      1.0  0.79857  0.93272  0.57450  1.0000
  C   C104      1.0  0.70143  0.06728  0.07450  1.0000
  H   H57       1.0  0.79850  0.54880  0.50650  1.0000
  H   H58       1.0  0.70150  0.45120  0.00650  1.0000
  H   H59       1.0  0.20150  0.04880  0.49350  1.0000
  H   H60       1.0  0.29850  0.95120  0.99350  1.0000
  H   H61       1.0  0.20150  0.45120  0.49350  1.0000
  H   H62       1.0  0.29850  0.54880  0.99350  1.0000
  H   H63       1.0  0.79850  0.95120  0.50650  1.0000
  H   H64       1.0  0.70150  0.04880  0.00650  1.0000
  H   H65       1.0  0.84040  0.56100  0.62200  1.0000
  H   H66       1.0  0.65960  0.43900  0.12200  1.0000
  H   H67       1.0  0.15960  0.06100  0.37800  1.0000
  H   H68       1.0  0.34040  0.93900  0.87800  1.0000
  H   H69       1.0  0.15960  0.43900  0.37800  1.0000
  H   H70       1.0  0.34040  0.56100  0.87800  1.0000
  H   H71       1.0  0.84040  0.93900  0.62200  1.0000
  H   H72       1.0  0.65960  0.06100  0.12200  1.0000
  H   H73       1.0  0.80010  0.59700  0.54970  1.0000
  H   H74       1.0  0.69990  0.40300  0.04970  1.0000
  H   H75       1.0  0.19990  0.09700  0.45030  1.0000
  H   H76       1.0  0.30010  0.90300  0.95030  1.0000
  H   H77       1.0  0.19990  0.40300  0.45030  1.0000
  H   H78       1.0  0.30010  0.59700  0.95030  1.0000
  H   H79       1.0  0.80010  0.90300  0.54970  1.0000
  H   H80       1.0  0.69990  0.09700  0.04970  1.0000
  C   C105      1.0  0.66929  0.58483  0.59480  1.0000
  C   C106      1.0  0.83071  0.41517  0.09480  1.0000
  C   C107      1.0  0.33071  0.08483  0.40520  1.0000
  C   C108      1.0  0.16929  0.91517  0.90520  1.0000
  C   C109      1.0  0.33071  0.41517  0.40520  1.0000
  C   C110      1.0  0.16929  0.58483  0.90520  1.0000
  C   C111      1.0  0.66929  0.91517  0.59480  1.0000
  C   C112      1.0  0.83071  0.08483  0.09480  1.0000
  H   H81       1.0  0.68320  0.61460  0.58670  1.0000
  H   H82       1.0  0.81680  0.38540  0.08670  1.0000
  H   H83       1.0  0.31680  0.11460  0.41330  1.0000
  H   H84       1.0  0.18320  0.88540  0.91330  1.0000
  H   H85       1.0  0.31680  0.38540  0.41330  1.0000
  H   H86       1.0  0.18320  0.61460  0.91330  1.0000
  H   H87       1.0  0.68320  0.88540  0.58670  1.0000
  H   H88       1.0  0.81680  0.11460  0.08670  1.0000
  H   H89       1.0  0.62820  0.58280  0.64660  1.0000
  H   H90       1.0  0.87180  0.41720  0.14660  1.0000
  H   H91       1.0  0.37180  0.08280  0.35340  1.0000
  H   H92       1.0  0.12820  0.91720  0.85340  1.0000
  H   H93       1.0  0.37180  0.41720  0.35340  1.0000
  H   H94       1.0  0.12820  0.58280  0.85340  1.0000
  H   H95       1.0  0.62820  0.91720  0.64660  1.0000
  H   H96       1.0  0.87180  0.08280  0.14660  1.0000
  H   H97       1.0  0.65660  0.57330  0.51900  1.0000
  H   H98       1.0  0.84340  0.42670  0.01900  1.0000
  H   H99       1.0  0.34340  0.07330  0.48100  1.0000
  H   H100      1.0  0.15660  0.92670  0.98100  1.0000
  H   H101      1.0  0.34340  0.42670  0.48100  1.0000
  H   H102      1.0  0.15660  0.57330  0.98100  1.0000
  H   H103      1.0  0.65660  0.92670  0.51900  1.0000
  H   H104      1.0  0.84340  0.07330  0.01900  1.0000
