data_image0
_chemical_formula_structural       Ca4F16O28N4C32
_chemical_formula_sum              "Ca4 F16 O28 N4 C32"
_cell_length_a       4.4398
_cell_length_b       23.038
_cell_length_c       14.3878
_cell_angle_alpha    90
_cell_angle_beta     96.661
_cell_angle_gamma    90

_space_group_name_H-M_alt    "P 1"
_space_group_IT_number       1

loop_
  _space_group_symop_operation_xyz
  'x, y, z'

loop_
  _atom_site_type_symbol
  _atom_site_label
  _atom_site_symmetry_multiplicity
  _atom_site_fract_x
  _atom_site_fract_y
  _atom_site_fract_z
  _atom_site_occupancy
  Ca  Ca1       1.0  0.87377  0.41899  0.50393  1.0000
  Ca  Ca2       1.0  0.62623  0.91899  0.99607  1.0000
  Ca  Ca3       1.0  0.12623  0.58101  0.49607  1.0000
  Ca  Ca4       1.0  0.37377  0.08101  0.00393  1.0000
  F   F1        1.0  0.17320  0.45754  0.80156  1.0000
  F   F2        1.0  0.32680  0.95754  0.69844  1.0000
  F   F3        1.0  0.82680  0.54246  0.19844  1.0000
  F   F4        1.0  0.67320  0.04246  0.30156  1.0000
  F   F5        1.0  0.21920  0.52372  0.95744  1.0000
  F   F6        1.0  0.28080  0.02372  0.54256  1.0000
  F   F7        1.0  0.78080  0.47628  0.04256  1.0000
  F   F8        1.0  0.71920  0.97628  0.45744  1.0000
  F   F9        1.0  0.55820  0.62147  0.96716  1.0000
  F   F10       1.0  0.94180  0.12147  0.53284  1.0000
  F   F11       1.0  0.44180  0.37853  0.03284  1.0000
  F   F12       1.0  0.05820  0.87853  0.46716  1.0000
  F   F13       1.0  0.84470  0.65442  0.82277  1.0000
  F   F14       1.0  0.65530  0.15442  0.67723  1.0000
  F   F15       1.0  0.15530  0.34558  0.17723  1.0000
  F   F16       1.0  0.34470  0.84558  0.32277  1.0000
  O   O1        1.0  0.61920  0.44628  0.63340  1.0000
  O   O2        1.0  0.88080  0.94628  0.86660  1.0000
  O   O3        1.0  0.38080  0.55372  0.36660  1.0000
  O   O4        1.0  0.11920  0.05372  0.13340  1.0000
  O   O5        1.0  0.19020  0.49343  0.58486  1.0000
  O   O6        1.0  0.30980  0.99343  0.91514  1.0000
  O   O7        1.0  0.80980  0.50657  0.41514  1.0000
  O   O8        1.0  0.69020  0.00657  0.08486  1.0000
  O   O9        1.0  0.03890  0.61950  0.65537  1.0000
  O   O10       1.0  0.46110  0.11950  0.84463  1.0000
  O   O11       1.0  0.96110  0.38050  0.34463  1.0000
  O   O12       1.0  0.53890  0.88050  0.15537  1.0000
  O   O13       1.0  0.63810  0.58442  0.56698  1.0000
  O   O14       1.0  0.86190  0.08442  0.93302  1.0000
  O   O15       1.0  0.36190  0.41558  0.43302  1.0000
  O   O16       1.0  0.13810  0.91558  0.06698  1.0000
  O   O17       1.0  0.75410  0.31456  0.53020  1.0000
  O   O18       1.0  0.74590  0.81456  0.96980  1.0000
  O   O19       1.0  0.24590  0.68544  0.46980  1.0000
  O   O20       1.0  0.25410  0.18544  0.03020  1.0000
  O   O21       1.0  0.13530  0.34892  0.62007  1.0000
  O   O22       1.0  0.36470  0.84892  0.87993  1.0000
  O   O23       1.0  0.86470  0.65108  0.37993  1.0000
  O   O24       1.0  0.63530  0.15108  0.12007  1.0000
  O   O25       1.0  0.01650  0.25790  0.62990  1.0000
  O   O26       1.0  0.48350  0.75790  0.87010  1.0000
  O   O27       1.0  0.98350  0.74210  0.37010  1.0000
  O   O28       1.0  0.51650  0.24210  0.12990  1.0000
  N   N1        1.0  0.96710  0.30554  0.59460  1.0000
  N   N2        1.0  0.53290  0.80554  0.90540  1.0000
  N   N3        1.0  0.03290  0.69446  0.40540  1.0000
  N   N4        1.0  0.46710  0.19446  0.09460  1.0000
  C   C1        1.0  0.42880  0.48448  0.64010  1.0000
  C   C2        1.0  0.07120  0.98448  0.85990  1.0000
  C   C3        1.0  0.57120  0.51552  0.35990  1.0000
  C   C4        1.0  0.92880  0.01552  0.14010  1.0000
  C   C5        1.0  0.47580  0.52321  0.72660  1.0000
  C   C6        1.0  0.02420  0.02321  0.77340  1.0000
  C   C7        1.0  0.52420  0.47679  0.27340  1.0000
  C   C8        1.0  0.97580  0.97679  0.22660  1.0000
  C   C9        1.0  0.33870  0.50678  0.80380  1.0000
  C   C10       1.0  0.16130  0.00678  0.69620  1.0000
  C   C11       1.0  0.66130  0.49322  0.19620  1.0000
  C   C12       1.0  0.83870  0.99322  0.30380  1.0000
  C   C13       1.0  0.36480  0.53976  0.88430  1.0000
  C   C14       1.0  0.13520  0.03976  0.61570  1.0000
  C   C15       1.0  0.63520  0.46024  0.11570  1.0000
  C   C16       1.0  0.86480  0.96024  0.38430  1.0000
  C   C17       1.0  0.53540  0.58902  0.88860  1.0000
  C   C18       1.0  0.96460  0.08902  0.61140  1.0000
  C   C19       1.0  0.46460  0.41098  0.11140  1.0000
  C   C20       1.0  0.03540  0.91098  0.38860  1.0000
  C   C21       1.0  0.67970  0.60561  0.81350  1.0000
  C   C22       1.0  0.82030  0.10561  0.68650  1.0000
  C   C23       1.0  0.32030  0.39439  0.18650  1.0000
  C   C24       1.0  0.17970  0.89439  0.31350  1.0000
  C   C25       1.0  0.64950  0.57376  0.73120  1.0000
  C   C26       1.0  0.85050  0.07376  0.76880  1.0000
  C   C27       1.0  0.35050  0.42624  0.26880  1.0000
  C   C28       1.0  0.14950  0.92624  0.23120  1.0000
  C   C29       1.0  0.78740  0.59509  0.64660  1.0000
  C   C30       1.0  0.71260  0.09509  0.85340  1.0000
  C   C31       1.0  0.21260  0.40491  0.35340  1.0000
  C   C32       1.0  0.28740  0.90491  0.14660  1.0000
