data_image0
_chemical_formula_structural       C32Ca4F16N4O8H8O24
_chemical_formula_sum              "C32 Ca4 F16 N4 O32 H8"
_cell_length_a       14.2384
_cell_length_b       16.3862
_cell_length_c       6.845
_cell_angle_alpha    90
_cell_angle_beta     90
_cell_angle_gamma    90

_space_group_name_H-M_alt    "P 1"
_space_group_IT_number       1

loop_
  _space_group_symop_operation_xyz
  'x, y, z'

loop_
  _atom_site_type_symbol
  _atom_site_label
  _atom_site_symmetry_multiplicity
  _atom_site_fract_x
  _atom_site_fract_y
  _atom_site_fract_z
  _atom_site_occupancy
  C   C1        1.0  0.42089  0.90723  0.11040  1.0000
  C   C2        1.0  0.57911  0.09277  0.61040  1.0000
  C   C3        1.0  0.07911  0.40723  0.61040  1.0000
  C   C4        1.0  0.92089  0.59277  0.11040  1.0000
  C   C5        1.0  0.35909  0.83114  0.10580  1.0000
  C   C6        1.0  0.64091  0.16886  0.60580  1.0000
  C   C7        1.0  0.14091  0.33114  0.60580  1.0000
  C   C8        1.0  0.85909  0.66886  0.10580  1.0000
  C   C9        1.0  0.26770  0.83188  0.17710  1.0000
  C   C10       1.0  0.73230  0.16812  0.67710  1.0000
  C   C11       1.0  0.23230  0.33188  0.67710  1.0000
  C   C12       1.0  0.76770  0.66812  0.17710  1.0000
  C   C13       1.0  0.21220  0.76207  0.17460  1.0000
  C   C14       1.0  0.78780  0.23793  0.67460  1.0000
  C   C15       1.0  0.28780  0.26207  0.67460  1.0000
  C   C16       1.0  0.71220  0.73793  0.17460  1.0000
  C   C17       1.0  0.24531  0.68841  0.10200  1.0000
  C   C18       1.0  0.75469  0.31159  0.60200  1.0000
  C   C19       1.0  0.25469  0.18841  0.60200  1.0000
  C   C20       1.0  0.74531  0.81159  0.10200  1.0000
  C   C21       1.0  0.18469  0.61164  0.10150  1.0000
  C   C22       1.0  0.81531  0.38836  0.60150  1.0000
  C   C23       1.0  0.31531  0.11164  0.60150  1.0000
  C   C24       1.0  0.68469  0.88836  0.10150  1.0000
  C   C25       1.0  0.33733  0.68761  0.03300  1.0000
  C   C26       1.0  0.66267  0.31239  0.53300  1.0000
  C   C27       1.0  0.16267  0.18761  0.53300  1.0000
  C   C28       1.0  0.83733  0.81239  0.03300  1.0000
  C   C29       1.0  0.39250  0.75743  0.03240  1.0000
  C   C30       1.0  0.60750  0.24257  0.53240  1.0000
  C   C31       1.0  0.10750  0.25743  0.53240  1.0000
  C   C32       1.0  0.89250  0.74257  0.03240  1.0000
  Ca  Ca1       1.0  0.43129  0.96948  0.61280  1.0000
  Ca  Ca2       1.0  0.56871  0.03052  0.11280  1.0000
  Ca  Ca3       1.0  0.06871  0.46948  0.11280  1.0000
  Ca  Ca4       1.0  0.93129  0.53052  0.61280  1.0000
  F   F1        1.0  0.23114  0.90132  0.24960  1.0000
  F   F2        1.0  0.76886  0.09868  0.74960  1.0000
  F   F3        1.0  0.26886  0.40132  0.74960  1.0000
  F   F4        1.0  0.73114  0.59868  0.24960  1.0000
  F   F5        1.0  0.12394  0.76737  0.24430  1.0000
  F   F6        1.0  0.87606  0.23263  0.74430  1.0000
  F   F7        1.0  0.37606  0.26737  0.74430  1.0000
  F   F8        1.0  0.62394  0.73263  0.24430  1.0000
  F   F9        1.0  0.37551  0.61711  0.96920  1.0000
  F   F10       1.0  0.62449  0.38289  0.46920  1.0000
  F   F11       1.0  0.12449  0.11711  0.46920  1.0000
  F   F12       1.0  0.87551  0.88289  0.96920  1.0000
  F   F13       1.0  0.48097  0.75264  0.96260  1.0000
  F   F14       1.0  0.51903  0.24736  0.46260  1.0000
  F   F15       1.0  0.01903  0.25264  0.46260  1.0000
  F   F16       1.0  0.98097  0.74736  0.96260  1.0000
  N   N1        1.0  0.27131  0.84888  0.66020  1.0000
  N   N2        1.0  0.72869  0.15112  0.16020  1.0000
  N   N3        1.0  0.22869  0.34888  0.16020  1.0000
  N   N4        1.0  0.77131  0.65112  0.66020  1.0000
  O   O1        1.0  0.45002  0.93487  0.95060  1.0000
  O   O2        1.0  0.54998  0.06513  0.45060  1.0000
  O   O3        1.0  0.04998  0.43487  0.45060  1.0000
  O   O4        1.0  0.95002  0.56513  0.95060  1.0000
  O   O5        1.0  0.56232  0.87517  0.60900  1.0000
  O   O6        1.0  0.43768  0.12483  0.10900  1.0000
  O   O7        1.0  0.93768  0.37517  0.10900  1.0000
  O   O8        1.0  0.06232  0.62483  0.60900  1.0000
  H   H1        1.0  0.59600  0.88040  0.49770  1.0000
  H   H2        1.0  0.40400  0.11960  0.99770  1.0000
  H   H3        1.0  0.90400  0.38040  0.99770  1.0000
  H   H4        1.0  0.09600  0.61960  0.49770  1.0000
  H   H5        1.0  0.60150  0.88440  0.71050  1.0000
  H   H6        1.0  0.39850  0.11560  0.21050  1.0000
  H   H7        1.0  0.89850  0.38440  0.21050  1.0000
  H   H8        1.0  0.10150  0.61560  0.71050  1.0000
  O   O9        1.0  0.44135  0.93656  0.27260  1.0000
  O   O10       1.0  0.55865  0.06344  0.77260  1.0000
  O   O11       1.0  0.05865  0.43656  0.77260  1.0000
  O   O12       1.0  0.94135  0.56344  0.27260  1.0000
  O   O13       1.0  0.15338  0.58776  0.26260  1.0000
  O   O14       1.0  0.84662  0.41224  0.76260  1.0000
  O   O15       1.0  0.34662  0.08776  0.76260  1.0000
  O   O16       1.0  0.65338  0.91224  0.26260  1.0000
  O   O17       1.0  0.17047  0.57706  0.94150  1.0000
  O   O18       1.0  0.82953  0.42294  0.44150  1.0000
  O   O19       1.0  0.32953  0.07706  0.44150  1.0000
  O   O20       1.0  0.67047  0.92294  0.94150  1.0000
  O   O21       1.0  0.25171  0.92079  0.70450  1.0000
  O   O22       1.0  0.74829  0.07921  0.20450  1.0000
  O   O23       1.0  0.24829  0.42079  0.20450  1.0000
  O   O24       1.0  0.75171  0.57921  0.70450  1.0000
  O   O25       1.0  0.21513  0.79210  0.66790  1.0000
  O   O26       1.0  0.78487  0.20790  0.16790  1.0000
  O   O27       1.0  0.28487  0.29210  0.16790  1.0000
  O   O28       1.0  0.71513  0.70790  0.66790  1.0000
  O   O29       1.0  0.35605  0.83550  0.60230  1.0000
  O   O30       1.0  0.64395  0.16450  0.10230  1.0000
  O   O31       1.0  0.14395  0.33550  0.10230  1.0000
  O   O32       1.0  0.85605  0.66450  0.60230  1.0000
