data_image0
_chemical_formula_structural       Sr6F32O8H8O8H8O24C64
_chemical_formula_sum              "Sr6 F32 O40 H16 C64"
_cell_length_a       32.076
_cell_length_b       6.1638
_cell_length_c       11.5618
_cell_angle_alpha    90
_cell_angle_beta     97.569
_cell_angle_gamma    90

_space_group_name_H-M_alt    "P 1"
_space_group_IT_number       1

loop_
  _space_group_symop_operation_xyz
  'x, y, z'

loop_
  _atom_site_type_symbol
  _atom_site_label
  _atom_site_symmetry_multiplicity
  _atom_site_fract_x
  _atom_site_fract_y
  _atom_site_fract_z
  _atom_site_occupancy
  Sr  Sr1       1.0  0.50000  0.66130  0.00000  1.0000
  Sr  Sr2       1.0  0.00000  0.16130  0.00000  1.0000
  Sr  Sr3       1.0  0.52714  0.33730  0.71640  1.0000
  Sr  Sr4       1.0  0.47286  0.33730  0.28360  1.0000
  Sr  Sr5       1.0  0.02714  0.83730  0.71640  1.0000
  Sr  Sr6       1.0  0.97286  0.83730  0.28360  1.0000
  F   F1        1.0  0.65210  0.29790  0.46610  1.0000
  F   F2        1.0  0.34790  0.29790  0.53390  1.0000
  F   F3        1.0  0.15210  0.79790  0.46610  1.0000
  F   F4        1.0  0.84790  0.79790  0.53390  1.0000
  F   F5        1.0  0.70750  0.01980  0.39470  1.0000
  F   F6        1.0  0.29250  0.01980  0.60530  1.0000
  F   F7        1.0  0.20750  0.51980  0.39470  1.0000
  F   F8        1.0  0.79250  0.51980  0.60530  1.0000
  F   F9        1.0  0.67950  0.65800  0.27270  1.0000
  F   F10       1.0  0.32050  0.65800  0.72730  1.0000
  F   F11       1.0  0.17950  0.15800  0.27270  1.0000
  F   F12       1.0  0.82050  0.15800  0.72730  1.0000
  F   F13       1.0  0.59840  0.59100  0.21500  1.0000
  F   F14       1.0  0.40160  0.59100  0.78500  1.0000
  F   F15       1.0  0.09840  0.09100  0.21500  1.0000
  F   F16       1.0  0.90160  0.09100  0.78500  1.0000
  F   F17       1.0  0.63690  0.22080  0.08180  1.0000
  F   F18       1.0  0.36310  0.22080  0.91820  1.0000
  F   F19       1.0  0.13690  0.72080  0.08180  1.0000
  F   F20       1.0  0.86310  0.72080  0.91820  1.0000
  F   F21       1.0  0.71730  0.08300  0.14060  1.0000
  F   F22       1.0  0.28270  0.08300  0.85940  1.0000
  F   F23       1.0  0.21730  0.58300  0.14060  1.0000
  F   F24       1.0  0.78270  0.58300  0.85940  1.0000
  F   F25       1.0  0.74100  0.69190  0.06490  1.0000
  F   F26       1.0  0.25900  0.69190  0.93510  1.0000
  F   F27       1.0  0.24100  0.19190  0.06490  1.0000
  F   F28       1.0  0.75900  0.19190  0.93510  1.0000
  F   F29       1.0  0.68630  0.43760  0.93310  1.0000
  F   F30       1.0  0.31370  0.43760  0.06690  1.0000
  F   F31       1.0  0.18630  0.93760  0.93310  1.0000
  F   F32       1.0  0.81370  0.93760  0.06690  1.0000
  O   O1        1.0  0.56740  0.19070  0.55810  1.0000
  O   O2        1.0  0.43260  0.19070  0.44190  1.0000
  O   O3        1.0  0.06740  0.69070  0.55810  1.0000
  O   O4        1.0  0.93260  0.69070  0.44190  1.0000
  O   O5        1.0  0.52570  0.31900  0.12320  1.0000
  O   O6        1.0  0.47430  0.31900  0.87680  1.0000
  O   O7        1.0  0.02570  0.81900  0.12320  1.0000
  O   O8        1.0  0.97430  0.81900  0.87680  1.0000
  H   H1        1.0  0.55360  0.33190  0.15650  1.0000
  H   H2        1.0  0.44640  0.33190  0.84350  1.0000
  H   H3        1.0  0.05360  0.83190  0.15650  1.0000
  H   H4        1.0  0.94640  0.83190  0.84350  1.0000
  H   H5        1.0  0.52230  0.19230  0.07930  1.0000
  H   H6        1.0  0.47770  0.19230  0.92070  1.0000
  H   H7        1.0  0.02230  0.69230  0.07930  1.0000
  H   H8        1.0  0.97770  0.69230  0.92070  1.0000
  O   O9        1.0  0.54810  0.38830  0.39690  1.0000
  O   O10       1.0  0.45190  0.38830  0.60310  1.0000
  O   O11       1.0  0.04810  0.88830  0.39690  1.0000
  O   O12       1.0  0.95190  0.88830  0.60310  1.0000
  O   O13       1.0  0.54830  0.67360  0.59680  1.0000
  O   O14       1.0  0.45170  0.67360  0.40320  1.0000
  O   O15       1.0  0.04830  0.17360  0.59680  1.0000
  O   O16       1.0  0.95170  0.17360  0.40320  1.0000
  H   H9        1.0  0.53060  0.79360  0.60230  1.0000
  H   H10       1.0  0.46940  0.79360  0.39770  1.0000
  H   H11       1.0  0.03060  0.29360  0.60230  1.0000
  H   H12       1.0  0.96940  0.29360  0.39770  1.0000
  H   H13       1.0  0.54710  0.64250  0.51680  1.0000
  H   H14       1.0  0.45290  0.64250  0.48320  1.0000
  H   H15       1.0  0.04710  0.14250  0.51680  1.0000
  H   H16       1.0  0.95290  0.14250  0.48320  1.0000
  O   O17       1.0  0.51860  0.71810  0.22220  1.0000
  O   O18       1.0  0.48140  0.71810  0.77780  1.0000
  O   O19       1.0  0.01860  0.21810  0.22220  1.0000
  O   O20       1.0  0.98140  0.21810  0.77780  1.0000
  O   O21       1.0  0.51090  0.96330  0.35440  1.0000
  O   O22       1.0  0.48910  0.96330  0.64560  1.0000
  O   O23       1.0  0.01090  0.46330  0.35440  1.0000
  O   O24       1.0  0.98910  0.46330  0.64560  1.0000
  O   O25       1.0  0.56690  0.03900  0.83200  1.0000
  O   O26       1.0  0.43310  0.03900  0.16800  1.0000
  O   O27       1.0  0.06690  0.53900  0.83200  1.0000
  O   O28       1.0  0.93310  0.53900  0.16800  1.0000
  O   O29       1.0  0.55020  0.98610  0.01630  1.0000
  O   O30       1.0  0.44980  0.98610  0.98370  1.0000
  O   O31       1.0  0.05020  0.48610  0.01630  1.0000
  O   O32       1.0  0.94980  0.48610  0.98370  1.0000
  O   O33       1.0  0.60830  0.45040  0.78360  1.0000
  O   O34       1.0  0.39170  0.45040  0.21640  1.0000
  O   O35       1.0  0.10830  0.95040  0.78360  1.0000
  O   O36       1.0  0.89170  0.95040  0.21640  1.0000
  O   O37       1.0  0.56320  0.54030  0.90600  1.0000
  O   O38       1.0  0.43680  0.54030  0.09400  1.0000
  O   O39       1.0  0.06320  0.04030  0.90600  1.0000
  O   O40       1.0  0.93680  0.04030  0.09400  1.0000
  C   C1        1.0  0.56610  0.23200  0.45200  1.0000
  C   C2        1.0  0.43390  0.23200  0.54800  1.0000
  C   C3        1.0  0.06610  0.73200  0.45200  1.0000
  C   C4        1.0  0.93390  0.73200  0.54800  1.0000
  C   C5        1.0  0.59430  0.08200  0.38690  1.0000
  C   C6        1.0  0.40570  0.08200  0.61310  1.0000
  C   C7        1.0  0.09430  0.58200  0.38690  1.0000
  C   C8        1.0  0.90570  0.58200  0.61310  1.0000
  C   C9        1.0  0.63670  0.12000  0.40630  1.0000
  C   C10       1.0  0.36330  0.12000  0.59370  1.0000
  C   C11       1.0  0.13670  0.62000  0.40630  1.0000
  C   C12       1.0  0.86330  0.62000  0.59370  1.0000
  C   C13       1.0  0.66620  0.98000  0.36850  1.0000
  C   C14       1.0  0.33380  0.98000  0.63150  1.0000
  C   C15       1.0  0.16620  0.48000  0.36850  1.0000
  C   C16       1.0  0.83380  0.48000  0.63150  1.0000
  C   C17       1.0  0.65200  0.79900  0.30910  1.0000
  C   C18       1.0  0.34800  0.79900  0.69090  1.0000
  C   C19       1.0  0.15200  0.29900  0.30910  1.0000
  C   C20       1.0  0.84800  0.29900  0.69090  1.0000
  C   C21       1.0  0.61000  0.76500  0.28150  1.0000
  C   C22       1.0  0.39000  0.76500  0.71850  1.0000
  C   C23       1.0  0.11000  0.26500  0.28150  1.0000
  C   C24       1.0  0.89000  0.26500  0.71850  1.0000
  C   C25       1.0  0.57920  0.90000  0.31990  1.0000
  C   C26       1.0  0.42080  0.90000  0.68010  1.0000
  C   C27       1.0  0.07920  0.40000  0.31990  1.0000
  C   C28       1.0  0.92080  0.40000  0.68010  1.0000
  C   C29       1.0  0.53200  0.85200  0.29580  1.0000
  C   C30       1.0  0.46800  0.85200  0.70420  1.0000
  C   C31       1.0  0.03200  0.35200  0.29580  1.0000
  C   C32       1.0  0.96800  0.35200  0.70420  1.0000
  C   C33       1.0  0.57440  0.97600  0.93710  1.0000
  C   C34       1.0  0.42560  0.97600  0.06290  1.0000
  C   C35       1.0  0.07440  0.47600  0.93710  1.0000
  C   C36       1.0  0.92560  0.47600  0.06290  1.0000
  C   C37       1.0  0.61890  0.89600  0.97650  1.0000
  C   C38       1.0  0.38110  0.89600  0.02350  1.0000
  C   C39       1.0  0.11890  0.39600  0.97650  1.0000
  C   C40       1.0  0.88110  0.39600  0.02350  1.0000
  C   C41       1.0  0.64820  0.02700  0.04160  1.0000
  C   C42       1.0  0.35180  0.02700  0.95840  1.0000
  C   C43       1.0  0.14820  0.52700  0.04160  1.0000
  C   C44       1.0  0.85180  0.52700  0.95840  1.0000
  C   C45       1.0  0.68990  0.96300  0.07330  1.0000
  C   C46       1.0  0.31010  0.96300  0.92670  1.0000
  C   C47       1.0  0.18990  0.46300  0.07330  1.0000
  C   C48       1.0  0.81010  0.46300  0.92670  1.0000
  C   C49       1.0  0.70160  0.76300  0.03050  1.0000
  C   C50       1.0  0.29840  0.76300  0.96950  1.0000
  C   C51       1.0  0.20160  0.26300  0.03050  1.0000
  C   C52       1.0  0.79840  0.26300  0.96950  1.0000
  C   C53       1.0  0.67260  0.63000  0.96510  1.0000
  C   C54       1.0  0.32740  0.63000  0.03490  1.0000
  C   C55       1.0  0.17260  0.13000  0.96510  1.0000
  C   C56       1.0  0.82740  0.13000  0.03490  1.0000
  C   C57       1.0  0.63020  0.69600  0.93700  1.0000
  C   C58       1.0  0.36980  0.69600  0.06300  1.0000
  C   C59       1.0  0.13020  0.19600  0.93700  1.0000
  C   C60       1.0  0.86980  0.19600  0.06300  1.0000
  C   C61       1.0  0.59850  0.55200  0.86930  1.0000
  C   C62       1.0  0.40150  0.55200  0.13070  1.0000
  C   C63       1.0  0.09850  0.05200  0.86930  1.0000
  C   C64       1.0  0.90150  0.05200  0.13070  1.0000
