data_image0
_chemical_formula_structural       Sr2F8O4H4O12N2C16
_chemical_formula_sum              "Sr2 F8 O16 H4 N2 C16"
_cell_length_a       7.3008
_cell_length_b       9.1264
_cell_length_c       13.1904
_cell_angle_alpha    101.118
_cell_angle_beta     93.83
_cell_angle_gamma    110.526

_space_group_name_H-M_alt    "P 1"
_space_group_IT_number       1

loop_
  _space_group_symop_operation_xyz
  'x, y, z'

loop_
  _atom_site_type_symbol
  _atom_site_label
  _atom_site_symmetry_multiplicity
  _atom_site_fract_x
  _atom_site_fract_y
  _atom_site_fract_z
  _atom_site_occupancy
  Sr  Sr1       1.0  0.72286  0.39605  0.04057  1.0000
  Sr  Sr2       1.0  0.27714  0.60395  0.95943  1.0000
  F   F1        1.0  0.13110  0.44850  0.32275  1.0000
  F   F2        1.0  0.86890  0.55150  0.67725  1.0000
  F   F3        1.0  0.00690  0.21960  0.43296  1.0000
  F   F4        1.0  0.99310  0.78040  0.56704  1.0000
  F   F5        1.0  0.96570  0.91470  0.34890  1.0000
  F   F6        1.0  0.03430  0.08530  0.65110  1.0000
  F   F7        1.0  0.19300  0.06790  0.04424  1.0000
  F   F8        1.0  0.80700  0.93210  0.95576  1.0000
  O   O1        1.0  0.39010  0.43190  0.08724  1.0000
  O   O2        1.0  0.60990  0.56810  0.91276  1.0000
  O   O3        1.0  0.43480  0.19550  0.89556  1.0000
  O   O4        1.0  0.56520  0.80450  0.10444  1.0000
  H   H1        1.0  0.33190  0.22290  0.89880  1.0000
  H   H2        1.0  0.66810  0.77710  0.10120  1.0000
  H   H3        1.0  0.40390  0.09840  0.90550  1.0000
  H   H4        1.0  0.59610  0.90160  0.09450  1.0000
  O   O5        1.0  0.08760  0.43620  0.09100  1.0000
  O   O6        1.0  0.91240  0.56380  0.90900  1.0000
  O   O7        1.0  0.87100  0.70310  0.13589  1.0000
  O   O8        1.0  0.12900  0.29690  0.86411  1.0000
  O   O9        1.0  0.18810  0.78480  0.10680  1.0000
  O   O10       1.0  0.81190  0.21520  0.89320  1.0000
  O   O11       1.0  0.65120  0.13690  0.12300  1.0000
  O   O12       1.0  0.34880  0.86310  0.87700  1.0000
  O   O13       1.0  0.67740  0.35120  0.23790  1.0000
  O   O14       1.0  0.32260  0.64880  0.76210  1.0000
  O   O15       1.0  0.59520  0.12070  0.28150  1.0000
  O   O16       1.0  0.40480  0.87930  0.71850  1.0000
  N   N1        1.0  0.64040  0.20200  0.21540  1.0000
  N   N2        1.0  0.35960  0.79800  0.78460  1.0000
  C   C1        1.0  0.22110  0.38800  0.11470  1.0000
  C   C2        1.0  0.77890  0.61200  0.88530  1.0000
  C   C3        1.0  0.16680  0.26240  0.18000  1.0000
  C   C4        1.0  0.83320  0.73760  0.82000  1.0000
  C   C5        1.0  0.11540  0.29810  0.27850  1.0000
  C   C6        1.0  0.88460  0.70190  0.72150  1.0000
  C   C7        1.0  0.05030  0.18160  0.33510  1.0000
  C   C8        1.0  0.94970  0.81840  0.66490  1.0000
  C   C9        1.0  0.02850  0.02500  0.29090  1.0000
  C   C10       1.0  0.97150  0.97500  0.70910  1.0000
  C   C11       1.0  0.07350  0.98010  0.19220  1.0000
  C   C12       1.0  0.92650  0.01990  0.80780  1.0000
  C   C13       1.0  0.04290  0.80680  0.14110  1.0000
  C   C14       1.0  0.95710  0.19320  0.85890  1.0000
  C   C15       1.0  0.14570  0.10440  0.14010  1.0000
  C   C16       1.0  0.85430  0.89560  0.85990  1.0000
