data_image0
_chemical_formula_structural       Mn2Cl2O10H4C4
_chemical_formula_sum              "Mn2 Cl2 O10 H4 C4"
_cell_length_a       6.74
_cell_length_b       7.514
_cell_length_c       9.81
_cell_angle_alpha    84.46
_cell_angle_beta     78.15
_cell_angle_gamma    88.57

_space_group_name_H-M_alt    "P 1"
_space_group_IT_number       1

loop_
  _space_group_symop_operation_xyz
  'x, y, z'

loop_
  _atom_site_type_symbol
  _atom_site_label
  _atom_site_symmetry_multiplicity
  _atom_site_fract_x
  _atom_site_fract_y
  _atom_site_fract_z
  _atom_site_occupancy
  Mn  Mn1       1.0  0.72543  0.49656  0.22092  1.0000
  Mn  Mn2       1.0  0.27457  0.50344  0.77908  1.0000
  Cl  Cl1       1.0  0.03175  0.65970  0.23354  1.0000
  Cl  Cl2       1.0  0.96825  0.34030  0.76646  1.0000
  O   O1        1.0  0.47159  0.36133  0.15474  1.0000
  O   O2        1.0  0.52841  0.63867  0.84526  1.0000
  O   O3        1.0  0.50953  0.66001  0.35754  1.0000
  O   O4        1.0  0.49047  0.33999  0.64246  1.0000
  O   O5        1.0  0.30628  0.36104  0.97953  1.0000
  O   O6        1.0  0.69372  0.63896  0.02047  1.0000
  O   O7        1.0  0.33069  0.65840  0.57545  1.0000
  O   O8        1.0  0.66931  0.34160  0.42455  1.0000
  O   O9        1.0  0.91070  0.26878  0.14629  1.0000
  O   O10       1.0  0.08930  0.73122  0.85371  1.0000
  H   H1        1.0  0.85400  0.18900  0.11200  1.0000
  H   H2        1.0  0.14600  0.81100  0.88800  1.0000
  H   H3        1.0  0.02700  0.29000  0.10000  1.0000
  H   H4        1.0  0.97300  0.71000  0.90000  1.0000
  C   C1        1.0  0.45410  0.59228  0.48007  1.0000
  C   C2        1.0  0.54590  0.40772  0.51993  1.0000
  C   C3        1.0  0.43590  0.41972  0.03918  1.0000
  C   C4        1.0  0.56410  0.58028  0.96082  1.0000
