data_image0
_chemical_formula_structural       Mn12C48B8C96O24C48H72C24H72C24H72C24H72O24Cl3
_chemical_formula_sum              "Mn12 C264 B8 O48 H288 Cl3"
_cell_length_a       23.461
_cell_length_b       23.461
_cell_length_c       23.461
_cell_angle_alpha    90
_cell_angle_beta     90
_cell_angle_gamma    90

_space_group_name_H-M_alt    "P 1"
_space_group_IT_number       1

loop_
  _space_group_symop_operation_xyz
  'x, y, z'

loop_
  _atom_site_type_symbol
  _atom_site_label
  _atom_site_symmetry_multiplicity
  _atom_site_fract_x
  _atom_site_fract_y
  _atom_site_fract_z
  _atom_site_occupancy
  Mn  Mn1       1.0  0.59925  0.50000  0.00000  1.0000
  Mn  Mn2       1.0  0.40075  0.50000  0.00000  1.0000
  Mn  Mn3       1.0  0.00000  0.59925  0.50000  1.0000
  Mn  Mn4       1.0  0.00000  0.40075  0.50000  1.0000
  Mn  Mn5       1.0  0.50000  0.00000  0.59925  1.0000
  Mn  Mn6       1.0  0.50000  0.00000  0.40075  1.0000
  Mn  Mn7       1.0  0.50000  0.59925  0.00000  1.0000
  Mn  Mn8       1.0  0.50000  0.40075  0.00000  1.0000
  Mn  Mn9       1.0  0.59925  0.00000  0.50000  1.0000
  Mn  Mn10      1.0  0.40075  0.00000  0.50000  1.0000
  Mn  Mn11      1.0  0.00000  0.50000  0.40075  1.0000
  Mn  Mn12      1.0  0.00000  0.50000  0.59925  1.0000
  C   C1        1.0  0.68230  0.67750  0.23490  1.0000
  C   C2        1.0  0.31770  0.32250  0.23490  1.0000
  C   C3        1.0  0.31770  0.67750  0.76510  1.0000
  C   C4        1.0  0.68230  0.32250  0.76510  1.0000
  C   C5        1.0  0.23490  0.68230  0.67750  1.0000
  C   C6        1.0  0.23490  0.31770  0.32250  1.0000
  C   C7        1.0  0.76510  0.31770  0.67750  1.0000
  C   C8        1.0  0.76510  0.68230  0.32250  1.0000
  C   C9        1.0  0.67750  0.23490  0.68230  1.0000
  C   C10       1.0  0.32250  0.23490  0.31770  1.0000
  C   C11       1.0  0.67750  0.76510  0.31770  1.0000
  C   C12       1.0  0.32250  0.76510  0.68230  1.0000
  C   C13       1.0  0.67750  0.68230  0.76510  1.0000
  C   C14       1.0  0.32250  0.31770  0.76510  1.0000
  C   C15       1.0  0.67750  0.31770  0.23490  1.0000
  C   C16       1.0  0.32250  0.68230  0.23490  1.0000
  C   C17       1.0  0.68230  0.23490  0.32250  1.0000
  C   C18       1.0  0.31770  0.23490  0.67750  1.0000
  C   C19       1.0  0.31770  0.76510  0.32250  1.0000
  C   C20       1.0  0.68230  0.76510  0.67750  1.0000
  C   C21       1.0  0.23490  0.67750  0.31770  1.0000
  C   C22       1.0  0.23490  0.32250  0.68230  1.0000
  C   C23       1.0  0.76510  0.67750  0.68230  1.0000
  C   C24       1.0  0.76510  0.32250  0.31770  1.0000
  C   C25       1.0  0.63750  0.62080  0.13590  1.0000
  C   C26       1.0  0.36250  0.37920  0.13590  1.0000
  C   C27       1.0  0.36250  0.62080  0.86410  1.0000
  C   C28       1.0  0.63750  0.37920  0.86410  1.0000
  C   C29       1.0  0.13590  0.63750  0.62080  1.0000
  C   C30       1.0  0.13590  0.36250  0.37920  1.0000
  C   C31       1.0  0.86410  0.36250  0.62080  1.0000
  C   C32       1.0  0.86410  0.63750  0.37920  1.0000
  C   C33       1.0  0.62080  0.13590  0.63750  1.0000
  C   C34       1.0  0.37920  0.13590  0.36250  1.0000
  C   C35       1.0  0.62080  0.86410  0.36250  1.0000
  C   C36       1.0  0.37920  0.86410  0.63750  1.0000
  C   C37       1.0  0.62080  0.63750  0.86410  1.0000
  C   C38       1.0  0.37920  0.36250  0.86410  1.0000
  C   C39       1.0  0.62080  0.36250  0.13590  1.0000
  C   C40       1.0  0.37920  0.63750  0.13590  1.0000
  C   C41       1.0  0.63750  0.13590  0.37920  1.0000
  C   C42       1.0  0.36250  0.13590  0.62080  1.0000
  C   C43       1.0  0.36250  0.86410  0.37920  1.0000
  C   C44       1.0  0.63750  0.86410  0.62080  1.0000
  C   C45       1.0  0.13590  0.62080  0.36250  1.0000
  C   C46       1.0  0.13590  0.37920  0.63750  1.0000
  C   C47       1.0  0.86410  0.62080  0.63750  1.0000
  C   C48       1.0  0.86410  0.37920  0.36250  1.0000
  B   B1        1.0  0.70940  0.70940  0.29060  1.0000
  B   B2        1.0  0.29060  0.29060  0.29060  1.0000
  B   B3        1.0  0.29060  0.70940  0.70940  1.0000
  B   B4        1.0  0.70940  0.29060  0.70940  1.0000
  B   B5        1.0  0.70940  0.70940  0.70940  1.0000
  B   B6        1.0  0.29060  0.29060  0.70940  1.0000
  B   B7        1.0  0.70940  0.29060  0.29060  1.0000
  B   B8        1.0  0.29060  0.70940  0.29060  1.0000
  C   C49       1.0  0.61470  0.58770  0.08250  1.0000
  C   C50       1.0  0.38530  0.41230  0.08250  1.0000
  C   C51       1.0  0.38530  0.58770  0.91750  1.0000
  C   C52       1.0  0.61470  0.41230  0.91750  1.0000
  C   C53       1.0  0.08250  0.61470  0.58770  1.0000
  C   C54       1.0  0.08250  0.38530  0.41230  1.0000
  C   C55       1.0  0.91750  0.38530  0.58770  1.0000
  C   C56       1.0  0.91750  0.61470  0.41230  1.0000
  C   C57       1.0  0.58770  0.08250  0.61470  1.0000
  C   C58       1.0  0.41230  0.08250  0.38530  1.0000
  C   C59       1.0  0.58770  0.91750  0.38530  1.0000
  C   C60       1.0  0.41230  0.91750  0.61470  1.0000
  C   C61       1.0  0.58770  0.61470  0.91750  1.0000
  C   C62       1.0  0.41230  0.38530  0.91750  1.0000
  C   C63       1.0  0.58770  0.38530  0.08250  1.0000
  C   C64       1.0  0.41230  0.61470  0.08250  1.0000
  C   C65       1.0  0.61470  0.08250  0.41230  1.0000
  C   C66       1.0  0.38530  0.08250  0.58770  1.0000
  C   C67       1.0  0.38530  0.91750  0.41230  1.0000
  C   C68       1.0  0.61470  0.91750  0.58770  1.0000
  C   C69       1.0  0.08250  0.58770  0.38530  1.0000
  C   C70       1.0  0.08250  0.41230  0.61470  1.0000
  C   C71       1.0  0.91750  0.58770  0.61470  1.0000
  C   C72       1.0  0.91750  0.41230  0.38530  1.0000
  C   C73       1.0  0.66980  0.61660  0.23680  1.0000
  C   C74       1.0  0.33020  0.38340  0.23680  1.0000
  C   C75       1.0  0.33020  0.61660  0.76320  1.0000
  C   C76       1.0  0.66980  0.38340  0.76320  1.0000
  C   C77       1.0  0.23680  0.66980  0.61660  1.0000
  C   C78       1.0  0.23680  0.33020  0.38340  1.0000
  C   C79       1.0  0.76320  0.33020  0.61660  1.0000
  C   C80       1.0  0.76320  0.66980  0.38340  1.0000
  C   C81       1.0  0.61660  0.23680  0.66980  1.0000
  C   C82       1.0  0.38340  0.23680  0.33020  1.0000
  C   C83       1.0  0.61660  0.76320  0.33020  1.0000
  C   C84       1.0  0.38340  0.76320  0.66980  1.0000
  C   C85       1.0  0.61660  0.66980  0.76320  1.0000
  C   C86       1.0  0.38340  0.33020  0.76320  1.0000
  C   C87       1.0  0.61660  0.33020  0.23680  1.0000
  C   C88       1.0  0.38340  0.66980  0.23680  1.0000
  C   C89       1.0  0.66980  0.23680  0.38340  1.0000
  C   C90       1.0  0.33020  0.23680  0.61660  1.0000
  C   C91       1.0  0.33020  0.76320  0.38340  1.0000
  C   C92       1.0  0.66980  0.76320  0.61660  1.0000
  C   C93       1.0  0.23680  0.61660  0.33020  1.0000
  C   C94       1.0  0.23680  0.38340  0.66980  1.0000
  C   C95       1.0  0.76320  0.61660  0.66980  1.0000
  C   C96       1.0  0.76320  0.38340  0.33020  1.0000
  C   C97       1.0  0.64970  0.67960  0.13260  1.0000
  C   C98       1.0  0.35030  0.32040  0.13260  1.0000
  C   C99       1.0  0.35030  0.67960  0.86740  1.0000
  C   C100      1.0  0.64970  0.32040  0.86740  1.0000
  C   C101      1.0  0.13260  0.64970  0.67960  1.0000
  C   C102      1.0  0.13260  0.35030  0.32040  1.0000
  C   C103      1.0  0.86740  0.35030  0.67960  1.0000
  C   C104      1.0  0.86740  0.64970  0.32040  1.0000
  C   C105      1.0  0.67960  0.13260  0.64970  1.0000
  C   C106      1.0  0.32040  0.13260  0.35030  1.0000
  C   C107      1.0  0.67960  0.86740  0.35030  1.0000
  C   C108      1.0  0.32040  0.86740  0.64970  1.0000
  C   C109      1.0  0.67960  0.64970  0.86740  1.0000
  C   C110      1.0  0.32040  0.35030  0.86740  1.0000
  C   C111      1.0  0.67960  0.35030  0.13260  1.0000
  C   C112      1.0  0.32040  0.64970  0.13260  1.0000
  C   C113      1.0  0.64970  0.13260  0.32040  1.0000
  C   C114      1.0  0.35030  0.13260  0.67960  1.0000
  C   C115      1.0  0.35030  0.86740  0.32040  1.0000
  C   C116      1.0  0.64970  0.86740  0.67960  1.0000
  C   C117      1.0  0.13260  0.67960  0.35030  1.0000
  C   C118      1.0  0.13260  0.32040  0.64970  1.0000
  C   C119      1.0  0.86740  0.67960  0.64970  1.0000
  C   C120      1.0  0.86740  0.32040  0.35030  1.0000
  C   C121      1.0  0.67240  0.70930  0.18200  1.0000
  C   C122      1.0  0.32760  0.29070  0.18200  1.0000
  C   C123      1.0  0.32760  0.70930  0.81800  1.0000
  C   C124      1.0  0.67240  0.29070  0.81800  1.0000
  C   C125      1.0  0.18200  0.67240  0.70930  1.0000
  C   C126      1.0  0.18200  0.32760  0.29070  1.0000
  C   C127      1.0  0.81800  0.32760  0.70930  1.0000
  C   C128      1.0  0.81800  0.67240  0.29070  1.0000
  C   C129      1.0  0.70930  0.18200  0.67240  1.0000
  C   C130      1.0  0.29070  0.18200  0.32760  1.0000
  C   C131      1.0  0.70930  0.81800  0.32760  1.0000
  C   C132      1.0  0.29070  0.81800  0.67240  1.0000
  C   C133      1.0  0.70930  0.67240  0.81800  1.0000
  C   C134      1.0  0.29070  0.32760  0.81800  1.0000
  C   C135      1.0  0.70930  0.32760  0.18200  1.0000
  C   C136      1.0  0.29070  0.67240  0.18200  1.0000
  C   C137      1.0  0.67240  0.18200  0.29070  1.0000
  C   C138      1.0  0.32760  0.18200  0.70930  1.0000
  C   C139      1.0  0.32760  0.81800  0.29070  1.0000
  C   C140      1.0  0.67240  0.81800  0.70930  1.0000
  C   C141      1.0  0.18200  0.70930  0.32760  1.0000
  C   C142      1.0  0.18200  0.29070  0.67240  1.0000
  C   C143      1.0  0.81800  0.70930  0.67240  1.0000
  C   C144      1.0  0.81800  0.29070  0.32760  1.0000
  O   O1        1.0  0.56100  0.59150  0.07070  1.0000
  O   O2        1.0  0.43900  0.40850  0.07070  1.0000
  O   O3        1.0  0.43900  0.59150  0.92930  1.0000
  O   O4        1.0  0.56100  0.40850  0.92930  1.0000
  O   O5        1.0  0.07070  0.56100  0.59150  1.0000
  O   O6        1.0  0.07070  0.43900  0.40850  1.0000
  O   O7        1.0  0.92930  0.43900  0.59150  1.0000
  O   O8        1.0  0.92930  0.56100  0.40850  1.0000
  O   O9        1.0  0.59150  0.07070  0.56100  1.0000
  O   O10       1.0  0.40850  0.07070  0.43900  1.0000
  O   O11       1.0  0.59150  0.92930  0.43900  1.0000
  O   O12       1.0  0.40850  0.92930  0.56100  1.0000
  O   O13       1.0  0.59150  0.56100  0.92930  1.0000
  O   O14       1.0  0.40850  0.43900  0.92930  1.0000
  O   O15       1.0  0.59150  0.43900  0.07070  1.0000
  O   O16       1.0  0.40850  0.56100  0.07070  1.0000
  O   O17       1.0  0.56100  0.07070  0.40850  1.0000
  O   O18       1.0  0.43900  0.07070  0.59150  1.0000
  O   O19       1.0  0.43900  0.92930  0.40850  1.0000
  O   O20       1.0  0.56100  0.92930  0.59150  1.0000
  O   O21       1.0  0.07070  0.59150  0.43900  1.0000
  O   O22       1.0  0.07070  0.40850  0.56100  1.0000
  O   O23       1.0  0.92930  0.59150  0.56100  1.0000
  O   O24       1.0  0.92930  0.40850  0.43900  1.0000
  C   C145      1.0  0.64640  0.58770  0.18670  1.0000
  C   C146      1.0  0.35360  0.41230  0.18670  1.0000
  C   C147      1.0  0.35360  0.58770  0.81330  1.0000
  C   C148      1.0  0.64640  0.41230  0.81330  1.0000
  C   C149      1.0  0.18670  0.64640  0.58770  1.0000
  C   C150      1.0  0.18670  0.35360  0.41230  1.0000
  C   C151      1.0  0.81330  0.35360  0.58770  1.0000
  C   C152      1.0  0.81330  0.64640  0.41230  1.0000
  C   C153      1.0  0.58770  0.18670  0.64640  1.0000
  C   C154      1.0  0.41230  0.18670  0.35360  1.0000
  C   C155      1.0  0.58770  0.81330  0.35360  1.0000
  C   C156      1.0  0.41230  0.81330  0.64640  1.0000
  C   C157      1.0  0.58770  0.64640  0.81330  1.0000
  C   C158      1.0  0.41230  0.35360  0.81330  1.0000
  C   C159      1.0  0.58770  0.35360  0.18670  1.0000
  C   C160      1.0  0.41230  0.64640  0.18670  1.0000
  C   C161      1.0  0.64640  0.18670  0.41230  1.0000
  C   C162      1.0  0.35360  0.18670  0.58770  1.0000
  C   C163      1.0  0.35360  0.81330  0.41230  1.0000
  C   C164      1.0  0.64640  0.81330  0.58770  1.0000
  C   C165      1.0  0.18670  0.58770  0.35360  1.0000
  C   C166      1.0  0.18670  0.41230  0.64640  1.0000
  C   C167      1.0  0.81330  0.58770  0.64640  1.0000
  C   C168      1.0  0.81330  0.41230  0.35360  1.0000
  C   C169      1.0  0.67510  0.57990  0.29310  1.0000
  C   C170      1.0  0.32490  0.42010  0.29310  1.0000
  C   C171      1.0  0.32490  0.57990  0.70690  1.0000
  C   C172      1.0  0.67510  0.42010  0.70690  1.0000
  C   C173      1.0  0.29310  0.67510  0.57990  1.0000
  C   C174      1.0  0.29310  0.32490  0.42010  1.0000
  C   C175      1.0  0.70690  0.32490  0.57990  1.0000
  C   C176      1.0  0.70690  0.67510  0.42010  1.0000
  C   C177      1.0  0.57990  0.29310  0.67510  1.0000
  C   C178      1.0  0.42010  0.29310  0.32490  1.0000
  C   C179      1.0  0.57990  0.70690  0.32490  1.0000
  C   C180      1.0  0.42010  0.70690  0.67510  1.0000
  C   C181      1.0  0.57990  0.67510  0.70690  1.0000
  C   C182      1.0  0.42010  0.32490  0.70690  1.0000
  C   C183      1.0  0.57990  0.32490  0.29310  1.0000
  C   C184      1.0  0.42010  0.67510  0.29310  1.0000
  C   C185      1.0  0.67510  0.29310  0.42010  1.0000
  C   C186      1.0  0.32490  0.29310  0.57990  1.0000
  C   C187      1.0  0.32490  0.70690  0.42010  1.0000
  C   C188      1.0  0.67510  0.70690  0.57990  1.0000
  C   C189      1.0  0.29310  0.57990  0.32490  1.0000
  C   C190      1.0  0.29310  0.42010  0.67510  1.0000
  C   C191      1.0  0.70690  0.57990  0.67510  1.0000
  C   C192      1.0  0.70690  0.42010  0.32490  1.0000
  H   H1        1.0  0.71410  0.56880  0.29850  1.0000
  H   H2        1.0  0.28590  0.43120  0.29850  1.0000
  H   H3        1.0  0.28590  0.56880  0.70150  1.0000
  H   H4        1.0  0.71410  0.43120  0.70150  1.0000
  H   H5        1.0  0.29850  0.71410  0.56880  1.0000
  H   H6        1.0  0.29850  0.28590  0.43120  1.0000
  H   H7        1.0  0.70150  0.28590  0.56880  1.0000
  H   H8        1.0  0.70150  0.71410  0.43120  1.0000
  H   H9        1.0  0.56880  0.29850  0.71410  1.0000
  H   H10       1.0  0.43120  0.29850  0.28590  1.0000
  H   H11       1.0  0.56880  0.70150  0.28590  1.0000
  H   H12       1.0  0.43120  0.70150  0.71410  1.0000
  H   H13       1.0  0.56880  0.71410  0.70150  1.0000
  H   H14       1.0  0.43120  0.28590  0.70150  1.0000
  H   H15       1.0  0.56880  0.28590  0.29850  1.0000
  H   H16       1.0  0.43120  0.71410  0.29850  1.0000
  H   H17       1.0  0.71410  0.29850  0.43120  1.0000
  H   H18       1.0  0.28590  0.29850  0.56880  1.0000
  H   H19       1.0  0.28590  0.70150  0.43120  1.0000
  H   H20       1.0  0.71410  0.70150  0.56880  1.0000
  H   H21       1.0  0.29850  0.56880  0.28590  1.0000
  H   H22       1.0  0.29850  0.43120  0.71410  1.0000
  H   H23       1.0  0.70150  0.56880  0.71410  1.0000
  H   H24       1.0  0.70150  0.43120  0.28590  1.0000
  H   H25       1.0  0.65160  0.54660  0.28990  1.0000
  H   H26       1.0  0.34840  0.45340  0.28990  1.0000
  H   H27       1.0  0.34840  0.54660  0.71010  1.0000
  H   H28       1.0  0.65160  0.45340  0.71010  1.0000
  H   H29       1.0  0.28990  0.65160  0.54660  1.0000
  H   H30       1.0  0.28990  0.34840  0.45340  1.0000
  H   H31       1.0  0.71010  0.34840  0.54660  1.0000
  H   H32       1.0  0.71010  0.65160  0.45340  1.0000
  H   H33       1.0  0.54660  0.28990  0.65160  1.0000
  H   H34       1.0  0.45340  0.28990  0.34840  1.0000
  H   H35       1.0  0.54660  0.71010  0.34840  1.0000
  H   H36       1.0  0.45340  0.71010  0.65160  1.0000
  H   H37       1.0  0.54660  0.65160  0.71010  1.0000
  H   H38       1.0  0.45340  0.34840  0.71010  1.0000
  H   H39       1.0  0.54660  0.34840  0.28990  1.0000
  H   H40       1.0  0.45340  0.65160  0.28990  1.0000
  H   H41       1.0  0.65160  0.28990  0.45340  1.0000
  H   H42       1.0  0.34840  0.28990  0.54660  1.0000
  H   H43       1.0  0.34840  0.71010  0.45340  1.0000
  H   H44       1.0  0.65160  0.71010  0.54660  1.0000
  H   H45       1.0  0.28990  0.54660  0.34840  1.0000
  H   H46       1.0  0.28990  0.45340  0.65160  1.0000
  H   H47       1.0  0.71010  0.54660  0.65160  1.0000
  H   H48       1.0  0.71010  0.45340  0.34840  1.0000
  H   H49       1.0  0.66280  0.60230  0.32510  1.0000
  H   H50       1.0  0.33720  0.39770  0.32510  1.0000
  H   H51       1.0  0.33720  0.60230  0.67490  1.0000
  H   H52       1.0  0.66280  0.39770  0.67490  1.0000
  H   H53       1.0  0.32510  0.66280  0.60230  1.0000
  H   H54       1.0  0.32510  0.33720  0.39770  1.0000
  H   H55       1.0  0.67490  0.33720  0.60230  1.0000
  H   H56       1.0  0.67490  0.66280  0.39770  1.0000
  H   H57       1.0  0.60230  0.32510  0.66280  1.0000
  H   H58       1.0  0.39770  0.32510  0.33720  1.0000
  H   H59       1.0  0.60230  0.67490  0.33720  1.0000
  H   H60       1.0  0.39770  0.67490  0.66280  1.0000
  H   H61       1.0  0.60230  0.66280  0.67490  1.0000
  H   H62       1.0  0.39770  0.33720  0.67490  1.0000
  H   H63       1.0  0.60230  0.33720  0.32510  1.0000
  H   H64       1.0  0.39770  0.66280  0.32510  1.0000
  H   H65       1.0  0.66280  0.32510  0.39770  1.0000
  H   H66       1.0  0.33720  0.32510  0.60230  1.0000
  H   H67       1.0  0.33720  0.67490  0.39770  1.0000
  H   H68       1.0  0.66280  0.67490  0.60230  1.0000
  H   H69       1.0  0.32510  0.60230  0.33720  1.0000
  H   H70       1.0  0.32510  0.39770  0.66280  1.0000
  H   H71       1.0  0.67490  0.60230  0.66280  1.0000
  H   H72       1.0  0.67490  0.39770  0.33720  1.0000
  C   C193      1.0  0.68710  0.77310  0.17730  1.0000
  C   C194      1.0  0.31290  0.22690  0.17730  1.0000
  C   C195      1.0  0.31290  0.77310  0.82270  1.0000
  C   C196      1.0  0.68710  0.22690  0.82270  1.0000
  C   C197      1.0  0.17730  0.68710  0.77310  1.0000
  C   C198      1.0  0.17730  0.31290  0.22690  1.0000
  C   C199      1.0  0.82270  0.31290  0.77310  1.0000
  C   C200      1.0  0.82270  0.68710  0.22690  1.0000
  C   C201      1.0  0.77310  0.17730  0.68710  1.0000
  C   C202      1.0  0.22690  0.17730  0.31290  1.0000
  C   C203      1.0  0.77310  0.82270  0.31290  1.0000
  C   C204      1.0  0.22690  0.82270  0.68710  1.0000
  C   C205      1.0  0.77310  0.68710  0.82270  1.0000
  C   C206      1.0  0.22690  0.31290  0.82270  1.0000
  C   C207      1.0  0.77310  0.31290  0.17730  1.0000
  C   C208      1.0  0.22690  0.68710  0.17730  1.0000
  C   C209      1.0  0.68710  0.17730  0.22690  1.0000
  C   C210      1.0  0.31290  0.17730  0.77310  1.0000
  C   C211      1.0  0.31290  0.82270  0.22690  1.0000
  C   C212      1.0  0.68710  0.82270  0.77310  1.0000
  C   C213      1.0  0.17730  0.77310  0.31290  1.0000
  C   C214      1.0  0.17730  0.22690  0.68710  1.0000
  C   C215      1.0  0.82270  0.77310  0.68710  1.0000
  C   C216      1.0  0.82270  0.22690  0.31290  1.0000
  H   H73       1.0  0.65340  0.79420  0.16760  1.0000
  H   H74       1.0  0.34660  0.20580  0.16760  1.0000
  H   H75       1.0  0.34660  0.79420  0.83240  1.0000
  H   H76       1.0  0.65340  0.20580  0.83240  1.0000
  H   H77       1.0  0.16760  0.65340  0.79420  1.0000
  H   H78       1.0  0.16760  0.34660  0.20580  1.0000
  H   H79       1.0  0.83240  0.34660  0.79420  1.0000
  H   H80       1.0  0.83240  0.65340  0.20580  1.0000
  H   H81       1.0  0.79420  0.16760  0.65340  1.0000
  H   H82       1.0  0.20580  0.16760  0.34660  1.0000
  H   H83       1.0  0.79420  0.83240  0.34660  1.0000
  H   H84       1.0  0.20580  0.83240  0.65340  1.0000
  H   H85       1.0  0.79420  0.65340  0.83240  1.0000
  H   H86       1.0  0.20580  0.34660  0.83240  1.0000
  H   H87       1.0  0.79420  0.34660  0.16760  1.0000
  H   H88       1.0  0.20580  0.65340  0.16760  1.0000
  H   H89       1.0  0.65340  0.16760  0.20580  1.0000
  H   H90       1.0  0.34660  0.16760  0.79420  1.0000
  H   H91       1.0  0.34660  0.83240  0.20580  1.0000
  H   H92       1.0  0.65340  0.83240  0.79420  1.0000
  H   H93       1.0  0.16760  0.79420  0.34660  1.0000
  H   H94       1.0  0.16760  0.20580  0.65340  1.0000
  H   H95       1.0  0.83240  0.79420  0.65340  1.0000
  H   H96       1.0  0.83240  0.20580  0.34660  1.0000
  H   H97       1.0  0.71540  0.77840  0.14820  1.0000
  H   H98       1.0  0.28460  0.22160  0.14820  1.0000
  H   H99       1.0  0.28460  0.77840  0.85180  1.0000
  H   H100      1.0  0.71540  0.22160  0.85180  1.0000
  H   H101      1.0  0.14820  0.71540  0.77840  1.0000
  H   H102      1.0  0.14820  0.28460  0.22160  1.0000
  H   H103      1.0  0.85180  0.28460  0.77840  1.0000
  H   H104      1.0  0.85180  0.71540  0.22160  1.0000
  H   H105      1.0  0.77840  0.14820  0.71540  1.0000
  H   H106      1.0  0.22160  0.14820  0.28460  1.0000
  H   H107      1.0  0.77840  0.85180  0.28460  1.0000
  H   H108      1.0  0.22160  0.85180  0.71540  1.0000
  H   H109      1.0  0.77840  0.71540  0.85180  1.0000
  H   H110      1.0  0.22160  0.28460  0.85180  1.0000
  H   H111      1.0  0.77840  0.28460  0.14820  1.0000
  H   H112      1.0  0.22160  0.71540  0.14820  1.0000
  H   H113      1.0  0.71540  0.14820  0.22160  1.0000
  H   H114      1.0  0.28460  0.14820  0.77840  1.0000
  H   H115      1.0  0.28460  0.85180  0.22160  1.0000
  H   H116      1.0  0.71540  0.85180  0.77840  1.0000
  H   H117      1.0  0.14820  0.77840  0.28460  1.0000
  H   H118      1.0  0.14820  0.22160  0.71540  1.0000
  H   H119      1.0  0.85180  0.77840  0.71540  1.0000
  H   H120      1.0  0.85180  0.22160  0.28460  1.0000
  H   H121      1.0  0.70170  0.78640  0.21310  1.0000
  H   H122      1.0  0.29830  0.21360  0.21310  1.0000
  H   H123      1.0  0.29830  0.78640  0.78690  1.0000
  H   H124      1.0  0.70170  0.21360  0.78690  1.0000
  H   H125      1.0  0.21310  0.70170  0.78640  1.0000
  H   H126      1.0  0.21310  0.29830  0.21360  1.0000
  H   H127      1.0  0.78690  0.29830  0.78640  1.0000
  H   H128      1.0  0.78690  0.70170  0.21360  1.0000
  H   H129      1.0  0.78640  0.21310  0.70170  1.0000
  H   H130      1.0  0.21360  0.21310  0.29830  1.0000
  H   H131      1.0  0.78640  0.78690  0.29830  1.0000
  H   H132      1.0  0.21360  0.78690  0.70170  1.0000
  H   H133      1.0  0.78640  0.70170  0.78690  1.0000
  H   H134      1.0  0.21360  0.29830  0.78690  1.0000
  H   H135      1.0  0.78640  0.29830  0.21310  1.0000
  H   H136      1.0  0.21360  0.70170  0.21310  1.0000
  H   H137      1.0  0.70170  0.21310  0.21360  1.0000
  H   H138      1.0  0.29830  0.21310  0.78640  1.0000
  H   H139      1.0  0.29830  0.78690  0.21360  1.0000
  H   H140      1.0  0.70170  0.78690  0.78640  1.0000
  H   H141      1.0  0.21310  0.78640  0.29830  1.0000
  H   H142      1.0  0.21310  0.21360  0.70170  1.0000
  H   H143      1.0  0.78690  0.78640  0.70170  1.0000
  H   H144      1.0  0.78690  0.21360  0.29830  1.0000
  C   C217      1.0  0.63820  0.71300  0.07530  1.0000
  C   C218      1.0  0.36180  0.28700  0.07530  1.0000
  C   C219      1.0  0.36180  0.71300  0.92470  1.0000
  C   C220      1.0  0.63820  0.28700  0.92470  1.0000
  C   C221      1.0  0.07530  0.63820  0.71300  1.0000
  C   C222      1.0  0.07530  0.36180  0.28700  1.0000
  C   C223      1.0  0.92470  0.36180  0.71300  1.0000
  C   C224      1.0  0.92470  0.63820  0.28700  1.0000
  C   C225      1.0  0.71300  0.07530  0.63820  1.0000
  C   C226      1.0  0.28700  0.07530  0.36180  1.0000
  C   C227      1.0  0.71300  0.92470  0.36180  1.0000
  C   C228      1.0  0.28700  0.92470  0.63820  1.0000
  C   C229      1.0  0.71300  0.63820  0.92470  1.0000
  C   C230      1.0  0.28700  0.36180  0.92470  1.0000
  C   C231      1.0  0.71300  0.36180  0.07530  1.0000
  C   C232      1.0  0.28700  0.63820  0.07530  1.0000
  C   C233      1.0  0.63820  0.07530  0.28700  1.0000
  C   C234      1.0  0.36180  0.07530  0.71300  1.0000
  C   C235      1.0  0.36180  0.92470  0.28700  1.0000
  C   C236      1.0  0.63820  0.92470  0.71300  1.0000
  C   C237      1.0  0.07530  0.71300  0.36180  1.0000
  C   C238      1.0  0.07530  0.28700  0.63820  1.0000
  C   C239      1.0  0.92470  0.71300  0.63820  1.0000
  C   C240      1.0  0.92470  0.28700  0.36180  1.0000
  H   H145      1.0  0.67320  0.71690  0.05450  1.0000
  H   H146      1.0  0.32680  0.28310  0.05450  1.0000
  H   H147      1.0  0.32680  0.71690  0.94550  1.0000
  H   H148      1.0  0.67320  0.28310  0.94550  1.0000
  H   H149      1.0  0.05450  0.67320  0.71690  1.0000
  H   H150      1.0  0.05450  0.32680  0.28310  1.0000
  H   H151      1.0  0.94550  0.32680  0.71690  1.0000
  H   H152      1.0  0.94550  0.67320  0.28310  1.0000
  H   H153      1.0  0.71690  0.05450  0.67320  1.0000
  H   H154      1.0  0.28310  0.05450  0.32680  1.0000
  H   H155      1.0  0.71690  0.94550  0.32680  1.0000
  H   H156      1.0  0.28310  0.94550  0.67320  1.0000
  H   H157      1.0  0.71690  0.67320  0.94550  1.0000
  H   H158      1.0  0.28310  0.32680  0.94550  1.0000
  H   H159      1.0  0.71690  0.32680  0.05450  1.0000
  H   H160      1.0  0.28310  0.67320  0.05450  1.0000
  H   H161      1.0  0.67320  0.05450  0.28310  1.0000
  H   H162      1.0  0.32680  0.05450  0.71690  1.0000
  H   H163      1.0  0.32680  0.94550  0.28310  1.0000
  H   H164      1.0  0.67320  0.94550  0.71690  1.0000
  H   H165      1.0  0.05450  0.71690  0.32680  1.0000
  H   H166      1.0  0.05450  0.28310  0.67320  1.0000
  H   H167      1.0  0.94550  0.71690  0.67320  1.0000
  H   H168      1.0  0.94550  0.28310  0.32680  1.0000
  H   H169      1.0  0.62330  0.75010  0.08380  1.0000
  H   H170      1.0  0.37670  0.24990  0.08380  1.0000
  H   H171      1.0  0.37670  0.75010  0.91620  1.0000
  H   H172      1.0  0.62330  0.24990  0.91620  1.0000
  H   H173      1.0  0.08380  0.62330  0.75010  1.0000
  H   H174      1.0  0.08380  0.37670  0.24990  1.0000
  H   H175      1.0  0.91620  0.37670  0.75010  1.0000
  H   H176      1.0  0.91620  0.62330  0.24990  1.0000
  H   H177      1.0  0.75010  0.08380  0.62330  1.0000
  H   H178      1.0  0.24990  0.08380  0.37670  1.0000
  H   H179      1.0  0.75010  0.91620  0.37670  1.0000
  H   H180      1.0  0.24990  0.91620  0.62330  1.0000
  H   H181      1.0  0.75010  0.62330  0.91620  1.0000
  H   H182      1.0  0.24990  0.37670  0.91620  1.0000
  H   H183      1.0  0.75010  0.37670  0.08380  1.0000
  H   H184      1.0  0.24990  0.62330  0.08380  1.0000
  H   H185      1.0  0.62330  0.08380  0.24990  1.0000
  H   H186      1.0  0.37670  0.08380  0.75010  1.0000
  H   H187      1.0  0.37670  0.91620  0.24990  1.0000
  H   H188      1.0  0.62330  0.91620  0.75010  1.0000
  H   H189      1.0  0.08380  0.75010  0.37670  1.0000
  H   H190      1.0  0.08380  0.24990  0.62330  1.0000
  H   H191      1.0  0.91620  0.75010  0.62330  1.0000
  H   H192      1.0  0.91620  0.24990  0.37670  1.0000
  H   H193      1.0  0.61110  0.69230  0.05260  1.0000
  H   H194      1.0  0.38890  0.30770  0.05260  1.0000
  H   H195      1.0  0.38890  0.69230  0.94740  1.0000
  H   H196      1.0  0.61110  0.30770  0.94740  1.0000
  H   H197      1.0  0.05260  0.61110  0.69230  1.0000
  H   H198      1.0  0.05260  0.38890  0.30770  1.0000
  H   H199      1.0  0.94740  0.38890  0.69230  1.0000
  H   H200      1.0  0.94740  0.61110  0.30770  1.0000
  H   H201      1.0  0.69230  0.05260  0.61110  1.0000
  H   H202      1.0  0.30770  0.05260  0.38890  1.0000
  H   H203      1.0  0.69230  0.94740  0.38890  1.0000
  H   H204      1.0  0.30770  0.94740  0.61110  1.0000
  H   H205      1.0  0.69230  0.61110  0.94740  1.0000
  H   H206      1.0  0.30770  0.38890  0.94740  1.0000
  H   H207      1.0  0.69230  0.38890  0.05260  1.0000
  H   H208      1.0  0.30770  0.61110  0.05260  1.0000
  H   H209      1.0  0.61110  0.05260  0.30770  1.0000
  H   H210      1.0  0.38890  0.05260  0.69230  1.0000
  H   H211      1.0  0.38890  0.94740  0.30770  1.0000
  H   H212      1.0  0.61110  0.94740  0.69230  1.0000
  H   H213      1.0  0.05260  0.69230  0.38890  1.0000
  H   H214      1.0  0.05260  0.30770  0.61110  1.0000
  H   H215      1.0  0.94740  0.69230  0.61110  1.0000
  H   H216      1.0  0.94740  0.30770  0.38890  1.0000
  C   C241      1.0  0.63010  0.52400  0.18950  1.0000
  C   C242      1.0  0.36990  0.47600  0.18950  1.0000
  C   C243      1.0  0.36990  0.52400  0.81050  1.0000
  C   C244      1.0  0.63010  0.47600  0.81050  1.0000
  C   C245      1.0  0.18950  0.63010  0.52400  1.0000
  C   C246      1.0  0.18950  0.36990  0.47600  1.0000
  C   C247      1.0  0.81050  0.36990  0.52400  1.0000
  C   C248      1.0  0.81050  0.63010  0.47600  1.0000
  C   C249      1.0  0.52400  0.18950  0.63010  1.0000
  C   C250      1.0  0.47600  0.18950  0.36990  1.0000
  C   C251      1.0  0.52400  0.81050  0.36990  1.0000
  C   C252      1.0  0.47600  0.81050  0.63010  1.0000
  C   C253      1.0  0.52400  0.63010  0.81050  1.0000
  C   C254      1.0  0.47600  0.36990  0.81050  1.0000
  C   C255      1.0  0.52400  0.36990  0.18950  1.0000
  C   C256      1.0  0.47600  0.63010  0.18950  1.0000
  C   C257      1.0  0.63010  0.18950  0.47600  1.0000
  C   C258      1.0  0.36990  0.18950  0.52400  1.0000
  C   C259      1.0  0.36990  0.81050  0.47600  1.0000
  C   C260      1.0  0.63010  0.81050  0.52400  1.0000
  C   C261      1.0  0.18950  0.52400  0.36990  1.0000
  C   C262      1.0  0.18950  0.47600  0.63010  1.0000
  C   C263      1.0  0.81050  0.52400  0.63010  1.0000
  C   C264      1.0  0.81050  0.47600  0.36990  1.0000
  H   H217      1.0  0.61240  0.51290  0.15430  1.0000
  H   H218      1.0  0.38760  0.48710  0.15430  1.0000
  H   H219      1.0  0.38760  0.51290  0.84570  1.0000
  H   H220      1.0  0.61240  0.48710  0.84570  1.0000
  H   H221      1.0  0.15430  0.61240  0.51290  1.0000
  H   H222      1.0  0.15430  0.38760  0.48710  1.0000
  H   H223      1.0  0.84570  0.38760  0.51290  1.0000
  H   H224      1.0  0.84570  0.61240  0.48710  1.0000
  H   H225      1.0  0.51290  0.15430  0.61240  1.0000
  H   H226      1.0  0.48710  0.15430  0.38760  1.0000
  H   H227      1.0  0.51290  0.84570  0.38760  1.0000
  H   H228      1.0  0.48710  0.84570  0.61240  1.0000
  H   H229      1.0  0.51290  0.61240  0.84570  1.0000
  H   H230      1.0  0.48710  0.38760  0.84570  1.0000
  H   H231      1.0  0.51290  0.38760  0.15430  1.0000
  H   H232      1.0  0.48710  0.61240  0.15430  1.0000
  H   H233      1.0  0.61240  0.15430  0.48710  1.0000
  H   H234      1.0  0.38760  0.15430  0.51290  1.0000
  H   H235      1.0  0.38760  0.84570  0.48710  1.0000
  H   H236      1.0  0.61240  0.84570  0.51290  1.0000
  H   H237      1.0  0.15430  0.51290  0.38760  1.0000
  H   H238      1.0  0.15430  0.48710  0.61240  1.0000
  H   H239      1.0  0.84570  0.51290  0.61240  1.0000
  H   H240      1.0  0.84570  0.48710  0.38760  1.0000
  H   H241      1.0  0.60400  0.51790  0.22040  1.0000
  H   H242      1.0  0.39600  0.48210  0.22040  1.0000
  H   H243      1.0  0.39600  0.51790  0.77960  1.0000
  H   H244      1.0  0.60400  0.48210  0.77960  1.0000
  H   H245      1.0  0.22040  0.60400  0.51790  1.0000
  H   H246      1.0  0.22040  0.39600  0.48210  1.0000
  H   H247      1.0  0.77960  0.39600  0.51790  1.0000
  H   H248      1.0  0.77960  0.60400  0.48210  1.0000
  H   H249      1.0  0.51790  0.22040  0.60400  1.0000
  H   H250      1.0  0.48210  0.22040  0.39600  1.0000
  H   H251      1.0  0.51790  0.77960  0.39600  1.0000
  H   H252      1.0  0.48210  0.77960  0.60400  1.0000
  H   H253      1.0  0.51790  0.60400  0.77960  1.0000
  H   H254      1.0  0.48210  0.39600  0.77960  1.0000
  H   H255      1.0  0.51790  0.39600  0.22040  1.0000
  H   H256      1.0  0.48210  0.60400  0.22040  1.0000
  H   H257      1.0  0.60400  0.22040  0.48210  1.0000
  H   H258      1.0  0.39600  0.22040  0.51790  1.0000
  H   H259      1.0  0.39600  0.77960  0.48210  1.0000
  H   H260      1.0  0.60400  0.77960  0.51790  1.0000
  H   H261      1.0  0.22040  0.51790  0.39600  1.0000
  H   H262      1.0  0.22040  0.48210  0.60400  1.0000
  H   H263      1.0  0.77960  0.51790  0.60400  1.0000
  H   H264      1.0  0.77960  0.48210  0.39600  1.0000
  H   H265      1.0  0.66380  0.50150  0.19550  1.0000
  H   H266      1.0  0.33620  0.49850  0.19550  1.0000
  H   H267      1.0  0.33620  0.50150  0.80450  1.0000
  H   H268      1.0  0.66380  0.49850  0.80450  1.0000
  H   H269      1.0  0.19550  0.66380  0.50150  1.0000
  H   H270      1.0  0.19550  0.33620  0.49850  1.0000
  H   H271      1.0  0.80450  0.33620  0.50150  1.0000
  H   H272      1.0  0.80450  0.66380  0.49850  1.0000
  H   H273      1.0  0.50150  0.19550  0.66380  1.0000
  H   H274      1.0  0.49850  0.19550  0.33620  1.0000
  H   H275      1.0  0.50150  0.80450  0.33620  1.0000
  H   H276      1.0  0.49850  0.80450  0.66380  1.0000
  H   H277      1.0  0.50150  0.66380  0.80450  1.0000
  H   H278      1.0  0.49850  0.33620  0.80450  1.0000
  H   H279      1.0  0.50150  0.33620  0.19550  1.0000
  H   H280      1.0  0.49850  0.66380  0.19550  1.0000
  H   H281      1.0  0.66380  0.19550  0.49850  1.0000
  H   H282      1.0  0.33620  0.19550  0.50150  1.0000
  H   H283      1.0  0.33620  0.80450  0.49850  1.0000
  H   H284      1.0  0.66380  0.80450  0.50150  1.0000
  H   H285      1.0  0.19550  0.50150  0.33620  1.0000
  H   H286      1.0  0.19550  0.49850  0.66380  1.0000
  H   H287      1.0  0.80450  0.50150  0.66380  1.0000
  H   H288      1.0  0.80450  0.49850  0.33620  1.0000
  O   O25       1.0  0.64900  0.55760  0.05310  1.0000
  O   O26       1.0  0.35100  0.44240  0.05310  1.0000
  O   O27       1.0  0.35100  0.55760  0.94690  1.0000
  O   O28       1.0  0.64900  0.44240  0.94690  1.0000
  O   O29       1.0  0.05310  0.64900  0.55760  1.0000
  O   O30       1.0  0.05310  0.35100  0.44240  1.0000
  O   O31       1.0  0.94690  0.35100  0.55760  1.0000
  O   O32       1.0  0.94690  0.64900  0.44240  1.0000
  O   O33       1.0  0.55760  0.05310  0.64900  1.0000
  O   O34       1.0  0.44240  0.05310  0.35100  1.0000
  O   O35       1.0  0.55760  0.94690  0.35100  1.0000
  O   O36       1.0  0.44240  0.94690  0.64900  1.0000
  O   O37       1.0  0.55760  0.64900  0.94690  1.0000
  O   O38       1.0  0.44240  0.35100  0.94690  1.0000
  O   O39       1.0  0.55760  0.35100  0.05310  1.0000
  O   O40       1.0  0.44240  0.64900  0.05310  1.0000
  O   O41       1.0  0.64900  0.05310  0.44240  1.0000
  O   O42       1.0  0.35100  0.05310  0.55760  1.0000
  O   O43       1.0  0.35100  0.94690  0.44240  1.0000
  O   O44       1.0  0.64900  0.94690  0.55760  1.0000
  O   O45       1.0  0.05310  0.55760  0.35100  1.0000
  O   O46       1.0  0.05310  0.44240  0.64900  1.0000
  O   O47       1.0  0.94690  0.55760  0.64900  1.0000
  O   O48       1.0  0.94690  0.44240  0.35100  1.0000
  Cl  Cl1       1.0  0.50000  0.50000  0.00000  1.0000
  Cl  Cl2       1.0  0.00000  0.50000  0.50000  1.0000
  Cl  Cl3       1.0  0.50000  0.00000  0.50000  1.0000
