data_image0
_chemical_formula_structural       Cd4O8N4H8C8H4C8H4C4H4C4H4C4Cl8
_chemical_formula_sum              "Cd4 O8 N4 H24 C28 Cl8"
_cell_length_a       6.9826
_cell_length_b       14.909
_cell_length_c       10.417
_cell_angle_alpha    90
_cell_angle_beta     99.3
_cell_angle_gamma    90

_space_group_name_H-M_alt    "P 1"
_space_group_IT_number       1

loop_
  _space_group_symop_operation_xyz
  'x, y, z'

loop_
  _atom_site_type_symbol
  _atom_site_label
  _atom_site_symmetry_multiplicity
  _atom_site_fract_x
  _atom_site_fract_y
  _atom_site_fract_z
  _atom_site_occupancy
  Cd  Cd1       1.0  0.09837  0.41942  0.88556  1.0000
  Cd  Cd2       1.0  0.90163  0.91942  0.61444  1.0000
  Cd  Cd3       1.0  0.90163  0.58058  0.11444  1.0000
  Cd  Cd4       1.0  0.09837  0.08058  0.38556  1.0000
  O   O1        1.0  0.89880  0.34246  0.70747  1.0000
  O   O2        1.0  0.10120  0.84246  0.79253  1.0000
  O   O3        1.0  0.10120  0.65754  0.29253  1.0000
  O   O4        1.0  0.89880  0.15754  0.20747  1.0000
  O   O5        1.0  0.91890  0.48880  0.70522  1.0000
  O   O6        1.0  0.08110  0.98880  0.79478  1.0000
  O   O7        1.0  0.08110  0.51120  0.29478  1.0000
  O   O8        1.0  0.91890  0.01120  0.20522  1.0000
  N   N1        1.0  0.63010  0.57986  0.24347  1.0000
  N   N2        1.0  0.36990  0.07986  0.25653  1.0000
  N   N3        1.0  0.36990  0.42014  0.75653  1.0000
  N   N4        1.0  0.63010  0.92014  0.74347  1.0000
  H   H1        1.0  0.54190  0.58450  0.18870  1.0000
  H   H2        1.0  0.45810  0.08450  0.31130  1.0000
  H   H3        1.0  0.45810  0.41550  0.81130  1.0000
  H   H4        1.0  0.54190  0.91550  0.68870  1.0000
  H   H5        1.0  0.74670  0.57880  0.24760  1.0000
  H   H6        1.0  0.25330  0.07880  0.25240  1.0000
  H   H7        1.0  0.25330  0.42120  0.75240  1.0000
  H   H8        1.0  0.74670  0.92120  0.74760  1.0000
  C   C1        1.0  0.74210  0.41798  0.51757  1.0000
  C   C2        1.0  0.25790  0.91798  0.98243  1.0000
  C   C3        1.0  0.25790  0.58202  0.48243  1.0000
  C   C4        1.0  0.74210  0.08202  0.01757  1.0000
  C   C5        1.0  0.72860  0.49751  0.44631  1.0000
  C   C6        1.0  0.27140  0.99751  0.05369  1.0000
  C   C7        1.0  0.27140  0.50249  0.55369  1.0000
  C   C8        1.0  0.72860  0.00249  0.94631  1.0000
  H   H9        1.0  0.78630  0.54950  0.48380  1.0000
  H   H10       1.0  0.21370  0.04950  0.01620  1.0000
  H   H11       1.0  0.21370  0.45050  0.51620  1.0000
  H   H12       1.0  0.78630  0.95050  0.98380  1.0000
  C   C9        1.0  0.62930  0.49936  0.31959  1.0000
  C   C10       1.0  0.37070  0.99936  0.18041  1.0000
  C   C11       1.0  0.37070  0.50064  0.68041  1.0000
  C   C12       1.0  0.62930  0.00064  0.81959  1.0000
  C   C13       1.0  0.53770  0.42283  0.26550  1.0000
  C   C14       1.0  0.46230  0.92283  0.23450  1.0000
  C   C15       1.0  0.46230  0.57717  0.73450  1.0000
  C   C16       1.0  0.53770  0.07717  0.76550  1.0000
  H   H13       1.0  0.46910  0.42410  0.18120  1.0000
  H   H14       1.0  0.53090  0.92410  0.31880  1.0000
  H   H15       1.0  0.53090  0.57590  0.81880  1.0000
  H   H16       1.0  0.46910  0.07590  0.68120  1.0000
  C   C17       1.0  0.54840  0.34416  0.33740  1.0000
  C   C18       1.0  0.45160  0.84416  0.16260  1.0000
  C   C19       1.0  0.45160  0.65584  0.66260  1.0000
  C   C20       1.0  0.54840  0.15584  0.83740  1.0000
  H   H17       1.0  0.48510  0.29300  0.30110  1.0000
  H   H18       1.0  0.51490  0.79300  0.19890  1.0000
  H   H19       1.0  0.51490  0.70700  0.69890  1.0000
  H   H20       1.0  0.48510  0.20700  0.80110  1.0000
  C   C21       1.0  0.65260  0.34069  0.46300  1.0000
  C   C22       1.0  0.34740  0.84069  0.03700  1.0000
  C   C23       1.0  0.34740  0.65931  0.53700  1.0000
  C   C24       1.0  0.65260  0.15931  0.96300  1.0000
  H   H21       1.0  0.66200  0.28730  0.50980  1.0000
  H   H22       1.0  0.33800  0.78730  0.99020  1.0000
  H   H23       1.0  0.33800  0.71270  0.49020  1.0000
  H   H24       1.0  0.66200  0.21270  0.00980  1.0000
  C   C25       1.0  0.85860  0.41576  0.65194  1.0000
  C   C26       1.0  0.14140  0.91576  0.84806  1.0000
  C   C27       1.0  0.14140  0.58424  0.34806  1.0000
  C   C28       1.0  0.85860  0.08424  0.15194  1.0000
  Cl  Cl1       1.0  0.22899  0.28509  0.01487  1.0000
  Cl  Cl2       1.0  0.77101  0.78509  0.48513  1.0000
  Cl  Cl3       1.0  0.77101  0.71491  0.98513  1.0000
  Cl  Cl4       1.0  0.22899  0.21491  0.51487  1.0000
  Cl  Cl5       1.0  0.21971  0.56519  0.00010  1.0000
  Cl  Cl6       1.0  0.78029  0.06519  0.49990  1.0000
  Cl  Cl7       1.0  0.78029  0.43481  0.99990  1.0000
  Cl  Cl8       1.0  0.21971  0.93481  0.50010  1.0000
