data_image0
_chemical_formula_structural       Tm12O96N8H8C24H8C16H8C8H8C32H8C24H8C16H8C8H8C16H8C40H8C8H8C16H8C24
_chemical_formula_sum              "Tm12 O96 N8 H96 C232"
_cell_length_a       18.8054
_cell_length_b       23.1956
_cell_length_c       21.192
_cell_angle_alpha    90
_cell_angle_beta     101.201
_cell_angle_gamma    90

_space_group_name_H-M_alt    "P 1"
_space_group_IT_number       1

loop_
  _space_group_symop_operation_xyz
  'x, y, z'

loop_
  _atom_site_type_symbol
  _atom_site_label
  _atom_site_symmetry_multiplicity
  _atom_site_fract_x
  _atom_site_fract_y
  _atom_site_fract_z
  _atom_site_occupancy
  Tm  Tm1       1.0  0.50000  0.35280  0.25000  1.0000
  Tm  Tm2       1.0  0.00000  0.85280  0.25000  1.0000
  Tm  Tm3       1.0  0.50000  0.64720  0.75000  1.0000
  Tm  Tm4       1.0  0.00000  0.14720  0.75000  1.0000
  Tm  Tm5       1.0  0.41468  0.00275  0.04231  1.0000
  Tm  Tm6       1.0  0.58532  0.00275  0.45769  1.0000
  Tm  Tm7       1.0  0.91468  0.50275  0.04231  1.0000
  Tm  Tm8       1.0  0.08532  0.50275  0.45769  1.0000
  Tm  Tm9       1.0  0.58532  0.99725  0.95769  1.0000
  Tm  Tm10      1.0  0.41468  0.99725  0.54231  1.0000
  Tm  Tm11      1.0  0.08532  0.49725  0.95769  1.0000
  Tm  Tm12      1.0  0.91468  0.49725  0.54231  1.0000
  O   O1        1.0  0.59200  0.31150  0.20670  1.0000
  O   O2        1.0  0.40800  0.31150  0.29330  1.0000
  O   O3        1.0  0.09200  0.81150  0.20670  1.0000
  O   O4        1.0  0.90800  0.81150  0.29330  1.0000
  O   O5        1.0  0.40800  0.68850  0.79330  1.0000
  O   O6        1.0  0.59200  0.68850  0.70670  1.0000
  O   O7        1.0  0.90800  0.18850  0.79330  1.0000
  O   O8        1.0  0.09200  0.18850  0.70670  1.0000
  O   O9        1.0  0.48110  0.28110  0.17260  1.0000
  O   O10       1.0  0.51890  0.28110  0.32740  1.0000
  O   O11       1.0  0.98110  0.78110  0.17260  1.0000
  O   O12       1.0  0.01890  0.78110  0.32740  1.0000
  O   O13       1.0  0.51890  0.71890  0.82740  1.0000
  O   O14       1.0  0.48110  0.71890  0.67260  1.0000
  O   O15       1.0  0.01890  0.21890  0.82740  1.0000
  O   O16       1.0  0.98110  0.21890  0.67260  1.0000
  O   O17       1.0  0.45840  0.09508  0.06863  1.0000
  O   O18       1.0  0.54160  0.09508  0.43137  1.0000
  O   O19       1.0  0.95840  0.59508  0.06863  1.0000
  O   O20       1.0  0.04160  0.59508  0.43137  1.0000
  O   O21       1.0  0.54160  0.90492  0.93137  1.0000
  O   O22       1.0  0.45840  0.90492  0.56863  1.0000
  O   O23       1.0  0.04160  0.40492  0.93137  1.0000
  O   O24       1.0  0.95840  0.40492  0.56863  1.0000
  O   O25       1.0  0.53680  0.06437  0.01169  1.0000
  O   O26       1.0  0.46320  0.06437  0.48831  1.0000
  O   O27       1.0  0.03680  0.56437  0.01169  1.0000
  O   O28       1.0  0.96320  0.56437  0.48831  1.0000
  O   O29       1.0  0.46320  0.93563  0.98831  1.0000
  O   O30       1.0  0.53680  0.93563  0.51169  1.0000
  O   O31       1.0  0.96320  0.43563  0.98831  1.0000
  O   O32       1.0  0.03680  0.43563  0.51169  1.0000
  O   O33       1.0  0.89120  0.45578  0.44135  1.0000
  O   O34       1.0  0.10880  0.45578  0.05865  1.0000
  O   O35       1.0  0.39120  0.95578  0.44135  1.0000
  O   O36       1.0  0.60880  0.95578  0.05865  1.0000
  O   O37       1.0  0.10880  0.54422  0.55865  1.0000
  O   O38       1.0  0.89120  0.54422  0.94135  1.0000
  O   O39       1.0  0.60880  0.04422  0.55865  1.0000
  O   O40       1.0  0.39120  0.04422  0.94135  1.0000
  O   O41       1.0  0.97840  0.48276  0.38879  1.0000
  O   O42       1.0  0.02160  0.48276  0.11121  1.0000
  O   O43       1.0  0.47840  0.98276  0.38879  1.0000
  O   O44       1.0  0.52160  0.98276  0.11121  1.0000
  O   O45       1.0  0.02160  0.51724  0.61121  1.0000
  O   O46       1.0  0.97840  0.51724  0.88879  1.0000
  O   O47       1.0  0.52160  0.01724  0.61121  1.0000
  O   O48       1.0  0.47840  0.01724  0.88879  1.0000
  O   O49       1.0  0.88810  0.51394  0.14786  1.0000
  O   O50       1.0  0.11190  0.51394  0.35214  1.0000
  O   O51       1.0  0.38810  0.01394  0.14786  1.0000
  O   O52       1.0  0.61190  0.01394  0.35214  1.0000
  O   O53       1.0  0.11190  0.48606  0.85214  1.0000
  O   O54       1.0  0.88810  0.48606  0.64786  1.0000
  O   O55       1.0  0.61190  0.98606  0.85214  1.0000
  O   O56       1.0  0.38810  0.98606  0.64786  1.0000
  O   O57       1.0  0.88320  0.42526  0.11072  1.0000
  O   O58       1.0  0.11680  0.42526  0.38928  1.0000
  O   O59       1.0  0.38320  0.92526  0.11072  1.0000
  O   O60       1.0  0.61680  0.92526  0.38928  1.0000
  O   O61       1.0  0.11680  0.57474  0.88928  1.0000
  O   O62       1.0  0.88320  0.57474  0.61072  1.0000
  O   O63       1.0  0.61680  0.07474  0.88928  1.0000
  O   O64       1.0  0.38320  0.07474  0.61072  1.0000
  O   O65       1.0  0.79450  0.54334  0.03012  1.0000
  O   O66       1.0  0.20550  0.54334  0.46988  1.0000
  O   O67       1.0  0.29450  0.04334  0.03012  1.0000
  O   O68       1.0  0.70550  0.04334  0.46988  1.0000
  O   O69       1.0  0.20550  0.45666  0.96988  1.0000
  O   O70       1.0  0.79450  0.45666  0.53012  1.0000
  O   O71       1.0  0.70550  0.95666  0.96988  1.0000
  O   O72       1.0  0.29450  0.95666  0.53012  1.0000
  O   O73       1.0  0.80420  0.45710  0.98860  1.0000
  O   O74       1.0  0.19580  0.45710  0.51140  1.0000
  O   O75       1.0  0.30420  0.95710  0.98860  1.0000
  O   O76       1.0  0.69580  0.95710  0.51140  1.0000
  O   O77       1.0  0.19580  0.54290  0.01140  1.0000
  O   O78       1.0  0.80420  0.54290  0.48860  1.0000
  O   O79       1.0  0.69580  0.04290  0.01140  1.0000
  O   O80       1.0  0.30420  0.04290  0.48860  1.0000
  O   O81       1.0  0.59620  0.60620  0.82170  1.0000
  O   O82       1.0  0.40380  0.60620  0.67830  1.0000
  O   O83       1.0  0.09620  0.10620  0.82170  1.0000
  O   O84       1.0  0.90380  0.10620  0.67830  1.0000
  O   O85       1.0  0.40380  0.39380  0.17830  1.0000
  O   O86       1.0  0.59620  0.39380  0.32170  1.0000
  O   O87       1.0  0.90380  0.89380  0.17830  1.0000
  O   O88       1.0  0.09620  0.89380  0.32170  1.0000
  O   O89       1.0  0.48750  0.57480  0.82310  1.0000
  O   O90       1.0  0.51250  0.57480  0.67690  1.0000
  O   O91       1.0  0.98750  0.07480  0.82310  1.0000
  O   O92       1.0  0.01250  0.07480  0.67690  1.0000
  O   O93       1.0  0.51250  0.42520  0.17690  1.0000
  O   O94       1.0  0.48750  0.42520  0.32310  1.0000
  O   O95       1.0  0.01250  0.92520  0.17690  1.0000
  O   O96       1.0  0.98750  0.92520  0.32310  1.0000
  N   N1        1.0  0.71510  0.43090  0.10280  1.0000
  N   N2        1.0  0.28490  0.43090  0.39720  1.0000
  N   N3        1.0  0.21510  0.93090  0.10280  1.0000
  N   N4        1.0  0.78490  0.93090  0.39720  1.0000
  N   N5        1.0  0.28490  0.56910  0.89720  1.0000
  N   N6        1.0  0.71510  0.56910  0.60280  1.0000
  N   N7        1.0  0.78490  0.06910  0.89720  1.0000
  N   N8        1.0  0.21510  0.06910  0.60280  1.0000
  H   H1        1.0  0.73030  0.46590  0.10720  1.0000
  H   H2        1.0  0.26970  0.46590  0.39280  1.0000
  H   H3        1.0  0.23030  0.96590  0.10720  1.0000
  H   H4        1.0  0.76970  0.96590  0.39280  1.0000
  H   H5        1.0  0.26970  0.53410  0.89280  1.0000
  H   H6        1.0  0.73030  0.53410  0.60720  1.0000
  H   H7        1.0  0.76970  0.03410  0.89280  1.0000
  H   H8        1.0  0.23030  0.03410  0.60720  1.0000
  C   C1        1.0  0.54990  0.28350  0.16770  1.0000
  C   C2        1.0  0.45010  0.28350  0.33230  1.0000
  C   C3        1.0  0.04990  0.78350  0.16770  1.0000
  C   C4        1.0  0.95010  0.78350  0.33230  1.0000
  C   C5        1.0  0.45010  0.71650  0.83230  1.0000
  C   C6        1.0  0.54990  0.71650  0.66770  1.0000
  C   C7        1.0  0.95010  0.21650  0.83230  1.0000
  C   C8        1.0  0.04990  0.21650  0.66770  1.0000
  C   C9        1.0  0.57600  0.24560  0.11830  1.0000
  C   C10       1.0  0.42400  0.24560  0.38170  1.0000
  C   C11       1.0  0.07600  0.74560  0.11830  1.0000
  C   C12       1.0  0.92400  0.74560  0.38170  1.0000
  C   C13       1.0  0.42400  0.75440  0.88170  1.0000
  C   C14       1.0  0.57600  0.75440  0.61830  1.0000
  C   C15       1.0  0.92400  0.25440  0.88170  1.0000
  C   C16       1.0  0.07600  0.25440  0.61830  1.0000
  C   C17       1.0  0.53860  0.19410  0.10330  1.0000
  C   C18       1.0  0.46140  0.19410  0.39670  1.0000
  C   C19       1.0  0.03860  0.69410  0.10330  1.0000
  C   C20       1.0  0.96140  0.69410  0.39670  1.0000
  C   C21       1.0  0.46140  0.80590  0.89670  1.0000
  C   C22       1.0  0.53860  0.80590  0.60330  1.0000
  C   C23       1.0  0.96140  0.30590  0.89670  1.0000
  C   C24       1.0  0.03860  0.30590  0.60330  1.0000
  H   H9        1.0  0.50100  0.18480  0.12430  1.0000
  H   H10       1.0  0.49900  0.18480  0.37570  1.0000
  H   H11       1.0  0.00100  0.68480  0.12430  1.0000
  H   H12       1.0  0.99900  0.68480  0.37570  1.0000
  H   H13       1.0  0.49900  0.81520  0.87570  1.0000
  H   H14       1.0  0.50100  0.81520  0.62430  1.0000
  H   H15       1.0  0.99900  0.31520  0.87570  1.0000
  H   H16       1.0  0.00100  0.31520  0.62430  1.0000
  C   C25       1.0  0.55570  0.15670  0.05830  1.0000
  C   C26       1.0  0.44430  0.15670  0.44170  1.0000
  C   C27       1.0  0.05570  0.65670  0.05830  1.0000
  C   C28       1.0  0.94430  0.65670  0.44170  1.0000
  C   C29       1.0  0.44430  0.84330  0.94170  1.0000
  C   C30       1.0  0.55570  0.84330  0.55830  1.0000
  C   C31       1.0  0.94430  0.34330  0.94170  1.0000
  C   C32       1.0  0.05570  0.34330  0.55830  1.0000
  C   C33       1.0  0.60890  0.17190  0.02550  1.0000
  C   C34       1.0  0.39110  0.17190  0.47450  1.0000
  C   C35       1.0  0.10890  0.67190  0.02550  1.0000
  C   C36       1.0  0.89110  0.67190  0.47450  1.0000
  C   C37       1.0  0.39110  0.82810  0.97450  1.0000
  C   C38       1.0  0.60890  0.82810  0.52550  1.0000
  C   C39       1.0  0.89110  0.32810  0.97450  1.0000
  C   C40       1.0  0.10890  0.32810  0.52550  1.0000
  H   H17       1.0  0.62180  0.14690  0.99540  1.0000
  H   H18       1.0  0.37820  0.14690  0.50460  1.0000
  H   H19       1.0  0.12180  0.64690  0.99540  1.0000
  H   H20       1.0  0.87820  0.64690  0.50460  1.0000
  H   H21       1.0  0.37820  0.85310  0.00460  1.0000
  H   H22       1.0  0.62180  0.85310  0.49540  1.0000
  H   H23       1.0  0.87820  0.35310  0.00460  1.0000
  H   H24       1.0  0.12180  0.35310  0.49540  1.0000
  C   C41       1.0  0.64360  0.22530  0.03760  1.0000
  C   C42       1.0  0.35640  0.22530  0.46240  1.0000
  C   C43       1.0  0.14360  0.72530  0.03760  1.0000
  C   C44       1.0  0.85640  0.72530  0.46240  1.0000
  C   C45       1.0  0.35640  0.77470  0.96240  1.0000
  C   C46       1.0  0.64360  0.77470  0.53760  1.0000
  C   C47       1.0  0.85640  0.27470  0.96240  1.0000
  C   C48       1.0  0.14360  0.27470  0.53760  1.0000
  H   H25       1.0  0.67780  0.23600  0.01350  1.0000
  H   H26       1.0  0.32220  0.23600  0.48650  1.0000
  H   H27       1.0  0.17780  0.73600  0.01350  1.0000
  H   H28       1.0  0.82220  0.73600  0.48650  1.0000
  H   H29       1.0  0.32220  0.76400  0.98650  1.0000
  H   H30       1.0  0.67780  0.76400  0.51350  1.0000
  H   H31       1.0  0.82220  0.26400  0.98650  1.0000
  H   H32       1.0  0.17780  0.26400  0.51350  1.0000
  C   C49       1.0  0.62890  0.26190  0.08320  1.0000
  C   C50       1.0  0.37110  0.26190  0.41680  1.0000
  C   C51       1.0  0.12890  0.76190  0.08320  1.0000
  C   C52       1.0  0.87110  0.76190  0.41680  1.0000
  C   C53       1.0  0.37110  0.73810  0.91680  1.0000
  C   C54       1.0  0.62890  0.73810  0.58320  1.0000
  C   C55       1.0  0.87110  0.23810  0.91680  1.0000
  C   C56       1.0  0.12890  0.23810  0.58320  1.0000
  C   C57       1.0  0.51420  0.10250  0.04580  1.0000
  C   C58       1.0  0.48580  0.10250  0.45420  1.0000
  C   C59       1.0  0.01420  0.60250  0.04580  1.0000
  C   C60       1.0  0.98580  0.60250  0.45420  1.0000
  C   C61       1.0  0.48580  0.89750  0.95420  1.0000
  C   C62       1.0  0.51420  0.89750  0.54580  1.0000
  C   C63       1.0  0.98580  0.39750  0.95420  1.0000
  C   C64       1.0  0.01420  0.39750  0.54580  1.0000
  C   C65       1.0  0.66230  0.32040  0.09060  1.0000
  C   C66       1.0  0.33770  0.32040  0.40940  1.0000
  C   C67       1.0  0.16230  0.82040  0.09060  1.0000
  C   C68       1.0  0.83770  0.82040  0.40940  1.0000
  C   C69       1.0  0.33770  0.67960  0.90940  1.0000
  C   C70       1.0  0.66230  0.67960  0.59060  1.0000
  C   C71       1.0  0.83770  0.17960  0.90940  1.0000
  C   C72       1.0  0.16230  0.17960  0.59060  1.0000
  C   C73       1.0  0.64160  0.35940  0.04280  1.0000
  C   C74       1.0  0.35840  0.35940  0.45720  1.0000
  C   C75       1.0  0.14160  0.85940  0.04280  1.0000
  C   C76       1.0  0.85840  0.85940  0.45720  1.0000
  C   C77       1.0  0.35840  0.64060  0.95720  1.0000
  C   C78       1.0  0.64160  0.64060  0.54280  1.0000
  C   C79       1.0  0.85840  0.14060  0.95720  1.0000
  C   C80       1.0  0.14160  0.14060  0.54280  1.0000
  H   H33       1.0  0.60920  0.34850  0.00580  1.0000
  H   H34       1.0  0.39080  0.34850  0.49420  1.0000
  H   H35       1.0  0.10920  0.84850  0.00580  1.0000
  H   H36       1.0  0.89080  0.84850  0.49420  1.0000
  H   H37       1.0  0.39080  0.65150  0.99420  1.0000
  H   H38       1.0  0.60920  0.65150  0.50580  1.0000
  H   H39       1.0  0.89080  0.15150  0.99420  1.0000
  H   H40       1.0  0.10920  0.15150  0.50580  1.0000
  C   C81       1.0  0.66740  0.41430  0.04820  1.0000
  C   C82       1.0  0.33260  0.41430  0.45180  1.0000
  C   C83       1.0  0.16740  0.91430  0.04820  1.0000
  C   C84       1.0  0.83260  0.91430  0.45180  1.0000
  C   C85       1.0  0.33260  0.58570  0.95180  1.0000
  C   C86       1.0  0.66740  0.58570  0.54820  1.0000
  C   C87       1.0  0.83260  0.08570  0.95180  1.0000
  C   C88       1.0  0.16740  0.08570  0.54820  1.0000
  C   C89       1.0  0.73830  0.39090  0.15040  1.0000
  C   C90       1.0  0.26170  0.39090  0.34960  1.0000
  C   C91       1.0  0.23830  0.89090  0.15040  1.0000
  C   C92       1.0  0.76170  0.89090  0.34960  1.0000
  C   C93       1.0  0.26170  0.60910  0.84960  1.0000
  C   C94       1.0  0.73830  0.60910  0.65040  1.0000
  C   C95       1.0  0.76170  0.10910  0.84960  1.0000
  C   C96       1.0  0.23830  0.10910  0.65040  1.0000
  C   C97       1.0  0.71210  0.33550  0.14390  1.0000
  C   C98       1.0  0.28790  0.33550  0.35610  1.0000
  C   C99       1.0  0.21210  0.83550  0.14390  1.0000
  C   C100      1.0  0.78790  0.83550  0.35610  1.0000
  C   C101      1.0  0.28790  0.66450  0.85610  1.0000
  C   C102      1.0  0.71210  0.66450  0.64390  1.0000
  C   C103      1.0  0.78790  0.16450  0.85610  1.0000
  C   C104      1.0  0.21210  0.16450  0.64390  1.0000
  H   H41       1.0  0.72820  0.30830  0.17580  1.0000
  H   H42       1.0  0.27180  0.30830  0.32420  1.0000
  H   H43       1.0  0.22820  0.80830  0.17580  1.0000
  H   H44       1.0  0.77180  0.80830  0.32420  1.0000
  H   H45       1.0  0.27180  0.69170  0.82420  1.0000
  H   H46       1.0  0.72820  0.69170  0.67580  1.0000
  H   H47       1.0  0.77180  0.19170  0.82420  1.0000
  H   H48       1.0  0.22820  0.19170  0.67580  1.0000
  C   C105      1.0  0.78770  0.40800  0.21120  1.0000
  C   C106      1.0  0.21230  0.40800  0.28880  1.0000
  C   C107      1.0  0.28770  0.90800  0.21120  1.0000
  C   C108      1.0  0.71230  0.90800  0.28880  1.0000
  C   C109      1.0  0.21230  0.59200  0.78880  1.0000
  C   C110      1.0  0.78770  0.59200  0.71120  1.0000
  C   C111      1.0  0.71230  0.09200  0.78880  1.0000
  C   C112      1.0  0.28770  0.09200  0.71120  1.0000
  C   C113      1.0  0.76800  0.39330  0.26900  1.0000
  C   C114      1.0  0.23200  0.39330  0.23100  1.0000
  C   C115      1.0  0.26800  0.89330  0.26900  1.0000
  C   C116      1.0  0.73200  0.89330  0.23100  1.0000
  C   C117      1.0  0.23200  0.60670  0.73100  1.0000
  C   C118      1.0  0.76800  0.60670  0.76900  1.0000
  C   C119      1.0  0.73200  0.10670  0.73100  1.0000
  C   C120      1.0  0.26800  0.10670  0.76900  1.0000
  H   H49       1.0  0.72630  0.37170  0.26870  1.0000
  H   H50       1.0  0.27370  0.37170  0.23130  1.0000
  H   H51       1.0  0.22630  0.87170  0.26870  1.0000
  H   H52       1.0  0.77370  0.87170  0.23130  1.0000
  H   H53       1.0  0.27370  0.62830  0.73130  1.0000
  H   H54       1.0  0.72630  0.62830  0.76870  1.0000
  H   H55       1.0  0.77370  0.12830  0.73130  1.0000
  H   H56       1.0  0.22630  0.12830  0.76870  1.0000
  C   C121      1.0  0.81000  0.41050  0.32750  1.0000
  C   C122      1.0  0.19000  0.41050  0.17250  1.0000
  C   C123      1.0  0.31000  0.91050  0.32750  1.0000
  C   C124      1.0  0.69000  0.91050  0.17250  1.0000
  C   C125      1.0  0.19000  0.58950  0.67250  1.0000
  C   C126      1.0  0.81000  0.58950  0.82750  1.0000
  C   C127      1.0  0.69000  0.08950  0.67250  1.0000
  C   C128      1.0  0.31000  0.08950  0.82750  1.0000
  H   H57       1.0  0.79590  0.40050  0.36580  1.0000
  H   H58       1.0  0.20410  0.40050  0.13420  1.0000
  H   H59       1.0  0.29590  0.90050  0.36580  1.0000
  H   H60       1.0  0.70410  0.90050  0.13420  1.0000
  H   H61       1.0  0.20410  0.59950  0.63420  1.0000
  H   H62       1.0  0.79590  0.59950  0.86580  1.0000
  H   H63       1.0  0.70410  0.09950  0.63420  1.0000
  H   H64       1.0  0.29590  0.09950  0.86580  1.0000
  C   C129      1.0  0.87180  0.44190  0.32910  1.0000
  C   C130      1.0  0.12820  0.44190  0.17090  1.0000
  C   C131      1.0  0.37180  0.94190  0.32910  1.0000
  C   C132      1.0  0.62820  0.94190  0.17090  1.0000
  C   C133      1.0  0.12820  0.55810  0.67090  1.0000
  C   C134      1.0  0.87180  0.55810  0.82910  1.0000
  C   C135      1.0  0.62820  0.05810  0.67090  1.0000
  C   C136      1.0  0.37180  0.05810  0.82910  1.0000
  C   C137      1.0  0.89170  0.45730  0.27140  1.0000
  C   C138      1.0  0.10830  0.45730  0.22860  1.0000
  C   C139      1.0  0.39170  0.95730  0.27140  1.0000
  C   C140      1.0  0.60830  0.95730  0.22860  1.0000
  C   C141      1.0  0.10830  0.54270  0.72860  1.0000
  C   C142      1.0  0.89170  0.54270  0.77140  1.0000
  C   C143      1.0  0.60830  0.04270  0.72860  1.0000
  C   C144      1.0  0.39170  0.04270  0.77140  1.0000
  H   H65       1.0  0.93350  0.47890  0.27230  1.0000
  H   H66       1.0  0.06650  0.47890  0.22770  1.0000
  H   H67       1.0  0.43350  0.97890  0.27230  1.0000
  H   H68       1.0  0.56650  0.97890  0.22770  1.0000
  H   H69       1.0  0.06650  0.52110  0.72770  1.0000
  H   H70       1.0  0.93350  0.52110  0.77230  1.0000
  H   H71       1.0  0.56650  0.02110  0.72770  1.0000
  H   H72       1.0  0.43350  0.02110  0.77230  1.0000
  C   C145      1.0  0.85040  0.44110  0.21320  1.0000
  C   C146      1.0  0.14960  0.44110  0.28680  1.0000
  C   C147      1.0  0.35040  0.94110  0.21320  1.0000
  C   C148      1.0  0.64960  0.94110  0.28680  1.0000
  C   C149      1.0  0.14960  0.55890  0.78680  1.0000
  C   C150      1.0  0.85040  0.55890  0.71320  1.0000
  C   C151      1.0  0.64960  0.05890  0.78680  1.0000
  C   C152      1.0  0.35040  0.05890  0.71320  1.0000
  C   C153      1.0  0.87530  0.46050  0.15250  1.0000
  C   C154      1.0  0.12470  0.46050  0.34750  1.0000
  C   C155      1.0  0.37530  0.96050  0.15250  1.0000
  C   C156      1.0  0.62470  0.96050  0.34750  1.0000
  C   C157      1.0  0.12470  0.53950  0.84750  1.0000
  C   C158      1.0  0.87530  0.53950  0.65250  1.0000
  C   C159      1.0  0.62470  0.03950  0.84750  1.0000
  C   C160      1.0  0.37530  0.03950  0.65250  1.0000
  C   C161      1.0  0.91730  0.46160  0.39140  1.0000
  C   C162      1.0  0.08270  0.46160  0.10860  1.0000
  C   C163      1.0  0.41730  0.96160  0.39140  1.0000
  C   C164      1.0  0.58270  0.96160  0.10860  1.0000
  C   C165      1.0  0.08270  0.53840  0.60860  1.0000
  C   C166      1.0  0.91730  0.53840  0.89140  1.0000
  C   C167      1.0  0.58270  0.03840  0.60860  1.0000
  C   C168      1.0  0.41730  0.03840  0.89140  1.0000
  C   C169      1.0  0.64080  0.45690  0.99700  1.0000
  C   C170      1.0  0.35920  0.45690  0.50300  1.0000
  C   C171      1.0  0.14080  0.95690  0.99700  1.0000
  C   C172      1.0  0.85920  0.95690  0.50300  1.0000
  C   C173      1.0  0.35920  0.54310  0.00300  1.0000
  C   C174      1.0  0.64080  0.54310  0.49700  1.0000
  C   C175      1.0  0.85920  0.04310  0.00300  1.0000
  C   C176      1.0  0.14080  0.04310  0.49700  1.0000
  C   C177      1.0  0.56810  0.45620  0.96900  1.0000
  C   C178      1.0  0.43190  0.45620  0.53100  1.0000
  C   C179      1.0  0.06810  0.95620  0.96900  1.0000
  C   C180      1.0  0.93190  0.95620  0.53100  1.0000
  C   C181      1.0  0.43190  0.54380  0.03100  1.0000
  C   C182      1.0  0.56810  0.54380  0.46900  1.0000
  C   C183      1.0  0.93190  0.04380  0.03100  1.0000
  C   C184      1.0  0.06810  0.04380  0.46900  1.0000
  H   H73       1.0  0.53770  0.42980  0.98360  1.0000
  H   H74       1.0  0.46230  0.42980  0.51640  1.0000
  H   H75       1.0  0.03770  0.92980  0.98360  1.0000
  H   H76       1.0  0.96230  0.92980  0.51640  1.0000
  H   H77       1.0  0.46230  0.57020  0.01640  1.0000
  H   H78       1.0  0.53770  0.57020  0.48360  1.0000
  H   H79       1.0  0.96230  0.07020  0.01640  1.0000
  H   H80       1.0  0.03770  0.07020  0.48360  1.0000
  C   C185      1.0  0.53930  0.49350  0.92040  1.0000
  C   C186      1.0  0.46070  0.49350  0.57960  1.0000
  C   C187      1.0  0.03930  0.99350  0.92040  1.0000
  C   C188      1.0  0.96070  0.99350  0.57960  1.0000
  C   C189      1.0  0.46070  0.50650  0.07960  1.0000
  C   C190      1.0  0.53930  0.50650  0.42040  1.0000
  C   C191      1.0  0.96070  0.00650  0.07960  1.0000
  C   C192      1.0  0.03930  0.00650  0.42040  1.0000
  H   H81       1.0  0.49010  0.49230  0.90250  1.0000
  H   H82       1.0  0.50990  0.49230  0.59750  1.0000
  H   H83       1.0  0.99010  0.99230  0.90250  1.0000
  H   H84       1.0  0.00990  0.99230  0.59750  1.0000
  H   H85       1.0  0.50990  0.50770  0.09750  1.0000
  H   H86       1.0  0.49010  0.50770  0.40250  1.0000
  H   H87       1.0  0.00990  0.00770  0.09750  1.0000
  H   H88       1.0  0.99010  0.00770  0.40250  1.0000
  C   C193      1.0  0.58460  0.53300  0.89810  1.0000
  C   C194      1.0  0.41540  0.53300  0.60190  1.0000
  C   C195      1.0  0.08460  0.03300  0.89810  1.0000
  C   C196      1.0  0.91540  0.03300  0.60190  1.0000
  C   C197      1.0  0.41540  0.46700  0.10190  1.0000
  C   C198      1.0  0.58460  0.46700  0.39810  1.0000
  C   C199      1.0  0.91540  0.96700  0.10190  1.0000
  C   C200      1.0  0.08460  0.96700  0.39810  1.0000
  C   C201      1.0  0.65700  0.53470  0.92640  1.0000
  C   C202      1.0  0.34300  0.53470  0.57360  1.0000
  C   C203      1.0  0.15700  0.03470  0.92640  1.0000
  C   C204      1.0  0.84300  0.03470  0.57360  1.0000
  C   C205      1.0  0.34300  0.46530  0.07360  1.0000
  C   C206      1.0  0.65700  0.46530  0.42640  1.0000
  C   C207      1.0  0.84300  0.96530  0.07360  1.0000
  C   C208      1.0  0.15700  0.96530  0.42640  1.0000
  H   H89       1.0  0.68710  0.56140  0.91220  1.0000
  H   H90       1.0  0.31290  0.56140  0.58780  1.0000
  H   H91       1.0  0.18710  0.06140  0.91220  1.0000
  H   H92       1.0  0.81290  0.06140  0.58780  1.0000
  H   H93       1.0  0.31290  0.43860  0.08780  1.0000
  H   H94       1.0  0.68710  0.43860  0.41220  1.0000
  H   H95       1.0  0.81290  0.93860  0.08780  1.0000
  H   H96       1.0  0.18710  0.93860  0.41220  1.0000
  C   C209      1.0  0.68570  0.49710  0.97580  1.0000
  C   C210      1.0  0.31430  0.49710  0.52420  1.0000
  C   C211      1.0  0.18570  0.99710  0.97580  1.0000
  C   C212      1.0  0.81430  0.99710  0.52420  1.0000
  C   C213      1.0  0.31430  0.50290  0.02420  1.0000
  C   C214      1.0  0.68570  0.50290  0.47580  1.0000
  C   C215      1.0  0.81430  0.00290  0.02420  1.0000
  C   C216      1.0  0.18570  0.00290  0.47580  1.0000
  C   C217      1.0  0.76630  0.49920  0.00060  1.0000
  C   C218      1.0  0.23370  0.49920  0.49940  1.0000
  C   C219      1.0  0.26630  0.99920  0.00060  1.0000
  C   C220      1.0  0.73370  0.99920  0.49940  1.0000
  C   C221      1.0  0.23370  0.50080  0.99940  1.0000
  C   C222      1.0  0.76630  0.50080  0.50060  1.0000
  C   C223      1.0  0.73370  0.00080  0.99940  1.0000
  C   C224      1.0  0.26630  0.00080  0.50060  1.0000
  C   C225      1.0  0.55470  0.57360  0.84460  1.0000
  C   C226      1.0  0.44530  0.57360  0.65540  1.0000
  C   C227      1.0  0.05470  0.07360  0.84460  1.0000
  C   C228      1.0  0.94530  0.07360  0.65540  1.0000
  C   C229      1.0  0.44530  0.42640  0.15540  1.0000
  C   C230      1.0  0.55470  0.42640  0.34460  1.0000
  C   C231      1.0  0.94530  0.92640  0.15540  1.0000
  C   C232      1.0  0.05470  0.92640  0.34460  1.0000
