data_image0
_chemical_formula_structural       V16Co8O64C8
_chemical_formula_sum              "V16 Co8 O64 C8"
_cell_length_a       11.527
_cell_length_b       9.9476
_cell_length_c       14.78
_cell_angle_alpha    90
_cell_angle_beta     90
_cell_angle_gamma    90

_space_group_name_H-M_alt    "P 1"
_space_group_IT_number       1

loop_
  _space_group_symop_operation_xyz
  'x, y, z'

loop_
  _atom_site_type_symbol
  _atom_site_label
  _atom_site_symmetry_multiplicity
  _atom_site_fract_x
  _atom_site_fract_y
  _atom_site_fract_z
  _atom_site_occupancy
  V   V1        1.0  0.35784  0.23749  0.36394  1.0000
  V   V2        1.0  0.85784  0.73749  0.36394  1.0000
  V   V3        1.0  0.35784  0.23749  0.13606  1.0000
  V   V4        1.0  0.35784  0.76251  0.86394  1.0000
  V   V5        1.0  0.64216  0.23749  0.36394  1.0000
  V   V6        1.0  0.85784  0.73749  0.13606  1.0000
  V   V7        1.0  0.85784  0.26251  0.86394  1.0000
  V   V8        1.0  0.14216  0.73749  0.36394  1.0000
  V   V9        1.0  0.64216  0.76251  0.63606  1.0000
  V   V10       1.0  0.14216  0.26251  0.63606  1.0000
  V   V11       1.0  0.64216  0.76251  0.86394  1.0000
  V   V12       1.0  0.64216  0.23749  0.13606  1.0000
  V   V13       1.0  0.35784  0.76251  0.63606  1.0000
  V   V14       1.0  0.14216  0.26251  0.86394  1.0000
  V   V15       1.0  0.14216  0.73749  0.13606  1.0000
  V   V16       1.0  0.85784  0.26251  0.63606  1.0000
  Co  Co1       1.0  0.23440  0.00000  0.50000  1.0000
  Co  Co2       1.0  0.73440  0.50000  0.50000  1.0000
  Co  Co3       1.0  0.23440  0.00000  0.00000  1.0000
  Co  Co4       1.0  0.76560  0.00000  0.50000  1.0000
  Co  Co5       1.0  0.73440  0.50000  0.00000  1.0000
  Co  Co6       1.0  0.26560  0.50000  0.50000  1.0000
  Co  Co7       1.0  0.76560  0.00000  0.00000  1.0000
  Co  Co8       1.0  0.26560  0.50000  0.00000  1.0000
  O   O1        1.0  0.32760  0.19170  0.25000  1.0000
  O   O2        1.0  0.82760  0.69170  0.25000  1.0000
  O   O3        1.0  0.32760  0.80830  0.75000  1.0000
  O   O4        1.0  0.67240  0.19170  0.25000  1.0000
  O   O5        1.0  0.82760  0.30830  0.75000  1.0000
  O   O6        1.0  0.17240  0.69170  0.25000  1.0000
  O   O7        1.0  0.67240  0.80830  0.75000  1.0000
  O   O8        1.0  0.17240  0.30830  0.75000  1.0000
  O   O9        1.0  0.50000  0.69150  0.63110  1.0000
  O   O10       1.0  0.00000  0.19150  0.63110  1.0000
  O   O11       1.0  0.50000  0.69150  0.86890  1.0000
  O   O12       1.0  0.50000  0.30850  0.13110  1.0000
  O   O13       1.0  0.00000  0.19150  0.86890  1.0000
  O   O14       1.0  0.00000  0.80850  0.13110  1.0000
  O   O15       1.0  0.50000  0.30850  0.36890  1.0000
  O   O16       1.0  0.00000  0.80850  0.36890  1.0000
  O   O17       1.0  0.35730  0.09920  0.42641  1.0000
  O   O18       1.0  0.85730  0.59920  0.42641  1.0000
  O   O19       1.0  0.35730  0.09920  0.07359  1.0000
  O   O20       1.0  0.35730  0.90080  0.92641  1.0000
  O   O21       1.0  0.64270  0.09920  0.42641  1.0000
  O   O22       1.0  0.85730  0.59920  0.07359  1.0000
  O   O23       1.0  0.85730  0.40080  0.92641  1.0000
  O   O24       1.0  0.14270  0.59920  0.42641  1.0000
  O   O25       1.0  0.64270  0.90080  0.57359  1.0000
  O   O26       1.0  0.14270  0.40080  0.57359  1.0000
  O   O27       1.0  0.64270  0.90080  0.92641  1.0000
  O   O28       1.0  0.64270  0.09920  0.07359  1.0000
  O   O29       1.0  0.35730  0.90080  0.57359  1.0000
  O   O30       1.0  0.14270  0.40080  0.92641  1.0000
  O   O31       1.0  0.14270  0.59920  0.07359  1.0000
  O   O32       1.0  0.85730  0.40080  0.57359  1.0000
  O   O33       1.0  0.23690  0.15290  0.59781  1.0000
  O   O34       1.0  0.73690  0.65290  0.59781  1.0000
  O   O35       1.0  0.23690  0.15290  0.90219  1.0000
  O   O36       1.0  0.23690  0.84710  0.09781  1.0000
  O   O37       1.0  0.76310  0.15290  0.59781  1.0000
  O   O38       1.0  0.73690  0.65290  0.90219  1.0000
  O   O39       1.0  0.73690  0.34710  0.09781  1.0000
  O   O40       1.0  0.26310  0.65290  0.59781  1.0000
  O   O41       1.0  0.76310  0.84710  0.40219  1.0000
  O   O42       1.0  0.26310  0.34710  0.40219  1.0000
  O   O43       1.0  0.76310  0.84710  0.09781  1.0000
  O   O44       1.0  0.76310  0.15290  0.90219  1.0000
  O   O45       1.0  0.23690  0.84710  0.40219  1.0000
  O   O46       1.0  0.26310  0.34710  0.09781  1.0000
  O   O47       1.0  0.26310  0.65290  0.90219  1.0000
  O   O48       1.0  0.73690  0.34710  0.40219  1.0000
  O   O49       1.0  0.09650  0.09760  0.43676  1.0000
  O   O50       1.0  0.59650  0.59760  0.43676  1.0000
  O   O51       1.0  0.09650  0.09760  0.06324  1.0000
  O   O52       1.0  0.09650  0.90240  0.93676  1.0000
  O   O53       1.0  0.90350  0.09760  0.43676  1.0000
  O   O54       1.0  0.59650  0.59760  0.06324  1.0000
  O   O55       1.0  0.59650  0.40240  0.93676  1.0000
  O   O56       1.0  0.40350  0.59760  0.43676  1.0000
  O   O57       1.0  0.90350  0.90240  0.56324  1.0000
  O   O58       1.0  0.40350  0.40240  0.56324  1.0000
  O   O59       1.0  0.90350  0.90240  0.93676  1.0000
  O   O60       1.0  0.90350  0.09760  0.06324  1.0000
  O   O61       1.0  0.09650  0.90240  0.56324  1.0000
  O   O62       1.0  0.40350  0.40240  0.93676  1.0000
  O   O63       1.0  0.40350  0.59760  0.06324  1.0000
  O   O64       1.0  0.59650  0.40240  0.56324  1.0000
  C   C1        1.0  0.00000  0.05560  0.46350  1.0000
  C   C2        1.0  0.50000  0.55560  0.46350  1.0000
  C   C3        1.0  0.00000  0.05560  0.03650  1.0000
  C   C4        1.0  0.00000  0.94440  0.96350  1.0000
  C   C5        1.0  0.50000  0.55560  0.03650  1.0000
  C   C6        1.0  0.50000  0.44440  0.96350  1.0000
  C   C7        1.0  0.00000  0.94440  0.53650  1.0000
  C   C8        1.0  0.50000  0.44440  0.53650  1.0000
