data_image0
_chemical_formula_structural       CuP4O14H2C2H6C2Cu2O4H8
_chemical_formula_sum              "Cu3 P4 O18 H16 C4"
_cell_length_a       6.2476
_cell_length_b       8.9106
_cell_length_c       11.0694
_cell_angle_alpha    102.326
_cell_angle_beta     104.777
_cell_angle_gamma    104.309

_space_group_name_H-M_alt    "P 1"
_space_group_IT_number       1

loop_
  _space_group_symop_operation_xyz
  'x, y, z'

loop_
  _atom_site_type_symbol
  _atom_site_label
  _atom_site_symmetry_multiplicity
  _atom_site_fract_x
  _atom_site_fract_y
  _atom_site_fract_z
  _atom_site_occupancy
  Cu  Cu1       1.0  0.50000  0.00000  0.00000  1.0000
  P   P1        1.0  0.51178  0.76811  0.16582  1.0000
  P   P2        1.0  0.48822  0.23189  0.83418  1.0000
  P   P3        1.0  0.92936  0.05993  0.23129  1.0000
  P   P4        1.0  0.07064  0.94007  0.76871  1.0000
  O   O1        1.0  0.67040  0.66700  0.19730  1.0000
  O   O2        1.0  0.32960  0.33300  0.80270  1.0000
  O   O3        1.0  0.29380  0.70510  0.20160  1.0000
  O   O4        1.0  0.70620  0.29490  0.79840  1.0000
  O   O5        1.0  0.46030  0.77730  0.02480  1.0000
  O   O6        1.0  0.53970  0.22270  0.97520  1.0000
  O   O7        1.0  0.83630  0.06300  0.08960  1.0000
  O   O8        1.0  0.16370  0.93700  0.91040  1.0000
  O   O9        1.0  0.06820  0.93960  0.24110  1.0000
  O   O10       1.0  0.93180  0.06040  0.75890  1.0000
  O   O11       1.0  0.06860  0.22330  0.32720  1.0000
  O   O12       1.0  0.93140  0.77670  0.67280  1.0000
  O   O13       1.0  0.51270  0.07270  0.22970  1.0000
  O   O14       1.0  0.48730  0.92730  0.77030  1.0000
  H   H1        1.0  0.38710  0.03770  0.24070  1.0000
  H   H2        1.0  0.61290  0.96230  0.75930  1.0000
  C   C1        1.0  0.71130  0.98660  0.41270  1.0000
  C   C2        1.0  0.28870  0.01340  0.58730  1.0000
  H   H3        1.0  0.81110  0.92340  0.43540  1.0000
  H   H4        1.0  0.18890  0.07660  0.56460  1.0000
  H   H5        1.0  0.56670  0.94460  0.42790  1.0000
  H   H6        1.0  0.43330  0.05540  0.57210  1.0000
  H   H7        1.0  0.78670  0.09740  0.46560  1.0000
  H   H8        1.0  0.21330  0.90260  0.53440  1.0000
  C   C3        1.0  0.66310  0.97760  0.26980  1.0000
  C   C4        1.0  0.33690  0.02240  0.73020  1.0000
  Cu  Cu2       1.0  0.97592  0.70479  0.17821  1.0000
  Cu  Cu3       1.0  0.02408  0.29521  0.82179  1.0000
  O   O15       1.0  0.91530  0.47100  0.15110  1.0000
  O   O16       1.0  0.08470  0.52900  0.84890  1.0000
  O   O17       1.0  0.84590  0.70540  0.95860  1.0000
  O   O18       1.0  0.15410  0.29460  0.04140  1.0000
  H   H9        1.0  0.72000  0.71000  0.96000  1.0000
  H   H10       1.0  0.28000  0.29000  0.04000  1.0000
  H   H11       1.0  0.99200  0.42700  0.11200  1.0000
  H   H12       1.0  0.00800  0.57300  0.88800  1.0000
  H   H13       1.0  0.79500  0.41700  0.10600  1.0000
  H   H14       1.0  0.20500  0.58300  0.89400  1.0000
  H   H15       1.0  0.93500  0.77800  0.94800  1.0000
  H   H16       1.0  0.06500  0.22200  0.05200  1.0000
