data_image0
_chemical_formula_structural       Cu3P4O4H4O4H4O10H2C4H6
_chemical_formula_sum              "Cu3 P4 O18 H16 C4"
_cell_length_a       6.2379
_cell_length_b       8.8896
_cell_length_c       11.0494
_cell_angle_alpha    102.296
_cell_angle_beta     104.79
_cell_angle_gamma    104.353

_space_group_name_H-M_alt    "P 1"
_space_group_IT_number       1

loop_
  _space_group_symop_operation_xyz
  'x, y, z'

loop_
  _atom_site_type_symbol
  _atom_site_label
  _atom_site_symmetry_multiplicity
  _atom_site_fract_x
  _atom_site_fract_y
  _atom_site_fract_z
  _atom_site_occupancy
  Cu  Cu1       1.0  0.50000  0.00000  0.50000  1.0000
  Cu  Cu2       1.0  0.97614  0.70494  0.67831  1.0000
  Cu  Cu3       1.0  0.02386  0.29506  0.32169  1.0000
  P   P1        1.0  0.51177  0.76834  0.66591  1.0000
  P   P2        1.0  0.48823  0.23166  0.33409  1.0000
  P   P3        1.0  0.92919  0.05995  0.73117  1.0000
  P   P4        1.0  0.07081  0.94005  0.26883  1.0000
  O   O1        1.0  0.45950  0.77700  0.52440  1.0000
  O   O2        1.0  0.54050  0.22300  0.47560  1.0000
  O   O3        1.0  0.84490  0.70530  0.45860  1.0000
  O   O4        1.0  0.15510  0.29470  0.54140  1.0000
  H   H1        1.0  0.94560  0.78320  0.44150  1.0000
  H   H2        1.0  0.05440  0.21680  0.55850  1.0000
  H   H3        1.0  0.70680  0.71660  0.46140  1.0000
  H   H4        1.0  0.29320  0.28340  0.53860  1.0000
  O   O5        1.0  0.67060  0.66620  0.69700  1.0000
  O   O6        1.0  0.32940  0.33380  0.30300  1.0000
  O   O7        1.0  0.91580  0.47080  0.65020  1.0000
  O   O8        1.0  0.08420  0.52920  0.34980  1.0000
  H   H5        1.0  0.76580  0.41110  0.60160  1.0000
  H   H6        1.0  0.23420  0.58890  0.39840  1.0000
  H   H7        1.0  0.02710  0.43180  0.63040  1.0000
  H   H8        1.0  0.97290  0.56820  0.36960  1.0000
  O   O9        1.0  0.29380  0.70530  0.70170  1.0000
  O   O10       1.0  0.70620  0.29470  0.29830  1.0000
  O   O11       1.0  0.83680  0.06260  0.58920  1.0000
  O   O12       1.0  0.16320  0.93740  0.41080  1.0000
  O   O13       1.0  0.06820  0.93940  0.74090  1.0000
  O   O14       1.0  0.93180  0.06060  0.25910  1.0000
  O   O15       1.0  0.06780  0.22360  0.82740  1.0000
  O   O16       1.0  0.93220  0.77640  0.17260  1.0000
  O   O17       1.0  0.51240  0.07230  0.72960  1.0000
  O   O18       1.0  0.48760  0.92770  0.27040  1.0000
  H   H9        1.0  0.36900  0.03900  0.73500  1.0000
  H   H10       1.0  0.63100  0.96100  0.26500  1.0000
  C   C1        1.0  0.66180  0.97780  0.76960  1.0000
  C   C2        1.0  0.33820  0.02220  0.23040  1.0000
  C   C3        1.0  0.70910  0.98670  0.91250  1.0000
  C   C4        1.0  0.29090  0.01330  0.08750  1.0000
  H   H11       1.0  0.56430  0.94200  0.92690  1.0000
  H   H12       1.0  0.43570  0.05800  0.07310  1.0000
  H   H13       1.0  0.78090  0.09810  0.96520  1.0000
  H   H14       1.0  0.21910  0.90190  0.03480  1.0000
  H   H15       1.0  0.81210  0.92580  0.93600  1.0000
  H   H16       1.0  0.18790  0.07420  0.06400  1.0000
