data_image0
_chemical_formula_structural       In4P2H2P2H2P2H2O30C6
_chemical_formula_sum              "In4 P6 H6 O30 C6"
_cell_length_a       6.564
_cell_length_b       9.346
_cell_length_c       17.98
_cell_angle_alpha    100.366
_cell_angle_beta     93.17
_cell_angle_gamma    104.108

_space_group_name_H-M_alt    "P 1"
_space_group_IT_number       1

loop_
  _space_group_symop_operation_xyz
  'x, y, z'

loop_
  _atom_site_type_symbol
  _atom_site_label
  _atom_site_symmetry_multiplicity
  _atom_site_fract_x
  _atom_site_fract_y
  _atom_site_fract_z
  _atom_site_occupancy
  In  In1       1.0  0.41246  0.04229  0.34741  1.0000
  In  In2       1.0  0.58754  0.95771  0.65259  1.0000
  In  In3       1.0  0.76337  0.66097  0.23184  1.0000
  In  In4       1.0  0.23663  0.33903  0.76816  1.0000
  P   P1        1.0  0.28120  0.73100  0.20860  1.0000
  P   P2        1.0  0.71880  0.26900  0.79140  1.0000
  H   H1        1.0  0.29920  0.72710  0.15460  1.0000
  H   H2        1.0  0.70080  0.27290  0.84540  1.0000
  P   P3        1.0  0.89910  0.97550  0.36780  1.0000
  P   P4        1.0  0.10090  0.02450  0.63220  1.0000
  H   H3        1.0  0.86990  0.97640  0.42070  1.0000
  H   H4        1.0  0.13010  0.02360  0.57930  1.0000
  P   P5        1.0  0.50630  0.38420  0.31400  1.0000
  P   P6        1.0  0.49370  0.61580  0.68600  1.0000
  H   H5        1.0  0.38210  0.40900  0.29230  1.0000
  H   H6        1.0  0.61790  0.59100  0.70770  1.0000
  O   O1        1.0  0.47840  0.21430  0.28560  1.0000
  O   O2        1.0  0.52160  0.78570  0.71440  1.0000
  O   O3        1.0  0.12060  0.07870  0.37160  1.0000
  O   O4        1.0  0.87940  0.92130  0.62840  1.0000
  O   O5        1.0  0.73080  0.03630  0.33260  1.0000
  O   O6        1.0  0.26920  0.96370  0.66740  1.0000
  O   O7        1.0  0.28700  0.89120  0.24170  1.0000
  O   O8        1.0  0.71300  0.10880  0.75830  1.0000
  O   O9        1.0  0.53770  0.16790  0.46780  1.0000
  O   O10       1.0  0.46230  0.83210  0.53220  1.0000
  O   O11       1.0  0.61400  0.13180  0.58160  1.0000
  O   O12       1.0  0.38600  0.86820  0.41840  1.0000
  O   O13       1.0  0.69830  0.46770  0.27940  1.0000
  O   O14       1.0  0.30170  0.53230  0.72060  1.0000
  O   O15       1.0  0.44540  0.66310  0.23900  1.0000
  O   O16       1.0  0.55460  0.33690  0.76100  1.0000
  O   O17       1.0  0.06700  0.62440  0.21140  1.0000
  O   O18       1.0  0.93300  0.37560  0.78860  1.0000
  O   O19       1.0  0.78810  0.82050  0.15340  1.0000
  O   O20       1.0  0.21190  0.17950  0.84660  1.0000
  O   O21       1.0  0.68400  0.51900  0.11700  1.0000
  O   O22       1.0  0.31600  0.48100  0.88300  1.0000
  O   O23       1.0  0.89200  0.81410  0.33390  1.0000
  O   O24       1.0  0.10800  0.18590  0.66610  1.0000
  O   O25       1.0  0.51100  0.42410  0.39830  1.0000
  O   O26       1.0  0.48900  0.57590  0.60170  1.0000
  O   O27       1.0  0.76900  0.53330  0.00000  1.0000
  O   O28       1.0  0.23100  0.46670  0.00000  1.0000
  O   O29       1.0  0.79600  0.83510  0.03080  1.0000
  O   O30       1.0  0.20400  0.16490  0.96920  1.0000
  C   C1        1.0  0.74000  0.58930  0.06270  1.0000
  C   C2        1.0  0.26000  0.41070  0.93730  1.0000
  C   C3        1.0  0.77600  0.76300  0.08180  1.0000
  C   C4        1.0  0.22400  0.23700  0.91820  1.0000
  C   C5        1.0  0.54600  0.08420  0.51240  1.0000
  C   C6        1.0  0.45400  0.91580  0.48760  1.0000
