data_image0
_chemical_formula_structural       H8In4S4O36C8
_chemical_formula_sum              "H8 In4 S4 O36 C8"
_cell_length_a       6.4779
_cell_length_b       11.067
_cell_length_c       14.317
_cell_angle_alpha    90
_cell_angle_beta     100.302
_cell_angle_gamma    90

_space_group_name_H-M_alt    "P 1"
_space_group_IT_number       1

loop_
  _space_group_symop_operation_xyz
  'x, y, z'

loop_
  _atom_site_type_symbol
  _atom_site_label
  _atom_site_symmetry_multiplicity
  _atom_site_fract_x
  _atom_site_fract_y
  _atom_site_fract_z
  _atom_site_occupancy
  H   H1        1.0  0.07700  0.38100  0.51400  1.0000
  H   H2        1.0  0.92300  0.88100  0.98600  1.0000
  H   H3        1.0  0.92300  0.61900  0.48600  1.0000
  H   H4        1.0  0.07700  0.11900  0.01400  1.0000
  H   H5        1.0  0.23200  0.47600  0.49400  1.0000
  H   H6        1.0  0.76800  0.97600  0.00600  1.0000
  H   H7        1.0  0.76800  0.52400  0.50600  1.0000
  H   H8        1.0  0.23200  0.02400  0.99400  1.0000
  In  In1       1.0  0.04966  0.41004  0.31403  1.0000
  In  In2       1.0  0.95034  0.91004  0.18597  1.0000
  In  In3       1.0  0.95034  0.58996  0.68597  1.0000
  In  In4       1.0  0.04966  0.08996  0.81403  1.0000
  S   S1        1.0  0.56333  0.36750  0.34911  1.0000
  S   S2        1.0  0.43667  0.86750  0.15089  1.0000
  S   S3        1.0  0.43667  0.63250  0.65089  1.0000
  S   S4        1.0  0.56333  0.13250  0.84911  1.0000
  O   O1        1.0  0.71350  0.40370  0.28588  1.0000
  O   O2        1.0  0.28650  0.90370  0.21412  1.0000
  O   O3        1.0  0.28650  0.59630  0.71412  1.0000
  O   O4        1.0  0.71350  0.09630  0.78588  1.0000
  O   O5        1.0  0.37660  0.44770  0.31976  1.0000
  O   O6        1.0  0.62340  0.94770  0.18024  1.0000
  O   O7        1.0  0.62340  0.55230  0.68024  1.0000
  O   O8        1.0  0.37660  0.05230  0.81976  1.0000
  O   O9        1.0  0.15960  0.40589  0.46938  1.0000
  O   O10       1.0  0.84040  0.90589  0.03062  1.0000
  O   O11       1.0  0.84040  0.59411  0.53062  1.0000
  O   O12       1.0  0.15960  0.09411  0.96938  1.0000
  O   O13       1.0  0.03160  0.22003  0.36379  1.0000
  O   O14       1.0  0.96840  0.72003  0.13621  1.0000
  O   O15       1.0  0.96840  0.77997  0.63621  1.0000
  O   O16       1.0  0.03160  0.27997  0.86379  1.0000
  O   O17       1.0  0.98390  0.03090  0.31309  1.0000
  O   O18       1.0  0.01610  0.53090  0.18691  1.0000
  O   O19       1.0  0.01610  0.96910  0.68691  1.0000
  O   O20       1.0  0.98390  0.46910  0.81309  1.0000
  O   O21       1.0  0.04500  0.29270  0.18617  1.0000
  O   O22       1.0  0.95500  0.79270  0.31383  1.0000
  O   O23       1.0  0.95500  0.70730  0.81383  1.0000
  O   O24       1.0  0.04500  0.20730  0.68617  1.0000
  O   O25       1.0  0.99510  0.10192  0.13605  1.0000
  O   O26       1.0  0.00490  0.60192  0.36395  1.0000
  O   O27       1.0  0.00490  0.89808  0.86395  1.0000
  O   O28       1.0  0.99510  0.39808  0.63605  1.0000
  O   O29       1.0  0.65690  0.38720  0.44788  1.0000
  O   O30       1.0  0.34310  0.88720  0.05212  1.0000
  O   O31       1.0  0.34310  0.61280  0.55212  1.0000
  O   O32       1.0  0.65690  0.11280  0.94788  1.0000
  O   O33       1.0  0.49840  0.24200  0.33146  1.0000
  O   O34       1.0  0.50160  0.74200  0.16854  1.0000
  O   O35       1.0  0.50160  0.75800  0.66854  1.0000
  O   O36       1.0  0.49840  0.25800  0.83146  1.0000
  C   C1        1.0  0.01600  0.18280  0.19820  1.0000
  C   C2        1.0  0.98400  0.68280  0.30180  1.0000
  C   C3        1.0  0.98400  0.81720  0.80180  1.0000
  C   C4        1.0  0.01600  0.31720  0.69820  1.0000
  C   C5        1.0  0.00900  0.14060  0.30010  1.0000
  C   C6        1.0  0.99100  0.64060  0.19990  1.0000
  C   C7        1.0  0.99100  0.85940  0.69990  1.0000
  C   C8        1.0  0.00900  0.35940  0.80010  1.0000
