data_image0
_chemical_formula_structural       Cd4O4F4O12F12O8F28C4F8C12F8C68
_chemical_formula_sum              "Cd4 O24 F60 C84"
_cell_length_a       15.6961
_cell_length_b       7.764
_cell_length_c       26.2157
_cell_angle_alpha    90
_cell_angle_beta     97.009
_cell_angle_gamma    90

_space_group_name_H-M_alt    "P 1"
_space_group_IT_number       1

loop_
  _space_group_symop_operation_xyz
  'x, y, z'

loop_
  _atom_site_type_symbol
  _atom_site_label
  _atom_site_symmetry_multiplicity
  _atom_site_fract_x
  _atom_site_fract_y
  _atom_site_fract_z
  _atom_site_occupancy
  Cd  Cd1       1.0  0.50245  0.49217  0.75925  1.0000
  Cd  Cd2       1.0  0.49755  0.99217  0.74075  1.0000
  Cd  Cd3       1.0  0.49755  0.50783  0.24075  1.0000
  Cd  Cd4       1.0  0.50245  0.00783  0.25925  1.0000
  O   O1        1.0  0.56960  0.73480  0.72826  1.0000
  O   O2        1.0  0.43040  0.23480  0.77174  1.0000
  O   O3        1.0  0.43040  0.26520  0.27174  1.0000
  O   O4        1.0  0.56960  0.76520  0.22826  1.0000
  F   F1        1.0  0.47470  0.86710  0.93763  1.0000
  F   F2        1.0  0.52530  0.36710  0.56237  1.0000
  F   F3        1.0  0.52530  0.13290  0.06237  1.0000
  F   F4        1.0  0.47470  0.63290  0.43763  1.0000
  O   O5        1.0  0.62090  0.08890  0.78611  1.0000
  O   O6        1.0  0.37910  0.58890  0.71389  1.0000
  O   O7        1.0  0.37910  0.91110  0.21389  1.0000
  O   O8        1.0  0.62090  0.41110  0.28611  1.0000
  O   O9        1.0  0.46980  0.87650  0.81654  1.0000
  O   O10       1.0  0.53020  0.37650  0.68346  1.0000
  O   O11       1.0  0.53020  0.12350  0.18346  1.0000
  O   O12       1.0  0.46980  0.62350  0.31654  1.0000
  O   O13       1.0  0.44980  0.59730  0.82869  1.0000
  O   O14       1.0  0.55020  0.09730  0.67131  1.0000
  O   O15       1.0  0.55020  0.40270  0.17131  1.0000
  O   O16       1.0  0.44980  0.90270  0.32869  1.0000
  F   F5        1.0  0.80090  0.04570  0.78257  1.0000
  F   F6        1.0  0.19910  0.54570  0.71743  1.0000
  F   F7        1.0  0.19910  0.95430  0.21743  1.0000
  F   F8        1.0  0.80090  0.45430  0.28257  1.0000
  F   F9        1.0  0.48400  0.70420  0.63063  1.0000
  F   F10       1.0  0.51600  0.20420  0.86937  1.0000
  F   F11       1.0  0.51600  0.29580  0.36937  1.0000
  F   F12       1.0  0.48400  0.79580  0.13063  1.0000
  F   F13       1.0  0.67720  0.36890  0.90652  1.0000
  F   F14       1.0  0.32280  0.86890  0.59348  1.0000
  F   F15       1.0  0.32280  0.63110  0.09348  1.0000
  F   F16       1.0  0.67720  0.13110  0.40652  1.0000
  O   O17       1.0  0.62420  0.37560  0.79836  1.0000
  O   O18       1.0  0.37580  0.87560  0.70164  1.0000
  O   O19       1.0  0.37580  0.62440  0.20164  1.0000
  O   O20       1.0  0.62420  0.12440  0.29836  1.0000
  O   O21       1.0  0.70160  0.63440  0.72562  1.0000
  O   O22       1.0  0.29840  0.13440  0.77438  1.0000
  O   O23       1.0  0.29840  0.36560  0.27438  1.0000
  O   O24       1.0  0.70160  0.86560  0.22562  1.0000
  F   F17       1.0  0.48220  0.80540  0.53421  1.0000
  F   F18       1.0  0.51780  0.30540  0.96579  1.0000
  F   F19       1.0  0.51780  0.19460  0.46579  1.0000
  F   F20       1.0  0.48220  0.69460  0.03421  1.0000
  F   F21       1.0  0.35560  0.97020  0.99771  1.0000
  F   F22       1.0  0.64440  0.47020  0.50229  1.0000
  F   F23       1.0  0.64440  0.02980  0.00229  1.0000
  F   F24       1.0  0.35560  0.52980  0.49771  1.0000
  F   F25       1.0  0.77970  0.82450  0.66080  1.0000
  F   F26       1.0  0.22030  0.32450  0.83920  1.0000
  F   F27       1.0  0.22030  0.17550  0.33920  1.0000
  F   F28       1.0  0.77970  0.67550  0.16080  1.0000
  F   F29       1.0  0.25600  0.74310  0.80443  1.0000
  F   F30       1.0  0.74400  0.24310  0.69557  1.0000
  F   F31       1.0  0.74400  0.25690  0.19557  1.0000
  F   F32       1.0  0.25600  0.75690  0.30443  1.0000
  F   F33       1.0  0.63000  0.91430  0.49933  1.0000
  F   F34       1.0  0.37000  0.41430  0.00067  1.0000
  F   F35       1.0  0.37000  0.08570  0.50067  1.0000
  F   F36       1.0  0.63000  0.58570  0.99933  1.0000
  F   F37       1.0  0.18820  0.96560  0.96032  1.0000
  F   F38       1.0  0.81180  0.46560  0.53968  1.0000
  F   F39       1.0  0.81180  0.03440  0.03968  1.0000
  F   F40       1.0  0.18820  0.53440  0.46032  1.0000
  F   F41       1.0  0.82030  0.33480  0.97143  1.0000
  F   F42       1.0  0.17970  0.83480  0.52857  1.0000
  F   F43       1.0  0.17970  0.66520  0.02857  1.0000
  F   F44       1.0  0.82030  0.16520  0.47143  1.0000
  C   C1        1.0  0.39110  0.85620  0.91930  1.0000
  C   C2        1.0  0.60890  0.35620  0.58070  1.0000
  C   C3        1.0  0.60890  0.14380  0.08070  1.0000
  C   C4        1.0  0.39110  0.64380  0.41930  1.0000
  F   F45       1.0  0.77650  0.92390  0.56328  1.0000
  F   F46       1.0  0.22350  0.42390  0.93672  1.0000
  F   F47       1.0  0.22350  0.07610  0.43672  1.0000
  F   F48       1.0  0.77650  0.57610  0.06328  1.0000
  F   F49       1.0  0.94530  0.01910  0.84710  1.0000
  F   F50       1.0  0.05470  0.51910  0.65290  1.0000
  F   F51       1.0  0.05470  0.98090  0.15290  1.0000
  F   F52       1.0  0.94530  0.48090  0.34710  1.0000
  C   C5        1.0  0.65190  0.22810  0.80490  1.0000
  C   C6        1.0  0.34810  0.72810  0.69510  1.0000
  C   C7        1.0  0.34810  0.77190  0.19510  1.0000
  C   C8        1.0  0.65190  0.27190  0.30490  1.0000
  C   C9        1.0  0.63210  0.75890  0.65026  1.0000
  C   C10       1.0  0.36790  0.25890  0.84974  1.0000
  C   C11       1.0  0.36790  0.24110  0.34974  1.0000
  C   C12       1.0  0.63210  0.74110  0.15026  1.0000
  C   C13       1.0  0.63510  0.70410  0.70544  1.0000
  C   C14       1.0  0.36490  0.20410  0.79456  1.0000
  C   C15       1.0  0.36490  0.29590  0.29456  1.0000
  C   C16       1.0  0.63510  0.79590  0.20544  1.0000
  F   F53       1.0  0.95590  0.16080  0.94220  1.0000
  F   F54       1.0  0.04410  0.66080  0.55780  1.0000
  F   F55       1.0  0.04410  0.83920  0.05780  1.0000
  F   F56       1.0  0.95590  0.33920  0.44220  1.0000
  F   F57       1.0  0.13850  0.85370  0.86360  1.0000
  F   F58       1.0  0.86150  0.35370  0.63640  1.0000
  F   F59       1.0  0.86150  0.14630  0.13640  1.0000
  F   F60       1.0  0.13850  0.64630  0.36360  1.0000
  C   C17       1.0  0.36870  0.79890  0.87050  1.0000
  C   C18       1.0  0.63130  0.29890  0.62950  1.0000
  C   C19       1.0  0.63130  0.20110  0.12950  1.0000
  C   C20       1.0  0.36870  0.70110  0.37050  1.0000
  C   C21       1.0  0.55780  0.75960  0.61590  1.0000
  C   C22       1.0  0.44220  0.25960  0.88410  1.0000
  C   C23       1.0  0.44220  0.24040  0.38410  1.0000
  C   C24       1.0  0.55780  0.74040  0.11590  1.0000
  C   C25       1.0  0.55670  0.81090  0.56600  1.0000
  C   C26       1.0  0.44330  0.31090  0.93400  1.0000
  C   C27       1.0  0.44330  0.18910  0.43400  1.0000
  C   C28       1.0  0.55670  0.68910  0.06600  1.0000
  C   C29       1.0  0.73450  0.20990  0.84140  1.0000
  C   C30       1.0  0.26550  0.70990  0.65860  1.0000
  C   C31       1.0  0.26550  0.79010  0.15860  1.0000
  C   C32       1.0  0.73450  0.29010  0.34140  1.0000
  C   C33       1.0  0.43550  0.75160  0.83485  1.0000
  C   C34       1.0  0.56450  0.25160  0.66515  1.0000
  C   C35       1.0  0.56450  0.24840  0.16515  1.0000
  C   C36       1.0  0.43550  0.74840  0.33485  1.0000
  C   C37       1.0  0.62930  0.86490  0.54800  1.0000
  C   C38       1.0  0.37070  0.36490  0.95200  1.0000
  C   C39       1.0  0.37070  0.13510  0.45200  1.0000
  C   C40       1.0  0.62930  0.63510  0.04800  1.0000
  C   C41       1.0  0.70490  0.81490  0.63010  1.0000
  C   C42       1.0  0.29510  0.31490  0.86990  1.0000
  C   C43       1.0  0.29510  0.18510  0.36990  1.0000
  C   C44       1.0  0.70490  0.68510  0.13010  1.0000
  C   C45       1.0  0.28220  0.79580  0.85250  1.0000
  C   C46       1.0  0.71780  0.29580  0.64750  1.0000
  C   C47       1.0  0.71780  0.20420  0.14750  1.0000
  C   C48       1.0  0.28220  0.70420  0.35250  1.0000
  C   C49       1.0  0.70380  0.86910  0.58030  1.0000
  C   C50       1.0  0.29620  0.36910  0.91970  1.0000
  C   C51       1.0  0.29620  0.13090  0.41970  1.0000
  C   C52       1.0  0.70380  0.63090  0.08030  1.0000
  C   C53       1.0  0.74210  0.28160  0.89030  1.0000
  C   C54       1.0  0.25790  0.78160  0.60970  1.0000
  C   C55       1.0  0.25790  0.71840  0.10970  1.0000
  C   C56       1.0  0.74210  0.21840  0.39030  1.0000
  C   C57       1.0  0.80360  0.11790  0.82910  1.0000
  C   C58       1.0  0.19640  0.61790  0.67090  1.0000
  C   C59       1.0  0.19640  0.88210  0.17090  1.0000
  C   C60       1.0  0.80360  0.38210  0.32910  1.0000
  C   C61       1.0  0.33180  0.91210  0.95000  1.0000
  C   C62       1.0  0.66820  0.41210  0.55000  1.0000
  C   C63       1.0  0.66820  0.08790  0.05000  1.0000
  C   C64       1.0  0.33180  0.58790  0.45000  1.0000
  C   C65       1.0  0.24660  0.90740  0.93130  1.0000
  C   C66       1.0  0.75340  0.40740  0.56870  1.0000
  C   C67       1.0  0.75340  0.09260  0.06870  1.0000
  C   C68       1.0  0.24660  0.59260  0.43130  1.0000
  C   C69       1.0  0.81600  0.26490  0.92440  1.0000
  C   C70       1.0  0.18400  0.76490  0.57560  1.0000
  C   C71       1.0  0.18400  0.73510  0.07560  1.0000
  C   C72       1.0  0.81600  0.23510  0.42440  1.0000
  C   C73       1.0  0.22180  0.85330  0.88230  1.0000
  C   C74       1.0  0.77820  0.35330  0.61770  1.0000
  C   C75       1.0  0.77820  0.14670  0.11770  1.0000
  C   C76       1.0  0.22180  0.64670  0.38230  1.0000
  C   C77       1.0  0.88460  0.17600  0.90970  1.0000
  C   C78       1.0  0.11540  0.67600  0.59030  1.0000
  C   C79       1.0  0.11540  0.82400  0.09030  1.0000
  C   C80       1.0  0.88460  0.32400  0.40970  1.0000
  C   C81       1.0  0.87920  0.10560  0.86150  1.0000
  C   C82       1.0  0.12080  0.60560  0.63850  1.0000
  C   C83       1.0  0.12080  0.89440  0.13850  1.0000
  C   C84       1.0  0.87920  0.39440  0.36150  1.0000
