data_image0
_chemical_formula_structural       Co8S8N16H8N4H8O48C12H4C4H4C8H4C4H4C8H4C4H4C8H4C4H4C16H4C4H4C8H4C4H4C8H4C4H4C8H4C4H4C12
_chemical_formula_sum              "Co8 S8 N20 H80 O48 C120"
_cell_length_a       18.072
_cell_length_b       21.785
_cell_length_c       12.6732
_cell_angle_alpha    90
_cell_angle_beta     90
_cell_angle_gamma    90

_space_group_name_H-M_alt    "P 1"
_space_group_IT_number       1

loop_
  _space_group_symop_operation_xyz
  'x, y, z'

loop_
  _atom_site_type_symbol
  _atom_site_label
  _atom_site_symmetry_multiplicity
  _atom_site_fract_x
  _atom_site_fract_y
  _atom_site_fract_z
  _atom_site_occupancy
  Co  Co1       1.0  0.33838  0.72868  0.03295  1.0000
  Co  Co2       1.0  0.66162  0.27132  0.53295  1.0000
  Co  Co3       1.0  0.16162  0.22868  0.53295  1.0000
  Co  Co4       1.0  0.83838  0.77132  0.03295  1.0000
  Co  Co5       1.0  0.17469  0.72211  0.02650  1.0000
  Co  Co6       1.0  0.82531  0.27789  0.52650  1.0000
  Co  Co7       1.0  0.32531  0.22211  0.52650  1.0000
  Co  Co8       1.0  0.67469  0.77789  0.02650  1.0000
  S   S1        1.0  0.24530  0.60635  0.39340  1.0000
  S   S2        1.0  0.75470  0.39365  0.89340  1.0000
  S   S3        1.0  0.25470  0.10635  0.89340  1.0000
  S   S4        1.0  0.74530  0.89365  0.39340  1.0000
  S   S5        1.0  0.20862  0.83997  0.67660  1.0000
  S   S6        1.0  0.79138  0.16003  0.17660  1.0000
  S   S7        1.0  0.29138  0.33997  0.17660  1.0000
  S   S8        1.0  0.70862  0.66003  0.67660  1.0000
  N   N1        1.0  0.44380  0.75810  0.05290  1.0000
  N   N2        1.0  0.55620  0.24190  0.55290  1.0000
  N   N3        1.0  0.05620  0.25810  0.55290  1.0000
  N   N4        1.0  0.94380  0.74190  0.05290  1.0000
  N   N5        1.0  0.56290  0.79020  0.04180  1.0000
  N   N6        1.0  0.43710  0.20980  0.54180  1.0000
  N   N7        1.0  0.93710  0.29020  0.54180  1.0000
  N   N8        1.0  0.06290  0.70980  0.04180  1.0000
  N   N9        1.0  0.46040  0.79840  0.13570  1.0000
  N   N10       1.0  0.53960  0.20160  0.63570  1.0000
  N   N11       1.0  0.03960  0.29840  0.63570  1.0000
  N   N12       1.0  0.96040  0.70160  0.13570  1.0000
  N   N13       1.0  0.51450  0.72810  0.90450  1.0000
  N   N14       1.0  0.48550  0.27190  0.40450  1.0000
  N   N15       1.0  0.98550  0.22810  0.40450  1.0000
  N   N16       1.0  0.01450  0.77190  0.90450  1.0000
  H   H1        1.0  0.47790  0.70840  0.87730  1.0000
  H   H2        1.0  0.52210  0.29160  0.37730  1.0000
  H   H3        1.0  0.02210  0.20840  0.37730  1.0000
  H   H4        1.0  0.97790  0.79160  0.87730  1.0000
  H   H5        1.0  0.55630  0.72930  0.87230  1.0000
  H   H6        1.0  0.44370  0.27070  0.37230  1.0000
  H   H7        1.0  0.94370  0.22930  0.37230  1.0000
  H   H8        1.0  0.05630  0.77070  0.87230  1.0000
  N   N17       1.0  0.56530  0.85140  0.19690  1.0000
  N   N18       1.0  0.43470  0.14860  0.69690  1.0000
  N   N19       1.0  0.93470  0.35140  0.69690  1.0000
  N   N20       1.0  0.06530  0.64860  0.19690  1.0000
  H   H9        1.0  0.54170  0.86640  0.24990  1.0000
  H   H10       1.0  0.45830  0.13360  0.74990  1.0000
  H   H11       1.0  0.95830  0.36640  0.74990  1.0000
  H   H12       1.0  0.04170  0.63360  0.24990  1.0000
  H   H13       1.0  0.61130  0.86020  0.18780  1.0000
  H   H14       1.0  0.38870  0.13980  0.68780  1.0000
  H   H15       1.0  0.88870  0.36020  0.68780  1.0000
  H   H16       1.0  0.11130  0.63980  0.18780  1.0000
  O   O1        1.0  0.21060  0.30930  0.50280  1.0000
  O   O2        1.0  0.78940  0.69070  0.00280  1.0000
  O   O3        1.0  0.28940  0.80930  0.00280  1.0000
  O   O4        1.0  0.71060  0.19070  0.50280  1.0000
  O   O5        1.0  0.17890  0.14090  0.57420  1.0000
  O   O6        1.0  0.82110  0.85910  0.07420  1.0000
  O   O7        1.0  0.32110  0.64090  0.07420  1.0000
  O   O8        1.0  0.67890  0.35910  0.57420  1.0000
  O   O9        1.0  0.34490  0.70410  0.87680  1.0000
  O   O10       1.0  0.65510  0.29590  0.37680  1.0000
  O   O11       1.0  0.15510  0.20410  0.37680  1.0000
  O   O12       1.0  0.84490  0.79590  0.87680  1.0000
  O   O13       1.0  0.31930  0.75200  0.19370  1.0000
  O   O14       1.0  0.68070  0.24800  0.69370  1.0000
  O   O15       1.0  0.18070  0.25200  0.69370  1.0000
  O   O16       1.0  0.81930  0.74800  0.19370  1.0000
  O   O17       1.0  0.22270  0.69500  0.89370  1.0000
  O   O18       1.0  0.77730  0.30500  0.39370  1.0000
  O   O19       1.0  0.27730  0.19500  0.39370  1.0000
  O   O20       1.0  0.72270  0.80500  0.89370  1.0000
  O   O21       1.0  0.19520  0.74670  0.17510  1.0000
  O   O22       1.0  0.80480  0.25330  0.67510  1.0000
  O   O23       1.0  0.30480  0.24670  0.67510  1.0000
  O   O24       1.0  0.69520  0.75330  0.17510  1.0000
  O   O25       1.0  0.33170  0.31050  0.47220  1.0000
  O   O26       1.0  0.66830  0.68950  0.97220  1.0000
  O   O27       1.0  0.16830  0.81050  0.97220  1.0000
  O   O28       1.0  0.83170  0.18950  0.47220  1.0000
  O   O29       1.0  0.30260  0.13210  0.57960  1.0000
  O   O30       1.0  0.69740  0.86790  0.07960  1.0000
  O   O31       1.0  0.19740  0.63210  0.07960  1.0000
  O   O32       1.0  0.80260  0.36790  0.57960  1.0000
  O   O33       1.0  0.17180  0.62120  0.35980  1.0000
  O   O34       1.0  0.82820  0.37880  0.85980  1.0000
  O   O35       1.0  0.32820  0.12120  0.85980  1.0000
  O   O36       1.0  0.67180  0.87880  0.35980  1.0000
  O   O37       1.0  0.30620  0.62630  0.33130  1.0000
  O   O38       1.0  0.69380  0.37370  0.83130  1.0000
  O   O39       1.0  0.19380  0.12630  0.83130  1.0000
  O   O40       1.0  0.80620  0.87370  0.33130  1.0000
  O   O41       1.0  0.13340  0.82650  0.70880  1.0000
  O   O42       1.0  0.86660  0.17350  0.20880  1.0000
  O   O43       1.0  0.36660  0.32650  0.20880  1.0000
  O   O44       1.0  0.63340  0.67350  0.70880  1.0000
  O   O45       1.0  0.26940  0.81990  0.74030  1.0000
  O   O46       1.0  0.73060  0.18010  0.24030  1.0000
  O   O47       1.0  0.23060  0.31990  0.24030  1.0000
  O   O48       1.0  0.76940  0.68010  0.74030  1.0000
  C   C1        1.0  0.28080  0.69260  0.84120  1.0000
  C   C2        1.0  0.71920  0.30740  0.34120  1.0000
  C   C3        1.0  0.21920  0.19260  0.34120  1.0000
  C   C4        1.0  0.78080  0.80740  0.84120  1.0000
  C   C5        1.0  0.27340  0.67470  0.72800  1.0000
  C   C6        1.0  0.72660  0.32530  0.22800  1.0000
  C   C7        1.0  0.22660  0.17470  0.22800  1.0000
  C   C8        1.0  0.77340  0.82530  0.72800  1.0000
  C   C9        1.0  0.20390  0.66070  0.68880  1.0000
  C   C10       1.0  0.79610  0.33930  0.18880  1.0000
  C   C11       1.0  0.29610  0.16070  0.18880  1.0000
  C   C12       1.0  0.70390  0.83930  0.68880  1.0000
  H   H17       1.0  0.16260  0.66430  0.73200  1.0000
  H   H18       1.0  0.83740  0.33570  0.23200  1.0000
  H   H19       1.0  0.33740  0.16430  0.23200  1.0000
  H   H20       1.0  0.66260  0.83570  0.73200  1.0000
  C   C13       1.0  0.19570  0.64130  0.58490  1.0000
  C   C14       1.0  0.80430  0.35870  0.08490  1.0000
  C   C15       1.0  0.30430  0.14130  0.08490  1.0000
  C   C16       1.0  0.69570  0.85870  0.58490  1.0000
  H   H21       1.0  0.14920  0.63220  0.55790  1.0000
  H   H22       1.0  0.85080  0.36780  0.05790  1.0000
  H   H23       1.0  0.35080  0.13220  0.05790  1.0000
  H   H24       1.0  0.64920  0.86780  0.55790  1.0000
  C   C17       1.0  0.25640  0.63590  0.52430  1.0000
  C   C18       1.0  0.74360  0.36410  0.02430  1.0000
  C   C19       1.0  0.24360  0.13590  0.02430  1.0000
  C   C20       1.0  0.75640  0.86410  0.52430  1.0000
  C   C21       1.0  0.32560  0.64990  0.55810  1.0000
  C   C22       1.0  0.67440  0.35010  0.05810  1.0000
  C   C23       1.0  0.17440  0.14990  0.05810  1.0000
  C   C24       1.0  0.82560  0.85010  0.55810  1.0000
  H   H25       1.0  0.36610  0.64670  0.51310  1.0000
  H   H26       1.0  0.63390  0.35330  0.01310  1.0000
  H   H27       1.0  0.13390  0.14670  0.01310  1.0000
  H   H28       1.0  0.86610  0.85330  0.51310  1.0000
  C   C25       1.0  0.33430  0.66970  0.66360  1.0000
  C   C26       1.0  0.66570  0.33030  0.16360  1.0000
  C   C27       1.0  0.16570  0.16970  0.16360  1.0000
  C   C28       1.0  0.83430  0.83030  0.66360  1.0000
  H   H29       1.0  0.38110  0.67920  0.68930  1.0000
  H   H30       1.0  0.61890  0.32080  0.18930  1.0000
  H   H31       1.0  0.11890  0.17920  0.18930  1.0000
  H   H32       1.0  0.88110  0.82080  0.68930  1.0000
  C   C29       1.0  0.25240  0.52440  0.41040  1.0000
  C   C30       1.0  0.74760  0.47560  0.91040  1.0000
  C   C31       1.0  0.24760  0.02440  0.91040  1.0000
  C   C32       1.0  0.75240  0.97560  0.41040  1.0000
  C   C33       1.0  0.19060  0.49360  0.43850  1.0000
  C   C34       1.0  0.80940  0.50640  0.93850  1.0000
  C   C35       1.0  0.30940  0.99360  0.93850  1.0000
  C   C36       1.0  0.69060  0.00640  0.43850  1.0000
  H   H33       1.0  0.14570  0.51410  0.44520  1.0000
  H   H34       1.0  0.85430  0.48590  0.94520  1.0000
  H   H35       1.0  0.35430  0.01410  0.94520  1.0000
  H   H36       1.0  0.64570  0.98590  0.44520  1.0000
  C   C37       1.0  0.19530  0.43160  0.45680  1.0000
  C   C38       1.0  0.80470  0.56840  0.95680  1.0000
  C   C39       1.0  0.30470  0.93160  0.95680  1.0000
  C   C40       1.0  0.69530  0.06840  0.45680  1.0000
  H   H37       1.0  0.15310  0.40940  0.47450  1.0000
  H   H38       1.0  0.84690  0.59060  0.97450  1.0000
  H   H39       1.0  0.34690  0.90940  0.97450  1.0000
  H   H40       1.0  0.65310  0.09060  0.47450  1.0000
  C   C41       1.0  0.26290  0.40210  0.44910  1.0000
  C   C42       1.0  0.73710  0.59790  0.94910  1.0000
  C   C43       1.0  0.23710  0.90210  0.94910  1.0000
  C   C44       1.0  0.76290  0.09790  0.44910  1.0000
  C   C45       1.0  0.32510  0.43580  0.41900  1.0000
  C   C46       1.0  0.67490  0.56420  0.91900  1.0000
  C   C47       1.0  0.17490  0.93580  0.91900  1.0000
  C   C48       1.0  0.82510  0.06420  0.41900  1.0000
  H   H41       1.0  0.37040  0.41620  0.41130  1.0000
  H   H42       1.0  0.62960  0.58380  0.91130  1.0000
  H   H43       1.0  0.12960  0.91620  0.91130  1.0000
  H   H44       1.0  0.87040  0.08380  0.41130  1.0000
  C   C49       1.0  0.31990  0.49770  0.40060  1.0000
  C   C50       1.0  0.68010  0.50230  0.90060  1.0000
  C   C51       1.0  0.18010  0.99770  0.90060  1.0000
  C   C52       1.0  0.81990  0.00230  0.40060  1.0000
  H   H45       1.0  0.36130  0.52060  0.38200  1.0000
  H   H46       1.0  0.63870  0.47940  0.88200  1.0000
  H   H47       1.0  0.13870  0.02060  0.88200  1.0000
  H   H48       1.0  0.86130  0.97940  0.38200  1.0000
  C   C53       1.0  0.26920  0.33590  0.47600  1.0000
  C   C54       1.0  0.73080  0.66410  0.97600  1.0000
  C   C55       1.0  0.23080  0.83590  0.97600  1.0000
  C   C56       1.0  0.76920  0.16410  0.47600  1.0000
  C   C57       1.0  0.25340  0.75570  0.22760  1.0000
  C   C58       1.0  0.74660  0.24430  0.72760  1.0000
  C   C59       1.0  0.24660  0.25570  0.72760  1.0000
  C   C60       1.0  0.75340  0.74430  0.22760  1.0000
  C   C61       1.0  0.24120  0.77550  0.34190  1.0000
  C   C62       1.0  0.75880  0.22450  0.84190  1.0000
  C   C63       1.0  0.25880  0.27550  0.84190  1.0000
  C   C64       1.0  0.74120  0.72450  0.34190  1.0000
  C   C65       1.0  0.30110  0.79180  0.40340  1.0000
  C   C66       1.0  0.69890  0.20820  0.90340  1.0000
  C   C67       1.0  0.19890  0.29180  0.90340  1.0000
  C   C68       1.0  0.80110  0.70820  0.40340  1.0000
  H   H49       1.0  0.34840  0.79140  0.37450  1.0000
  H   H50       1.0  0.65160  0.20860  0.87450  1.0000
  H   H51       1.0  0.15160  0.29140  0.87450  1.0000
  H   H52       1.0  0.84840  0.70860  0.37450  1.0000
  C   C69       1.0  0.29180  0.80850  0.50590  1.0000
  C   C70       1.0  0.70820  0.19150  0.00590  1.0000
  C   C71       1.0  0.20820  0.30850  0.00590  1.0000
  C   C72       1.0  0.79180  0.69150  0.50590  1.0000
  H   H53       1.0  0.33250  0.81780  0.54780  1.0000
  H   H54       1.0  0.66750  0.18220  0.04780  1.0000
  H   H55       1.0  0.16750  0.31780  0.04780  1.0000
  H   H56       1.0  0.83250  0.68220  0.54780  1.0000
  C   C73       1.0  0.22110  0.81160  0.54700  1.0000
  C   C74       1.0  0.77890  0.18840  0.04700  1.0000
  C   C75       1.0  0.27890  0.31160  0.04700  1.0000
  C   C76       1.0  0.72110  0.68840  0.54700  1.0000
  C   C77       1.0  0.16030  0.79550  0.48520  1.0000
  C   C78       1.0  0.83970  0.20450  0.98520  1.0000
  C   C79       1.0  0.33970  0.29550  0.98520  1.0000
  C   C80       1.0  0.66030  0.70450  0.48520  1.0000
  H   H57       1.0  0.11270  0.79820  0.51270  1.0000
  H   H58       1.0  0.88730  0.20180  0.01270  1.0000
  H   H59       1.0  0.38730  0.29820  0.01270  1.0000
  H   H60       1.0  0.61270  0.70180  0.51270  1.0000
  C   C81       1.0  0.17090  0.77540  0.38300  1.0000
  C   C82       1.0  0.82910  0.22460  0.88300  1.0000
  C   C83       1.0  0.32910  0.27540  0.88300  1.0000
  C   C84       1.0  0.67090  0.72460  0.38300  1.0000
  H   H61       1.0  0.13110  0.76210  0.34250  1.0000
  H   H62       1.0  0.86890  0.23790  0.84250  1.0000
  H   H63       1.0  0.36890  0.26210  0.84250  1.0000
  H   H64       1.0  0.63110  0.73790  0.34250  1.0000
  C   C85       1.0  0.21600  0.92040  0.65660  1.0000
  C   C86       1.0  0.78400  0.07960  0.15660  1.0000
  C   C87       1.0  0.28400  0.42040  0.15660  1.0000
  C   C88       1.0  0.71600  0.57960  0.65660  1.0000
  C   C89       1.0  0.28430  0.94810  0.66800  1.0000
  C   C90       1.0  0.71570  0.05190  0.16800  1.0000
  C   C91       1.0  0.21570  0.44810  0.16800  1.0000
  C   C92       1.0  0.78430  0.55190  0.66800  1.0000
  H   H65       1.0  0.32520  0.92530  0.68930  1.0000
  H   H66       1.0  0.67480  0.07470  0.18930  1.0000
  H   H67       1.0  0.17480  0.42530  0.18930  1.0000
  H   H68       1.0  0.82520  0.57470  0.68930  1.0000
  C   C93       1.0  0.29090  0.01030  0.64710  1.0000
  C   C94       1.0  0.70910  0.98970  0.14710  1.0000
  C   C95       1.0  0.20910  0.51030  0.14710  1.0000
  C   C96       1.0  0.79090  0.48970  0.64710  1.0000
  H   H69       1.0  0.33650  0.02950  0.65510  1.0000
  H   H70       1.0  0.66350  0.97050  0.15510  1.0000
  H   H71       1.0  0.16350  0.52950  0.15510  1.0000
  H   H72       1.0  0.83650  0.47050  0.65510  1.0000
  C   C97       1.0  0.23110  0.04370  0.61500  1.0000
  C   C98       1.0  0.76890  0.95630  0.11500  1.0000
  C   C99       1.0  0.26890  0.54370  0.11500  1.0000
  C   C100      1.0  0.73110  0.45630  0.61500  1.0000
  C   C101      1.0  0.16210  0.01610  0.60670  1.0000
  C   C102      1.0  0.83790  0.98390  0.10670  1.0000
  C   C103      1.0  0.33790  0.51610  0.10670  1.0000
  C   C104      1.0  0.66210  0.48390  0.60670  1.0000
  H   H73       1.0  0.12050  0.03870  0.58800  1.0000
  H   H74       1.0  0.87950  0.96130  0.08800  1.0000
  H   H75       1.0  0.37950  0.53870  0.08800  1.0000
  H   H76       1.0  0.62050  0.46130  0.58800  1.0000
  C   C105      1.0  0.15730  0.95290  0.62750  1.0000
  C   C106      1.0  0.84270  0.04710  0.12750  1.0000
  C   C107      1.0  0.34270  0.45290  0.12750  1.0000
  C   C108      1.0  0.65730  0.54710  0.62750  1.0000
  H   H77       1.0  0.11180  0.93330  0.62070  1.0000
  H   H78       1.0  0.88820  0.06670  0.12070  1.0000
  H   H79       1.0  0.38820  0.43330  0.12070  1.0000
  H   H80       1.0  0.61180  0.56670  0.62070  1.0000
  C   C109      1.0  0.23770  0.11180  0.58890  1.0000
  C   C110      1.0  0.76230  0.88820  0.08890  1.0000
  C   C111      1.0  0.26230  0.61180  0.08890  1.0000
  C   C112      1.0  0.73770  0.38820  0.58890  1.0000
  C   C113      1.0  0.50610  0.75740  0.99800  1.0000
  C   C114      1.0  0.49390  0.24260  0.49800  1.0000
  C   C115      1.0  0.99390  0.25740  0.49800  1.0000
  C   C116      1.0  0.00610  0.74260  0.99800  1.0000
  C   C117      1.0  0.53080  0.81470  0.12900  1.0000
  C   C118      1.0  0.46920  0.18530  0.62900  1.0000
  C   C119      1.0  0.96920  0.31470  0.62900  1.0000
  C   C120      1.0  0.03080  0.68530  0.12900  1.0000
