data_image0
_chemical_formula_structural       Mn8P8O6H2O2H2O6H2O2H2O4H2O2H2O8H2O2H2O32C16
_chemical_formula_sum              "Mn8 P8 O64 H16 C16"
_cell_length_a       8.9018
_cell_length_b       24.0828
_cell_length_c       10.1128
_cell_angle_alpha    90
_cell_angle_beta     108.23
_cell_angle_gamma    90

_space_group_name_H-M_alt    "P 1"
_space_group_IT_number       1

loop_
  _space_group_symop_operation_xyz
  'x, y, z'

loop_
  _atom_site_type_symbol
  _atom_site_label
  _atom_site_symmetry_multiplicity
  _atom_site_fract_x
  _atom_site_fract_y
  _atom_site_fract_z
  _atom_site_occupancy
  Mn  Mn1       1.0  0.07004  0.49789  0.15872  1.0000
  Mn  Mn2       1.0  0.92996  0.99789  0.84128  1.0000
  Mn  Mn3       1.0  0.35904  0.55019  0.73437  1.0000
  Mn  Mn4       1.0  0.64096  0.05019  0.26563  1.0000
  Mn  Mn5       1.0  0.28647  0.67965  0.87374  1.0000
  Mn  Mn6       1.0  0.71353  0.17965  0.12626  1.0000
  Mn  Mn7       1.0  0.56915  0.73231  0.44627  1.0000
  Mn  Mn8       1.0  0.43085  0.23231  0.55373  1.0000
  P   P1        1.0  0.04750  0.38372  0.34100  1.0000
  P   P2        1.0  0.95250  0.88372  0.65900  1.0000
  P   P3        1.0  0.73730  0.50892  0.90180  1.0000
  P   P4        1.0  0.26270  0.00892  0.09820  1.0000
  P   P5        1.0  0.58840  0.84956  0.27100  1.0000
  P   P6        1.0  0.41160  0.34956  0.72900  1.0000
  P   P7        1.0  0.95430  0.70248  0.60800  1.0000
  P   P8        1.0  0.04570  0.20248  0.39200  1.0000
  O   O1        1.0  0.00010  0.42030  0.21620  1.0000
  O   O2        1.0  0.99990  0.92030  0.78380  1.0000
  O   O3        1.0  0.92310  0.34200  0.34540  1.0000
  O   O4        1.0  0.07690  0.84200  0.65460  1.0000
  O   O5        1.0  0.20720  0.35430  0.34860  1.0000
  O   O6        1.0  0.79280  0.85430  0.65140  1.0000
  H   H1        1.0  0.24510  0.34000  0.42550  1.0000
  H   H2        1.0  0.75490  0.84000  0.57450  1.0000
  O   O7        1.0  0.08420  0.42280  0.47180  1.0000
  O   O8        1.0  0.91580  0.92280  0.52820  1.0000
  H   H3        1.0  0.08760  0.40430  0.54080  1.0000
  H   H4        1.0  0.91240  0.90430  0.45920  1.0000
  O   O9        1.0  0.84870  0.52850  0.03690  1.0000
  O   O10       1.0  0.15130  0.02850  0.96310  1.0000
  O   O11       1.0  0.58920  0.54250  0.86060  1.0000
  O   O12       1.0  0.41080  0.04250  0.13940  1.0000
  O   O13       1.0  0.70970  0.44660  0.91950  1.0000
  O   O14       1.0  0.29030  0.94660  0.08050  1.0000
  H   H5        1.0  0.64630  0.43450  0.84780  1.0000
  H   H6        1.0  0.35370  0.93450  0.15220  1.0000
  O   O15       1.0  0.82050  0.51150  0.78790  1.0000
  O   O16       1.0  0.17950  0.01150  0.21210  1.0000
  H   H7        1.0  0.80140  0.54140  0.74740  1.0000
  H   H8        1.0  0.19860  0.04140  0.25260  1.0000
  O   O17       1.0  0.64100  0.81060  0.39370  1.0000
  O   O18       1.0  0.35900  0.31060  0.60630  1.0000
  O   O19       1.0  0.74720  0.88110  0.27300  1.0000
  O   O20       1.0  0.25280  0.38110  0.72700  1.0000
  H   H9        1.0  0.73060  0.91460  0.26550  1.0000
  H   H10       1.0  0.26940  0.41460  0.73450  1.0000
  O   O21       1.0  0.54280  0.81530  0.13100  1.0000
  O   O22       1.0  0.45720  0.31530  0.86900  1.0000
  H   H11       1.0  0.44760  0.81830  0.09100  1.0000
  H   H12       1.0  0.55240  0.31830  0.90900  1.0000
  O   O23       1.0  0.46100  0.88890  0.27130  1.0000
  O   O24       1.0  0.53900  0.38890  0.72870  1.0000
  O   O25       1.0  0.79030  0.71910  0.59500  1.0000
  O   O26       1.0  0.20970  0.21910  0.40500  1.0000
  O   O27       1.0  0.05570  0.69440  0.75440  1.0000
  O   O28       1.0  0.94430  0.19440  0.24560  1.0000
  O   O29       1.0  0.94170  0.64720  0.52070  1.0000
  O   O30       1.0  0.05830  0.14720  0.47930  1.0000
  H   H13       1.0  0.03060  0.63660  0.52530  1.0000
  H   H14       1.0  0.96940  0.13660  0.47470  1.0000
  O   O31       1.0  0.03250  0.74390  0.52920  1.0000
  O   O32       1.0  0.96750  0.24390  0.47080  1.0000
  H   H15       1.0  0.05090  0.77340  0.57160  1.0000
  H   H16       1.0  0.94910  0.27340  0.42840  1.0000
  O   O33       1.0  0.29930  0.49740  0.32750  1.0000
  O   O34       1.0  0.70070  0.99740  0.67250  1.0000
  O   O35       1.0  0.40690  0.51440  0.55360  1.0000
  O   O36       1.0  0.59310  0.01440  0.44640  1.0000
  O   O37       1.0  0.03180  0.54710  0.33200  1.0000
  O   O38       1.0  0.96820  0.04710  0.66800  1.0000
  O   O39       1.0  0.14090  0.56440  0.55990  1.0000
  O   O40       1.0  0.85910  0.06440  0.44010  1.0000
  O   O41       1.0  0.16540  0.57050  0.06320  1.0000
  O   O42       1.0  0.83460  0.07050  0.93680  1.0000
  O   O43       1.0  0.25200  0.58920  0.88470  1.0000
  O   O44       1.0  0.74800  0.08920  0.11530  1.0000
  O   O45       1.0  0.17220  0.46100  0.00610  1.0000
  O   O46       1.0  0.82780  0.96100  0.99390  1.0000
  O   O47       1.0  0.26840  0.48180  0.83200  1.0000
  O   O48       1.0  0.73160  0.98180  0.16800  1.0000
  O   O49       1.0  0.50880  0.67170  0.04940  1.0000
  O   O50       1.0  0.49120  0.17170  0.95060  1.0000
  O   O51       1.0  0.61030  0.68540  0.27530  1.0000
  O   O52       1.0  0.38970  0.18540  0.72470  1.0000
  O   O53       1.0  0.23110  0.71360  0.05180  1.0000
  O   O54       1.0  0.76890  0.21360  0.94820  1.0000
  O   O55       1.0  0.33660  0.73290  0.27710  1.0000
  O   O56       1.0  0.66340  0.23290  0.72290  1.0000
  O   O57       1.0  0.46830  0.76920  0.59850  1.0000
  O   O58       1.0  0.53170  0.26920  0.40150  1.0000
  O   O59       1.0  0.38190  0.74930  0.77690  1.0000
  O   O60       1.0  0.61810  0.24930  0.22310  1.0000
  O   O61       1.0  0.47070  0.66080  0.53820  1.0000
  O   O62       1.0  0.52930  0.16080  0.46180  1.0000
  O   O63       1.0  0.38670  0.64160  0.71880  1.0000
  O   O64       1.0  0.61330  0.14160  0.28120  1.0000
  C   C1        1.0  0.29660  0.51590  0.44300  1.0000
  C   C2        1.0  0.70340  0.01590  0.55700  1.0000
  C   C3        1.0  0.14000  0.54500  0.44320  1.0000
  C   C4        1.0  0.86000  0.04500  0.55680  1.0000
  C   C5        1.0  0.20880  0.55730  0.96370  1.0000
  C   C6        1.0  0.79120  0.05730  0.03630  1.0000
  C   C7        1.0  0.21410  0.49360  0.93160  1.0000
  C   C8        1.0  0.78590  0.99360  0.06840  1.0000
  C   C9        1.0  0.50120  0.68810  0.16310  1.0000
  C   C10       1.0  0.49880  0.18810  0.83690  1.0000
  C   C11       1.0  0.34240  0.71420  0.16580  1.0000
  C   C12       1.0  0.65760  0.21420  0.83420  1.0000
  C   C13       1.0  0.42520  0.73660  0.67620  1.0000
  C   C14       1.0  0.57480  0.23660  0.32380  1.0000
  C   C15       1.0  0.42690  0.67350  0.63930  1.0000
  C   C16       1.0  0.57310  0.17350  0.36070  1.0000
