data_image0
_chemical_formula_structural       Ga4P4O6H2O2H2O8H2O24C12
_chemical_formula_sum              "Ga4 P4 O40 H6 C12"
_cell_length_a       8.89575
_cell_length_b       14.9826
_cell_length_c       10.1812
_cell_angle_alpha    90
_cell_angle_beta     91.4795
_cell_angle_gamma    90

_space_group_name_H-M_alt    "P 1"
_space_group_IT_number       1

loop_
  _space_group_symop_operation_xyz
  'x, y, z'

loop_
  _atom_site_type_symbol
  _atom_site_label
  _atom_site_symmetry_multiplicity
  _atom_site_fract_x
  _atom_site_fract_y
  _atom_site_fract_z
  _atom_site_occupancy
  Ga  Ga1       1.0  0.85563  0.32008  0.32999  1.0000
  Ga  Ga2       1.0  0.14437  0.82008  0.67001  1.0000
  Ga  Ga3       1.0  0.83952  0.51298  0.70626  1.0000
  Ga  Ga4       1.0  0.16048  0.01298  0.29374  1.0000
  P   P1        1.0  0.87250  0.30459  0.65370  1.0000
  P   P2        1.0  0.12750  0.80459  0.34630  1.0000
  P   P3        1.0  0.88210  0.52679  0.39700  1.0000
  P   P4        1.0  0.11790  0.02679  0.60300  1.0000
  O   O1        1.0  0.82840  0.30150  0.51370  1.0000
  O   O2        1.0  0.17160  0.80150  0.48630  1.0000
  O   O3        1.0  0.91550  0.39330  0.71220  1.0000
  O   O4        1.0  0.08450  0.89330  0.28780  1.0000
  O   O5        1.0  0.01010  0.24320  0.68240  1.0000
  O   O6        1.0  0.98990  0.74320  0.31760  1.0000
  H   H1        1.0  0.98210  0.19730  0.71840  1.0000
  H   H2        1.0  0.01790  0.69730  0.28160  1.0000
  O   O7        1.0  0.73710  0.26510  0.72800  1.0000
  O   O8        1.0  0.26290  0.76510  0.27200  1.0000
  H   H3        1.0  0.66520  0.29920  0.72110  1.0000
  H   H4        1.0  0.33480  0.79920  0.27890  1.0000
  O   O9        1.0  0.93050  0.43840  0.33700  1.0000
  O   O10       1.0  0.06950  0.93840  0.66300  1.0000
  O   O11       1.0  0.80070  0.51490  0.52210  1.0000
  O   O12       1.0  0.19930  0.01490  0.47790  1.0000
  O   O13       1.0  0.01720  0.58920  0.41110  1.0000
  O   O14       1.0  0.98280  0.08920  0.58890  1.0000
  O   O15       1.0  0.76390  0.57160  0.30050  1.0000
  O   O16       1.0  0.23610  0.07160  0.69950  1.0000
  H   H5        1.0  0.76630  0.54700  0.22860  1.0000
  H   H6        1.0  0.23370  0.04700  0.77140  1.0000
  O   O17       1.0  0.84920  0.31400  0.13110  1.0000
  O   O18       1.0  0.15080  0.81400  0.86890  1.0000
  O   O19       1.0  0.67320  0.30220  0.96950  1.0000
  O   O20       1.0  0.32680  0.80220  0.03050  1.0000
  O   O21       1.0  0.64180  0.34320  0.30320  1.0000
  O   O22       1.0  0.35820  0.84320  0.69680  1.0000
  O   O23       1.0  0.46320  0.34670  0.14770  1.0000
  O   O24       1.0  0.53680  0.84670  0.85230  1.0000
  O   O25       1.0  0.62660  0.48970  0.73330  1.0000
  O   O26       1.0  0.37340  0.98970  0.26670  1.0000
  O   O27       1.0  0.46040  0.48440  0.88990  1.0000
  O   O28       1.0  0.53960  0.98440  0.11010  1.0000
  O   O29       1.0  0.84460  0.52200  0.90380  1.0000
  O   O30       1.0  0.15540  0.02200  0.09620  1.0000
  O   O31       1.0  0.68600  0.51280  0.07030  1.0000
  O   O32       1.0  0.31400  0.01280  0.92970  1.0000
  O   O33       1.0  0.05210  0.55570  0.70970  1.0000
  O   O34       1.0  0.94790  0.05570  0.29030  1.0000
  O   O35       1.0  0.18530  0.68130  0.68800  1.0000
  O   O36       1.0  0.81470  0.18130  0.31200  1.0000
  O   O37       1.0  0.80040  0.65080  0.70460  1.0000
  O   O38       1.0  0.19960  0.15080  0.29540  1.0000
  O   O39       1.0  0.93140  0.77610  0.67640  1.0000
  O   O40       1.0  0.06860  0.27610  0.32360  1.0000
  C   C1        1.0  0.71470  0.31460  0.08370  1.0000
  C   C2        1.0  0.28530  0.81460  0.91630  1.0000
  C   C3        1.0  0.59380  0.33610  0.18410  1.0000
  C   C4        1.0  0.40620  0.83610  0.81590  1.0000
  C   C5        1.0  0.58710  0.49250  0.85110  1.0000
  C   C6        1.0  0.41290  0.99250  0.14890  1.0000
  C   C7        1.0  0.71610  0.51130  0.95390  1.0000
  C   C8        1.0  0.28390  0.01130  0.04610  1.0000
  C   C9        1.0  0.06530  0.63850  0.69540  1.0000
  C   C10       1.0  0.93470  0.13850  0.30460  1.0000
  C   C11       1.0  0.91800  0.69310  0.69120  1.0000
  C   C12       1.0  0.08200  0.19310  0.30880  1.0000
