data_image0
_chemical_formula_structural       Cr2Mn2O24C12
_chemical_formula_sum              "Cr2 Mn2 O24 C12"
_cell_length_a       9.334
_cell_length_b       16.2952
_cell_length_c       8.7134
_cell_angle_alpha    90
_cell_angle_beta     82.888
_cell_angle_gamma    90

_space_group_name_H-M_alt    "P 1"
_space_group_IT_number       1

loop_
  _space_group_symop_operation_xyz
  'x, y, z'

loop_
  _atom_site_type_symbol
  _atom_site_label
  _atom_site_symmetry_multiplicity
  _atom_site_fract_x
  _atom_site_fract_y
  _atom_site_fract_z
  _atom_site_occupancy
  Cr  Cr1       1.0  0.24809  0.57325  0.00678  1.0000
  Cr  Cr2       1.0  0.75191  0.07325  0.99322  1.0000
  Mn  Mn1       1.0  0.24083  0.90759  0.99918  1.0000
  Mn  Mn2       1.0  0.75917  0.40759  0.00082  1.0000
  O   O1        1.0  0.17376  0.80614  0.15763  1.0000
  O   O2        1.0  0.82624  0.30614  0.84237  1.0000
  O   O3        1.0  0.35069  0.80718  0.87341  1.0000
  O   O4        1.0  0.64931  0.30718  0.12659  1.0000
  O   O5        1.0  0.15504  0.67397  0.14394  1.0000
  O   O6        1.0  0.84496  0.17397  0.85606  1.0000
  O   O7        1.0  0.33197  0.67500  0.85973  1.0000
  O   O8        1.0  0.66803  0.17500  0.14027  1.0000
  O   O9        1.0  0.43687  0.57146  0.12828  1.0000
  O   O10       1.0  0.56313  0.07146  0.87172  1.0000
  O   O11       1.0  0.38785  0.48862  0.85798  1.0000
  O   O12       1.0  0.61215  0.98862  0.14202  1.0000
  O   O13       1.0  0.63364  0.50183  0.13579  1.0000
  O   O14       1.0  0.36636  0.00183  0.86421  1.0000
  O   O15       1.0  0.58461  0.41900  0.86549  1.0000
  O   O16       1.0  0.41539  0.91900  0.13451  1.0000
  O   O17       1.0  0.92113  0.41502  0.13417  1.0000
  O   O18       1.0  0.07887  0.91502  0.86583  1.0000
  O   O19       1.0  0.87829  0.51044  0.87640  1.0000
  O   O20       1.0  0.12171  0.01044  0.12360  1.0000
  O   O21       1.0  0.12419  0.47719  0.14880  1.0000
  O   O22       1.0  0.87581  0.97719  0.85120  1.0000
  O   O23       1.0  0.08135  0.57261  0.89102  1.0000
  O   O24       1.0  0.91865  0.07261  0.10898  1.0000
  C   C1        1.0  0.20389  0.74029  0.08734  1.0000
  C   C2        1.0  0.79611  0.24029  0.91266  1.0000
  C   C3        1.0  0.30184  0.74086  0.93001  1.0000
  C   C4        1.0  0.69816  0.24086  0.06999  1.0000
  C   C5        1.0  0.52431  0.51816  0.07170  1.0000
  C   C6        1.0  0.47569  0.01816  0.92830  1.0000
  C   C7        1.0  0.49717  0.47230  0.92207  1.0000
  C   C8        1.0  0.50283  0.97230  0.07793  1.0000
  C   C9        1.0  0.01310  0.46740  0.08394  1.0000
  C   C10       1.0  0.98690  0.96740  0.91606  1.0000
  C   C11       1.0  0.98938  0.52022  0.94125  1.0000
  C   C12       1.0  0.01062  0.02022  0.05875  1.0000
