data_image0
_chemical_formula_structural       Mn4P8O12H4O16H4C8H12
_chemical_formula_sum              "Mn4 P8 O28 H20 C8"
_cell_length_a       5.6597
_cell_length_b       12.8273
_cell_length_c       16.4012
_cell_angle_alpha    90
_cell_angle_beta     98.485
_cell_angle_gamma    90

_space_group_name_H-M_alt    "P 1"
_space_group_IT_number       1

loop_
  _space_group_symop_operation_xyz
  'x, y, z'

loop_
  _atom_site_type_symbol
  _atom_site_label
  _atom_site_symmetry_multiplicity
  _atom_site_fract_x
  _atom_site_fract_y
  _atom_site_fract_z
  _atom_site_occupancy
  Mn  Mn1       1.0  0.78515  0.43986  0.41626  1.0000
  Mn  Mn2       1.0  0.28515  0.06014  0.91626  1.0000
  Mn  Mn3       1.0  0.21485  0.56014  0.58374  1.0000
  Mn  Mn4       1.0  0.71485  0.93986  0.08374  1.0000
  P   P1        1.0  0.27486  0.57786  0.38100  1.0000
  P   P2        1.0  0.77486  0.92214  0.88100  1.0000
  P   P3        1.0  0.72514  0.42214  0.61900  1.0000
  P   P4        1.0  0.22514  0.07786  0.11900  1.0000
  P   P5        1.0  0.22905  0.34582  0.34174  1.0000
  P   P6        1.0  0.72905  0.15418  0.84174  1.0000
  P   P7        1.0  0.77095  0.65418  0.65826  1.0000
  P   P8        1.0  0.27095  0.84582  0.15826  1.0000
  O   O1        1.0  0.54390  0.56687  0.39979  1.0000
  O   O2        1.0  0.04390  0.93313  0.89979  1.0000
  O   O3        1.0  0.45610  0.43313  0.60021  1.0000
  O   O4        1.0  0.95610  0.06687  0.10021  1.0000
  O   O5        1.0  0.13950  0.55888  0.45303  1.0000
  O   O6        1.0  0.63950  0.94112  0.95303  1.0000
  O   O7        1.0  0.86050  0.44112  0.54697  1.0000
  O   O8        1.0  0.36050  0.05888  0.04697  1.0000
  O   O9        1.0  0.20190  0.68684  0.34546  1.0000
  O   O10       1.0  0.70190  0.81316  0.84546  1.0000
  O   O11       1.0  0.79810  0.31316  0.65454  1.0000
  O   O12       1.0  0.29810  0.18684  0.15454  1.0000
  H   H1        1.0  0.26100  0.72300  0.29200  1.0000
  H   H2        1.0  0.76100  0.77700  0.79200  1.0000
  H   H3        1.0  0.73900  0.27700  0.70800  1.0000
  H   H4        1.0  0.23900  0.22300  0.20800  1.0000
  O   O13       1.0  0.49390  0.33673  0.37241  1.0000
  O   O14       1.0  0.99390  0.16327  0.87241  1.0000
  O   O15       1.0  0.50610  0.66327  0.62759  1.0000
  O   O16       1.0  0.00610  0.83673  0.12759  1.0000
  O   O17       1.0  0.06520  0.33152  0.40691  1.0000
  O   O18       1.0  0.56520  0.16848  0.90691  1.0000
  O   O19       1.0  0.93480  0.66848  0.59309  1.0000
  O   O20       1.0  0.43480  0.83152  0.09309  1.0000
  O   O21       1.0  0.14640  0.27099  0.27008  1.0000
  O   O22       1.0  0.64640  0.22901  0.77008  1.0000
  O   O23       1.0  0.85360  0.72901  0.72992  1.0000
  O   O24       1.0  0.35360  0.77099  0.22992  1.0000
  O   O25       1.0  0.90480  0.48729  0.29128  1.0000
  O   O26       1.0  0.40480  0.01271  0.79128  1.0000
  O   O27       1.0  0.09520  0.51271  0.70872  1.0000
  O   O28       1.0  0.59520  0.98729  0.20872  1.0000
  H   H5        1.0  0.86200  0.54190  0.26630  1.0000
  H   H6        1.0  0.36200  0.95810  0.76630  1.0000
  H   H7        1.0  0.13800  0.45810  0.73370  1.0000
  H   H8        1.0  0.63800  0.04190  0.23370  1.0000
  C   C1        1.0  0.16470  0.48009  0.30284  1.0000
  C   C2        1.0  0.66470  0.01991  0.80284  1.0000
  C   C3        1.0  0.83530  0.51991  0.69716  1.0000
  C   C4        1.0  0.33530  0.98009  0.19716  1.0000
  C   C5        1.0  0.26440  0.49880  0.22263  1.0000
  C   C6        1.0  0.76440  0.00120  0.72263  1.0000
  C   C7        1.0  0.73560  0.50120  0.77737  1.0000
  C   C8        1.0  0.23560  0.99880  0.27737  1.0000
  H   H9        1.0  0.22780  0.56940  0.20380  1.0000
  H   H10       1.0  0.72780  0.93060  0.70380  1.0000
  H   H11       1.0  0.77220  0.43060  0.79620  1.0000
  H   H12       1.0  0.27220  0.06940  0.29620  1.0000
  H   H13       1.0  0.19260  0.44980  0.18110  1.0000
  H   H14       1.0  0.69260  0.05020  0.68110  1.0000
  H   H15       1.0  0.80740  0.55020  0.81890  1.0000
  H   H16       1.0  0.30740  0.94980  0.31890  1.0000
  H   H17       1.0  0.43620  0.48900  0.23200  1.0000
  H   H18       1.0  0.93620  0.01100  0.73200  1.0000
  H   H19       1.0  0.56380  0.51100  0.76800  1.0000
  H   H20       1.0  0.06380  0.98900  0.26800  1.0000
