data_image0
_chemical_formula_structural       Mn4P8O24H4O4H4C8H12
_chemical_formula_sum              "Mn4 P8 O28 H20 C8"
_cell_length_a       5.6315
_cell_length_b       12.2419
_cell_length_c       16.4002
_cell_angle_alpha    90
_cell_angle_beta     99.309
_cell_angle_gamma    90

_space_group_name_H-M_alt    "P 1"
_space_group_IT_number       1

loop_
  _space_group_symop_operation_xyz
  'x, y, z'

loop_
  _atom_site_type_symbol
  _atom_site_label
  _atom_site_symmetry_multiplicity
  _atom_site_fract_x
  _atom_site_fract_y
  _atom_site_fract_z
  _atom_site_occupancy
  Mn  Mn1       1.0  0.79270  0.44645  0.41811  1.0000
  Mn  Mn2       1.0  0.29270  0.05355  0.91811  1.0000
  Mn  Mn3       1.0  0.20730  0.55355  0.58189  1.0000
  Mn  Mn4       1.0  0.70730  0.94645  0.08189  1.0000
  P   P1        1.0  0.27530  0.58529  0.38008  1.0000
  P   P2        1.0  0.77530  0.91471  0.88008  1.0000
  P   P3        1.0  0.72470  0.41471  0.61992  1.0000
  P   P4        1.0  0.22470  0.08529  0.11992  1.0000
  P   P5        1.0  0.23663  0.34108  0.34823  1.0000
  P   P6        1.0  0.73663  0.15892  0.84823  1.0000
  P   P7        1.0  0.76337  0.65892  0.65177  1.0000
  P   P8        1.0  0.26337  0.84108  0.15177  1.0000
  O   O1        1.0  0.54740  0.57858  0.40074  1.0000
  O   O2        1.0  0.04740  0.92142  0.90074  1.0000
  O   O3        1.0  0.45260  0.42142  0.59926  1.0000
  O   O4        1.0  0.95260  0.07858  0.09926  1.0000
  O   O5        1.0  0.13720  0.56355  0.45114  1.0000
  O   O6        1.0  0.63720  0.93645  0.95114  1.0000
  O   O7        1.0  0.86280  0.43645  0.54886  1.0000
  O   O8        1.0  0.36280  0.06355  0.04886  1.0000
  O   O9        1.0  0.19480  0.69832  0.34304  1.0000
  O   O10       1.0  0.69480  0.80168  0.84304  1.0000
  O   O11       1.0  0.80520  0.30168  0.65696  1.0000
  O   O12       1.0  0.30520  0.19832  0.15696  1.0000
  O   O13       1.0  0.50650  0.33208  0.37637  1.0000
  O   O14       1.0  0.00650  0.16792  0.87637  1.0000
  O   O15       1.0  0.49350  0.66792  0.62363  1.0000
  O   O16       1.0  0.99350  0.83208  0.12363  1.0000
  O   O17       1.0  0.07880  0.32797  0.41439  1.0000
  O   O18       1.0  0.57880  0.17203  0.91439  1.0000
  O   O19       1.0  0.92120  0.67203  0.58561  1.0000
  O   O20       1.0  0.42120  0.82797  0.08561  1.0000
  O   O21       1.0  0.14560  0.25877  0.27849  1.0000
  O   O22       1.0  0.64560  0.24123  0.77849  1.0000
  O   O23       1.0  0.85440  0.74123  0.72151  1.0000
  O   O24       1.0  0.35440  0.75877  0.22151  1.0000
  H   H1        1.0  0.22300  0.23500  0.22390  1.0000
  H   H2        1.0  0.72300  0.26500  0.72390  1.0000
  H   H3        1.0  0.77700  0.76500  0.77610  1.0000
  H   H4        1.0  0.27700  0.73500  0.27610  1.0000
  O   O25       1.0  0.90630  0.48372  0.29075  1.0000
  O   O26       1.0  0.40630  0.01628  0.79075  1.0000
  O   O27       1.0  0.09370  0.51628  0.70925  1.0000
  O   O28       1.0  0.59370  0.98372  0.20925  1.0000
  H   H5        1.0  0.86030  0.54010  0.26480  1.0000
  H   H6        1.0  0.36030  0.95990  0.76480  1.0000
  H   H7        1.0  0.13970  0.45990  0.73520  1.0000
  H   H8        1.0  0.63970  0.04010  0.23520  1.0000
  C   C1        1.0  0.16910  0.47860  0.30343  1.0000
  C   C2        1.0  0.66910  0.02140  0.80343  1.0000
  C   C3        1.0  0.83090  0.52140  0.69657  1.0000
  C   C4        1.0  0.33090  0.97860  0.19657  1.0000
  C   C5        1.0  0.26570  0.48940  0.22173  1.0000
  C   C6        1.0  0.76570  0.01060  0.72173  1.0000
  C   C7        1.0  0.73430  0.51060  0.77827  1.0000
  C   C8        1.0  0.23430  0.98940  0.27827  1.0000
  H   H9        1.0  0.23180  0.56220  0.19940  1.0000
  H   H10       1.0  0.73180  0.93780  0.69940  1.0000
  H   H11       1.0  0.76820  0.43780  0.80060  1.0000
  H   H12       1.0  0.26820  0.06220  0.30060  1.0000
  H   H13       1.0  0.18830  0.43580  0.18270  1.0000
  H   H14       1.0  0.68830  0.06420  0.68270  1.0000
  H   H15       1.0  0.81170  0.56420  0.81730  1.0000
  H   H16       1.0  0.31170  0.93580  0.31730  1.0000
  H   H17       1.0  0.43810  0.47720  0.23130  1.0000
  H   H18       1.0  0.93810  0.02280  0.73130  1.0000
  H   H19       1.0  0.56190  0.52280  0.76870  1.0000
  H   H20       1.0  0.06190  0.97720  0.26870  1.0000
