data_image0
_chemical_formula_structural       Mn4P8O6H2O8H2O6H2O8H2C4H6C4H6
_chemical_formula_sum              "Mn4 P8 O28 H20 C8"
_cell_length_a       5.6141
_cell_length_b       12.4252
_cell_length_c       16.4117
_cell_angle_alpha    90
_cell_angle_beta     98.925
_cell_angle_gamma    90

_space_group_name_H-M_alt    "P 1"
_space_group_IT_number       1

loop_
  _space_group_symop_operation_xyz
  'x, y, z'

loop_
  _atom_site_type_symbol
  _atom_site_label
  _atom_site_symmetry_multiplicity
  _atom_site_fract_x
  _atom_site_fract_y
  _atom_site_fract_z
  _atom_site_occupancy
  Mn  Mn1       1.0  0.02711  0.30859  0.16690  1.0000
  Mn  Mn2       1.0  0.97289  0.80859  0.83310  1.0000
  Mn  Mn3       1.0  0.43830  0.18626  0.32722  1.0000
  Mn  Mn4       1.0  0.56170  0.68626  0.67278  1.0000
  P   P1        1.0  0.47191  0.41307  0.09662  1.0000
  P   P2        1.0  0.52809  0.91307  0.90338  1.0000
  P   P3        1.0  0.50921  0.17260  0.12669  1.0000
  P   P4        1.0  0.49079  0.67260  0.87331  1.0000
  P   P5        1.0  0.99371  0.08322  0.39567  1.0000
  P   P6        1.0  0.00629  0.58322  0.60433  1.0000
  P   P7        1.0  0.95563  0.32519  0.36935  1.0000
  P   P8        1.0  0.04437  0.82519  0.63065  1.0000
  O   O1        1.0  0.74000  0.42220  0.12597  1.0000
  O   O2        1.0  0.26000  0.92220  0.87403  1.0000
  O   O3        1.0  0.30800  0.42560  0.16130  1.0000
  O   O4        1.0  0.69200  0.92560  0.83870  1.0000
  O   O5        1.0  0.38430  0.49480  0.02717  1.0000
  O   O6        1.0  0.61570  0.99480  0.97283  1.0000
  H   H1        1.0  0.49070  0.52470  0.97910  1.0000
  H   H2        1.0  0.50930  0.02470  0.02090  1.0000
  O   O7        1.0  0.78000  0.18040  0.14868  1.0000
  O   O8        1.0  0.22000  0.68040  0.85132  1.0000
  O   O9        1.0  0.36640  0.19140  0.19697  1.0000
  O   O10       1.0  0.63360  0.69140  0.80303  1.0000
  O   O11       1.0  0.43180  0.06240  0.08761  1.0000
  O   O12       1.0  0.56820  0.56240  0.91239  1.0000
  O   O13       1.0  0.14360  0.27250  0.03710  1.0000
  O   O14       1.0  0.85640  0.77250  0.96290  1.0000
  H   H3        1.0  0.09940  0.22000  0.00720  1.0000
  H   H4        1.0  0.90060  0.72000  0.99280  1.0000
  O   O15       1.0  0.72400  0.07490  0.36916  1.0000
  O   O16       1.0  0.27600  0.57490  0.63084  1.0000
  O   O17       1.0  0.14760  0.07440  0.32808  1.0000
  O   O18       1.0  0.85240  0.57440  0.67192  1.0000
  O   O19       1.0  0.08730  0.99890  0.46217  1.0000
  O   O20       1.0  0.91270  0.49890  0.53783  1.0000
  H   H5        1.0  0.02250  0.97660  0.52030  1.0000
  H   H6        1.0  0.97750  0.47660  0.47970  1.0000
  O   O21       1.0  0.09510  0.30920  0.29723  1.0000
  O   O22       1.0  0.90490  0.80920  0.70277  1.0000
  O   O23       1.0  0.68440  0.31610  0.34812  1.0000
  O   O24       1.0  0.31560  0.81610  0.65188  1.0000
  O   O25       1.0  0.03370  0.43350  0.41044  1.0000
  O   O26       1.0  0.96630  0.93350  0.58956  1.0000
  O   O27       1.0  0.32360  0.22280  0.45554  1.0000
  O   O28       1.0  0.67640  0.72280  0.54446  1.0000
  H   H7        1.0  0.36780  0.28110  0.47750  1.0000
  H   H8        1.0  0.63220  0.78110  0.52250  1.0000
  C   C1        1.0  0.40570  0.27810  0.05110  1.0000
  C   C2        1.0  0.59430  0.77810  0.94890  1.0000
  C   C3        1.0  0.51020  0.26710  0.97120  1.0000
  C   C4        1.0  0.48980  0.76710  0.02880  1.0000
  H   H9        1.0  0.45060  0.32520  0.93410  1.0000
  H   H10       1.0  0.54940  0.82520  0.06590  1.0000
  H   H11       1.0  0.46170  0.19860  0.94550  1.0000
  H   H12       1.0  0.53830  0.69860  0.05450  1.0000
  H   H13       1.0  0.68470  0.27060  0.98320  1.0000
  H   H14       1.0  0.31530  0.77060  0.01680  1.0000
  C   C5        1.0  0.06120  0.21700  0.44270  1.0000
  C   C6        1.0  0.93880  0.71700  0.55730  1.0000
  C   C7        1.0  0.95870  0.22710  0.52330  1.0000
  C   C8        1.0  0.04130  0.72710  0.47670  1.0000
  H   H15       1.0  0.99630  0.29770  0.54700  1.0000
  H   H16       1.0  0.00370  0.79770  0.45300  1.0000
  H   H17       1.0  0.02960  0.17220  0.56170  1.0000
  H   H18       1.0  0.97040  0.67220  0.43830  1.0000
  H   H19       1.0  0.78520  0.21760  0.51250  1.0000
  H   H20       1.0  0.21480  0.71760  0.48750  1.0000
