data_image0
_chemical_formula_structural       Fe2O14H4O2H4N2C4H2C4H2C8
_chemical_formula_sum              "Fe2 O16 H12 N2 C16"
_cell_length_a       9.0392
_cell_length_b       9.6027
_cell_length_c       15.554
_cell_angle_alpha    73.558
_cell_angle_beta     86.126
_cell_angle_gamma    68.745

_space_group_name_H-M_alt    "P 1"
_space_group_IT_number       1

loop_
  _space_group_symop_operation_xyz
  'x, y, z'

loop_
  _atom_site_type_symbol
  _atom_site_label
  _atom_site_symmetry_multiplicity
  _atom_site_fract_x
  _atom_site_fract_y
  _atom_site_fract_z
  _atom_site_occupancy
  Fe  Fe1       1.0  0.57368  0.94173  0.66653  1.0000
  Fe  Fe2       1.0  0.42632  0.05827  0.33347  1.0000
  O   O1        1.0  0.59300  0.06490  0.76360  1.0000
  O   O2        1.0  0.40700  0.93510  0.23640  1.0000
  O   O3        1.0  0.75510  0.13270  0.83100  1.0000
  O   O4        1.0  0.24490  0.86730  0.16900  1.0000
  O   O5        1.0  0.31960  0.00830  0.71370  1.0000
  O   O6        1.0  0.68040  0.99170  0.28630  1.0000
  O   O7        1.0  0.38710  0.86620  0.61980  1.0000
  O   O8        1.0  0.61290  0.13380  0.38020  1.0000
  O   O9        1.0  0.93740  0.74280  0.49930  1.0000
  O   O10       1.0  0.06260  0.25720  0.50070  1.0000
  O   O11       1.0  0.70730  0.81750  0.56780  1.0000
  O   O12       1.0  0.29270  0.18250  0.43220  1.0000
  O   O13       1.0  0.49680  0.15840  0.56460  1.0000
  O   O14       1.0  0.50320  0.84160  0.43540  1.0000
  H   H1        1.0  0.44300  0.16200  0.52200  1.0000
  H   H2        1.0  0.55700  0.83800  0.47800  1.0000
  H   H3        1.0  0.56500  0.20100  0.54700  1.0000
  H   H4        1.0  0.43500  0.79900  0.45300  1.0000
  O   O15       1.0  0.62930  0.74230  0.77350  1.0000
  O   O16       1.0  0.37070  0.25770  0.22650  1.0000
  H   H5        1.0  0.71800  0.70400  0.80200  1.0000
  H   H6        1.0  0.28200  0.29600  0.19800  1.0000
  H   H7        1.0  0.56700  0.69800  0.80100  1.0000
  H   H8        1.0  0.43300  0.30200  0.19900  1.0000
  N   N1        1.0  0.81290  0.93900  0.66500  1.0000
  N   N2        1.0  0.18710  0.06100  0.33500  1.0000
  C   C1        1.0  0.85700  0.00430  0.71960  1.0000
  C   C2        1.0  0.14300  0.99570  0.28040  1.0000
  C   C3        1.0  0.00920  0.00470  0.72190  1.0000
  C   C4        1.0  0.99080  0.99530  0.27810  1.0000
  H   H9        1.0  0.03710  0.05070  0.76030  1.0000
  H   H10       1.0  0.96290  0.94930  0.23970  1.0000
  C   C5        1.0  0.12000  0.93550  0.66620  1.0000
  C   C6        1.0  0.88000  0.06450  0.33380  1.0000
  C   C7        1.0  0.07370  0.87010  0.60930  1.0000
  C   C8        1.0  0.92630  0.12990  0.39070  1.0000
  H   H11       1.0  0.14520  0.82440  0.57060  1.0000
  H   H12       1.0  0.85480  0.17560  0.42940  1.0000
  C   C9        1.0  0.91800  0.87370  0.61110  1.0000
  C   C10       1.0  0.08200  0.12630  0.38890  1.0000
  C   C11       1.0  0.72590  0.07420  0.77710  1.0000
  C   C12       1.0  0.27410  0.92580  0.22290  1.0000
  C   C13       1.0  0.28730  0.93650  0.66640  1.0000
  C   C14       1.0  0.71270  0.06350  0.33360  1.0000
  C   C15       1.0  0.85070  0.80530  0.55380  1.0000
  C   C16       1.0  0.14930  0.19470  0.44620  1.0000
