data_image0
_chemical_formula_structural       Fe6P6O16H2O8H2O16C8
_chemical_formula_sum              "Fe6 P6 O40 H4 C8"
_cell_length_a       9.6367
_cell_length_b       10.176
_cell_length_c       12.6164
_cell_angle_alpha    86.302
_cell_angle_beta     68.88
_cell_angle_gamma    61.8

_space_group_name_H-M_alt    "P 1"
_space_group_IT_number       1

loop_
  _space_group_symop_operation_xyz
  'x, y, z'

loop_
  _atom_site_type_symbol
  _atom_site_label
  _atom_site_symmetry_multiplicity
  _atom_site_fract_x
  _atom_site_fract_y
  _atom_site_fract_z
  _atom_site_occupancy
  Fe  Fe1       1.0  0.09655  0.15034  0.33713  1.0000
  Fe  Fe2       1.0  0.90345  0.84966  0.66287  1.0000
  Fe  Fe3       1.0  0.86291  0.92271  0.16702  1.0000
  Fe  Fe4       1.0  0.13709  0.07729  0.83298  1.0000
  Fe  Fe5       1.0  0.26192  0.23158  0.57679  1.0000
  Fe  Fe6       1.0  0.73808  0.76842  0.42321  1.0000
  P   P1        1.0  0.47679  0.02234  0.32227  1.0000
  P   P2        1.0  0.52321  0.97766  0.67773  1.0000
  P   P3        1.0  0.89140  0.96335  0.41685  1.0000
  P   P4        1.0  0.10860  0.03665  0.58315  1.0000
  P   P5        1.0  0.00401  0.16191  0.11181  1.0000
  P   P6        1.0  0.99599  0.83809  0.88819  1.0000
  O   O1        1.0  0.61580  0.02560  0.21480  1.0000
  O   O2        1.0  0.38420  0.97440  0.78520  1.0000
  O   O3        1.0  0.34040  0.02890  0.28150  1.0000
  O   O4        1.0  0.65960  0.97110  0.71850  1.0000
  O   O5        1.0  0.40880  0.15650  0.40890  1.0000
  O   O6        1.0  0.59120  0.84350  0.59110  1.0000
  O   O7        1.0  0.53920  0.87330  0.37260  1.0000
  O   O8        1.0  0.46080  0.12670  0.62740  1.0000
  O   O9        1.0  0.04190  0.98630  0.35090  1.0000
  O   O10       1.0  0.95810  0.01370  0.64910  1.0000
  O   O11       1.0  0.92580  0.84910  0.50050  1.0000
  O   O12       1.0  0.07420  0.15090  0.49950  1.0000
  O   O13       1.0  0.83710  0.90690  0.33660  1.0000
  O   O14       1.0  0.16290  0.09310  0.66340  1.0000
  O   O15       1.0  0.73910  0.12090  0.48100  1.0000
  O   O16       1.0  0.26090  0.87910  0.51900  1.0000
  H   H1        1.0  0.63580  0.13480  0.52560  1.0000
  H   H2        1.0  0.36420  0.86520  0.47440  1.0000
  O   O17       1.0  0.11430  0.07890  0.99220  1.0000
  O   O18       1.0  0.88570  0.92110  0.00780  1.0000
  O   O19       1.0  0.87640  0.10770  0.17600  1.0000
  O   O20       1.0  0.12360  0.89230  0.82400  1.0000
  O   O21       1.0  0.11870  0.14980  0.17380  1.0000
  O   O22       1.0  0.88130  0.85020  0.82620  1.0000
  O   O23       1.0  0.88900  0.33410  0.10870  1.0000
  O   O24       1.0  0.11100  0.66590  0.89130  1.0000
  H   H3        1.0  0.93520  0.40170  0.10530  1.0000
  H   H4        1.0  0.06480  0.59830  0.89470  1.0000
  O   O25       1.0  0.13350  0.33760  0.32690  1.0000
  O   O26       1.0  0.86650  0.66240  0.67310  1.0000
  O   O27       1.0  0.98650  0.58800  0.37080  1.0000
  O   O28       1.0  0.01350  0.41200  0.62920  1.0000
  O   O29       1.0  0.84920  0.32450  0.38680  1.0000
  O   O30       1.0  0.15080  0.67550  0.61320  1.0000
  O   O31       1.0  0.69680  0.57210  0.44100  1.0000
  O   O32       1.0  0.30320  0.42790  0.55900  1.0000
  O   O33       1.0  0.87310  0.71490  0.16660  1.0000
  O   O34       1.0  0.12690  0.28510  0.83340  1.0000
  O   O35       1.0  0.06150  0.47120  0.10790  1.0000
  O   O36       1.0  0.93850  0.52880  0.89210  1.0000
  O   O37       1.0  0.11640  0.78190  0.12910  1.0000
  O   O38       1.0  0.88360  0.21810  0.87090  1.0000
  O   O39       1.0  0.30790  0.54040  0.10190  1.0000
  O   O40       1.0  0.69210  0.45960  0.89810  1.0000
  C   C1        1.0  0.99960  0.46030  0.36420  1.0000
  C   C2        1.0  0.00040  0.53970  0.63580  1.0000
  C   C3        1.0  0.83220  0.45310  0.40200  1.0000
  C   C4        1.0  0.16780  0.54690  0.59800  1.0000
  C   C5        1.0  0.02080  0.60310  0.13100  1.0000
  C   C6        1.0  0.97920  0.39690  0.86900  1.0000
  C   C7        1.0  0.16330  0.64270  0.11840  1.0000
  C   C8        1.0  0.83670  0.35730  0.88160  1.0000
