data_image0
_chemical_formula_structural       Zn8O48N16H8C24H8C8H8C8H8C8H8C8H8C16H8C16H8C16H8C24
_chemical_formula_sum              "Zn8 O48 N16 H72 C128"
_cell_length_a       13.9626
_cell_length_b       16.2685
_cell_length_c       19.2912
_cell_angle_alpha    90
_cell_angle_beta     90
_cell_angle_gamma    90

_space_group_name_H-M_alt    "P 1"
_space_group_IT_number       1

loop_
  _space_group_symop_operation_xyz
  'x, y, z'

loop_
  _atom_site_type_symbol
  _atom_site_label
  _atom_site_symmetry_multiplicity
  _atom_site_fract_x
  _atom_site_fract_y
  _atom_site_fract_z
  _atom_site_occupancy
  Zn  Zn1       1.0  0.72317  0.13464  0.57333  1.0000
  Zn  Zn2       1.0  0.77683  0.86536  0.07333  1.0000
  Zn  Zn3       1.0  0.27683  0.63464  0.92667  1.0000
  Zn  Zn4       1.0  0.22317  0.36536  0.42667  1.0000
  Zn  Zn5       1.0  0.27683  0.86536  0.42667  1.0000
  Zn  Zn6       1.0  0.22317  0.13464  0.92667  1.0000
  Zn  Zn7       1.0  0.72317  0.36536  0.07333  1.0000
  Zn  Zn8       1.0  0.77683  0.63464  0.57333  1.0000
  O   O1        1.0  0.85695  0.16806  0.58324  1.0000
  O   O2        1.0  0.64305  0.83194  0.08324  1.0000
  O   O3        1.0  0.14305  0.66806  0.91676  1.0000
  O   O4        1.0  0.35695  0.33194  0.41676  1.0000
  O   O5        1.0  0.14305  0.83194  0.41676  1.0000
  O   O6        1.0  0.35695  0.16806  0.91676  1.0000
  O   O7        1.0  0.85695  0.33194  0.08324  1.0000
  O   O8        1.0  0.64305  0.66806  0.58324  1.0000
  O   O9        1.0  0.87252  0.08729  0.67538  1.0000
  O   O10       1.0  0.62748  0.91271  0.17538  1.0000
  O   O11       1.0  0.12748  0.58729  0.82462  1.0000
  O   O12       1.0  0.37252  0.41271  0.32462  1.0000
  O   O13       1.0  0.12748  0.91271  0.32462  1.0000
  O   O14       1.0  0.37252  0.08729  0.82462  1.0000
  O   O15       1.0  0.87252  0.41271  0.17538  1.0000
  O   O16       1.0  0.62748  0.58729  0.67538  1.0000
  O   O17       1.0  0.14764  0.15019  0.84079  1.0000
  O   O18       1.0  0.35236  0.84981  0.34079  1.0000
  O   O19       1.0  0.85236  0.65019  0.65921  1.0000
  O   O20       1.0  0.64764  0.34981  0.15921  1.0000
  O   O21       1.0  0.85236  0.84981  0.15921  1.0000
  O   O22       1.0  0.64764  0.15019  0.65921  1.0000
  O   O23       1.0  0.14764  0.34981  0.34079  1.0000
  O   O24       1.0  0.35236  0.65019  0.84079  1.0000
  O   O25       1.0  0.21410  0.27267  0.82316  1.0000
  O   O26       1.0  0.28590  0.72733  0.32316  1.0000
  O   O27       1.0  0.78590  0.77267  0.67684  1.0000
  O   O28       1.0  0.71410  0.22733  0.17684  1.0000
  O   O29       1.0  0.78590  0.72733  0.17684  1.0000
  O   O30       1.0  0.71410  0.27267  0.67684  1.0000
  O   O31       1.0  0.21410  0.22733  0.32316  1.0000
  O   O32       1.0  0.28590  0.77267  0.82316  1.0000
  O   O33       1.0  0.26173  0.34482  0.57316  1.0000
  O   O34       1.0  0.23827  0.65518  0.07316  1.0000
  O   O35       1.0  0.73827  0.84482  0.92684  1.0000
  O   O36       1.0  0.76173  0.15518  0.42684  1.0000
  O   O37       1.0  0.73827  0.65518  0.42684  1.0000
  O   O38       1.0  0.76173  0.34482  0.92684  1.0000
  O   O39       1.0  0.26173  0.15518  0.07316  1.0000
  O   O40       1.0  0.23827  0.84482  0.57316  1.0000
  O   O41       1.0  0.15974  0.29549  0.49619  1.0000
  O   O42       1.0  0.34026  0.70451  0.99619  1.0000
  O   O43       1.0  0.84026  0.79549  0.00381  1.0000
  O   O44       1.0  0.65974  0.20451  0.50381  1.0000
  O   O45       1.0  0.84026  0.70451  0.50381  1.0000
  O   O46       1.0  0.65974  0.29549  0.00381  1.0000
  O   O47       1.0  0.15974  0.20451  0.99619  1.0000
  O   O48       1.0  0.34026  0.79549  0.49619  1.0000
  N   N1        1.0  0.70860  0.01340  0.55470  1.0000
  N   N2        1.0  0.79140  0.98660  0.05470  1.0000
  N   N3        1.0  0.29140  0.51340  0.94530  1.0000
  N   N4        1.0  0.20860  0.48660  0.44530  1.0000
  N   N5        1.0  0.29140  0.98660  0.44530  1.0000
  N   N6        1.0  0.20860  0.01340  0.94530  1.0000
  N   N7        1.0  0.70860  0.48660  0.05470  1.0000
  N   N8        1.0  0.79140  0.51340  0.55470  1.0000
  N   N9        1.0  0.72523  0.88045  0.57530  1.0000
  N   N10       1.0  0.77477  0.11955  0.07530  1.0000
  N   N11       1.0  0.27477  0.38045  0.92470  1.0000
  N   N12       1.0  0.22523  0.61955  0.42470  1.0000
  N   N13       1.0  0.27477  0.11955  0.42470  1.0000
  N   N14       1.0  0.22523  0.88045  0.92470  1.0000
  N   N15       1.0  0.72523  0.61955  0.07530  1.0000
  N   N16       1.0  0.77477  0.38045  0.57530  1.0000
  H   H1        1.0  0.74410  0.83590  0.59500  1.0000
  H   H2        1.0  0.75590  0.16410  0.09500  1.0000
  H   H3        1.0  0.25590  0.33590  0.90500  1.0000
  H   H4        1.0  0.24410  0.66410  0.40500  1.0000
  H   H5        1.0  0.25590  0.16410  0.40500  1.0000
  H   H6        1.0  0.24410  0.83590  0.90500  1.0000
  H   H7        1.0  0.74410  0.66410  0.09500  1.0000
  H   H8        1.0  0.75590  0.33590  0.59500  1.0000
  C   C1        1.0  0.65510  0.97006  0.50591  1.0000
  C   C2        1.0  0.84490  0.02994  0.00591  1.0000
  C   C3        1.0  0.34490  0.47006  0.99409  1.0000
  C   C4        1.0  0.15510  0.52994  0.49409  1.0000
  C   C5        1.0  0.34490  0.02994  0.49409  1.0000
  C   C6        1.0  0.15510  0.97006  0.99409  1.0000
  C   C7        1.0  0.65510  0.52994  0.00591  1.0000
  C   C8        1.0  0.84490  0.47006  0.50591  1.0000
  C   C9        1.0  0.66620  0.88607  0.51842  1.0000
  C   C10       1.0  0.83380  0.11393  0.01842  1.0000
  C   C11       1.0  0.33380  0.38607  0.98158  1.0000
  C   C12       1.0  0.16620  0.61393  0.48158  1.0000
  C   C13       1.0  0.33380  0.11393  0.48158  1.0000
  C   C14       1.0  0.16620  0.88607  0.98158  1.0000
  C   C15       1.0  0.66620  0.61393  0.01842  1.0000
  C   C16       1.0  0.83380  0.38607  0.51842  1.0000
  C   C17       1.0  0.62100  0.82640  0.47825  1.0000
  C   C18       1.0  0.87900  0.17360  0.97825  1.0000
  C   C19       1.0  0.37900  0.32640  0.02175  1.0000
  C   C20       1.0  0.12100  0.67360  0.52175  1.0000
  C   C21       1.0  0.37900  0.17360  0.52175  1.0000
  C   C22       1.0  0.12100  0.82640  0.02175  1.0000
  C   C23       1.0  0.62100  0.67360  0.97825  1.0000
  C   C24       1.0  0.87900  0.32640  0.47825  1.0000
  H   H9        1.0  0.62960  0.77060  0.48660  1.0000
  H   H10       1.0  0.87040  0.22940  0.98660  1.0000
  H   H11       1.0  0.37040  0.27060  0.01340  1.0000
  H   H12       1.0  0.12960  0.72940  0.51340  1.0000
  H   H13       1.0  0.37040  0.22940  0.51340  1.0000
  H   H14       1.0  0.12960  0.77060  0.01340  1.0000
  H   H15       1.0  0.62960  0.72940  0.98660  1.0000
  H   H16       1.0  0.87040  0.27060  0.48660  1.0000
  C   C25       1.0  0.56330  0.85420  0.42570  1.0000
  C   C26       1.0  0.93670  0.14580  0.92570  1.0000
  C   C27       1.0  0.43670  0.35420  0.07430  1.0000
  C   C28       1.0  0.06330  0.64580  0.57430  1.0000
  C   C29       1.0  0.43670  0.14580  0.57430  1.0000
  C   C30       1.0  0.06330  0.85420  0.07430  1.0000
  C   C31       1.0  0.56330  0.64580  0.92570  1.0000
  C   C32       1.0  0.93670  0.35420  0.42570  1.0000
  H   H17       1.0  0.53190  0.81630  0.39760  1.0000
  H   H18       1.0  0.96810  0.18370  0.89760  1.0000
  H   H19       1.0  0.46810  0.31630  0.10240  1.0000
  H   H20       1.0  0.03190  0.68370  0.60240  1.0000
  H   H21       1.0  0.46810  0.18370  0.60240  1.0000
  H   H22       1.0  0.03190  0.81630  0.10240  1.0000
  H   H23       1.0  0.53190  0.68370  0.89760  1.0000
  H   H24       1.0  0.96810  0.31630  0.39760  1.0000
  C   C33       1.0  0.55060  0.93780  0.41360  1.0000
  C   C34       1.0  0.94940  0.06220  0.91360  1.0000
  C   C35       1.0  0.44940  0.43780  0.08640  1.0000
  C   C36       1.0  0.05060  0.56220  0.58640  1.0000
  C   C37       1.0  0.44940  0.06220  0.58640  1.0000
  C   C38       1.0  0.05060  0.93780  0.08640  1.0000
  C   C39       1.0  0.55060  0.56220  0.91360  1.0000
  C   C40       1.0  0.94940  0.43780  0.41360  1.0000
  H   H25       1.0  0.51000  0.95420  0.37800  1.0000
  H   H26       1.0  0.99000  0.04580  0.87800  1.0000
  H   H27       1.0  0.49000  0.45420  0.12200  1.0000
  H   H28       1.0  0.01000  0.54580  0.62200  1.0000
  H   H29       1.0  0.49000  0.04580  0.62200  1.0000
  H   H30       1.0  0.01000  0.95420  0.12200  1.0000
  H   H31       1.0  0.51000  0.54580  0.87800  1.0000
  H   H32       1.0  0.99000  0.45420  0.37800  1.0000
  C   C41       1.0  0.59610  0.99690  0.45260  1.0000
  C   C42       1.0  0.90390  0.00310  0.95260  1.0000
  C   C43       1.0  0.40390  0.49690  0.04740  1.0000
  C   C44       1.0  0.09610  0.50310  0.54740  1.0000
  C   C45       1.0  0.40390  0.00310  0.54740  1.0000
  C   C46       1.0  0.09610  0.99690  0.04740  1.0000
  C   C47       1.0  0.59610  0.50310  0.95260  1.0000
  C   C48       1.0  0.90390  0.49690  0.45260  1.0000
  H   H33       1.0  0.58760  0.05250  0.44350  1.0000
  H   H34       1.0  0.91240  0.94750  0.94350  1.0000
  H   H35       1.0  0.41240  0.55250  0.05650  1.0000
  H   H36       1.0  0.08760  0.44750  0.55650  1.0000
  H   H37       1.0  0.41240  0.94750  0.55650  1.0000
  H   H38       1.0  0.08760  0.05250  0.05650  1.0000
  H   H39       1.0  0.58760  0.44750  0.94350  1.0000
  H   H40       1.0  0.91240  0.55250  0.44350  1.0000
  C   C49       1.0  0.74800  0.95730  0.59444  1.0000
  C   C50       1.0  0.75200  0.04270  0.09444  1.0000
  C   C51       1.0  0.25200  0.45730  0.90556  1.0000
  C   C52       1.0  0.24800  0.54270  0.40556  1.0000
  C   C53       1.0  0.25200  0.04270  0.40556  1.0000
  C   C54       1.0  0.24800  0.95730  0.90556  1.0000
  C   C55       1.0  0.74800  0.54270  0.09444  1.0000
  C   C56       1.0  0.75200  0.45730  0.59444  1.0000
  H   H41       1.0  0.78750  0.96950  0.63190  1.0000
  H   H42       1.0  0.71250  0.03050  0.13190  1.0000
  H   H43       1.0  0.21250  0.46950  0.86810  1.0000
  H   H44       1.0  0.28750  0.53050  0.36810  1.0000
  H   H45       1.0  0.21250  0.03050  0.36810  1.0000
  H   H46       1.0  0.28750  0.96950  0.86810  1.0000
  H   H47       1.0  0.78750  0.53050  0.13190  1.0000
  H   H48       1.0  0.71250  0.46950  0.63190  1.0000
  C   C57       1.0  0.99701  0.18211  0.65138  1.0000
  C   C58       1.0  0.50299  0.81789  0.15138  1.0000
  C   C59       1.0  0.00299  0.68211  0.84862  1.0000
  C   C60       1.0  0.49701  0.31789  0.34862  1.0000
  C   C61       1.0  0.00299  0.81789  0.34862  1.0000
  C   C62       1.0  0.49701  0.18211  0.84862  1.0000
  C   C63       1.0  0.99701  0.31789  0.15138  1.0000
  C   C64       1.0  0.50299  0.68211  0.65138  1.0000
  C   C65       1.0  0.03610  0.17663  0.71772  1.0000
  C   C66       1.0  0.46390  0.82337  0.21772  1.0000
  C   C67       1.0  0.96390  0.67663  0.78228  1.0000
  C   C68       1.0  0.53610  0.32337  0.28228  1.0000
  C   C69       1.0  0.96390  0.82337  0.28228  1.0000
  C   C70       1.0  0.53610  0.17663  0.78228  1.0000
  C   C71       1.0  0.03610  0.32337  0.21772  1.0000
  C   C72       1.0  0.46390  0.67663  0.71772  1.0000
  H   H49       1.0  0.00410  0.14750  0.75210  1.0000
  H   H50       1.0  0.49590  0.85250  0.25210  1.0000
  H   H51       1.0  0.99590  0.64750  0.74790  1.0000
  H   H52       1.0  0.50410  0.35250  0.24790  1.0000
  H   H53       1.0  0.99590  0.85250  0.24790  1.0000
  H   H54       1.0  0.50410  0.14750  0.74790  1.0000
  H   H55       1.0  0.00410  0.35250  0.25210  1.0000
  H   H56       1.0  0.49590  0.64750  0.75210  1.0000
  C   C73       1.0  0.12290  0.21466  0.73258  1.0000
  C   C74       1.0  0.37710  0.78534  0.23258  1.0000
  C   C75       1.0  0.87710  0.71466  0.76742  1.0000
  C   C76       1.0  0.62290  0.28534  0.26742  1.0000
  C   C77       1.0  0.87710  0.78534  0.26742  1.0000
  C   C78       1.0  0.62290  0.21466  0.76742  1.0000
  C   C79       1.0  0.12290  0.28534  0.23258  1.0000
  C   C80       1.0  0.37710  0.71466  0.73258  1.0000
  C   C81       1.0  0.17190  0.25492  0.68012  1.0000
  C   C82       1.0  0.32810  0.74508  0.18012  1.0000
  C   C83       1.0  0.82810  0.75492  0.81988  1.0000
  C   C84       1.0  0.67190  0.24508  0.31988  1.0000
  C   C85       1.0  0.82810  0.74508  0.31988  1.0000
  C   C86       1.0  0.67190  0.25492  0.81988  1.0000
  C   C87       1.0  0.17190  0.24508  0.18012  1.0000
  C   C88       1.0  0.32810  0.75492  0.68012  1.0000
  H   H57       1.0  0.23010  0.28010  0.68990  1.0000
  H   H58       1.0  0.26990  0.71990  0.18990  1.0000
  H   H59       1.0  0.76990  0.78010  0.81010  1.0000
  H   H60       1.0  0.73010  0.21990  0.31010  1.0000
  H   H61       1.0  0.76990  0.71990  0.31010  1.0000
  H   H62       1.0  0.73010  0.28010  0.81010  1.0000
  H   H63       1.0  0.23010  0.21990  0.18990  1.0000
  H   H64       1.0  0.26990  0.78010  0.68990  1.0000
  C   C89       1.0  0.13570  0.25829  0.61334  1.0000
  C   C90       1.0  0.36430  0.74171  0.11334  1.0000
  C   C91       1.0  0.86430  0.75829  0.88666  1.0000
  C   C92       1.0  0.63570  0.24171  0.38666  1.0000
  C   C93       1.0  0.86430  0.74171  0.38666  1.0000
  C   C94       1.0  0.63570  0.25829  0.88666  1.0000
  C   C95       1.0  0.13570  0.24171  0.11334  1.0000
  C   C96       1.0  0.36430  0.75829  0.61334  1.0000
  C   C97       1.0  0.04700  0.22309  0.59964  1.0000
  C   C98       1.0  0.45300  0.77691  0.09964  1.0000
  C   C99       1.0  0.95300  0.72309  0.90036  1.0000
  C   C100      1.0  0.54700  0.27691  0.40036  1.0000
  C   C101      1.0  0.95300  0.77691  0.40036  1.0000
  C   C102      1.0  0.54700  0.22309  0.90036  1.0000
  C   C103      1.0  0.04700  0.27691  0.09964  1.0000
  C   C104      1.0  0.45300  0.72309  0.59964  1.0000
  H   H65       1.0  0.02090  0.22700  0.55540  1.0000
  H   H66       1.0  0.47910  0.77300  0.05540  1.0000
  H   H67       1.0  0.97910  0.72700  0.94460  1.0000
  H   H68       1.0  0.52090  0.27300  0.44460  1.0000
  H   H69       1.0  0.97910  0.77300  0.44460  1.0000
  H   H70       1.0  0.52090  0.22700  0.94460  1.0000
  H   H71       1.0  0.02090  0.27300  0.05540  1.0000
  H   H72       1.0  0.47910  0.72700  0.55540  1.0000
  C   C105      1.0  0.90130  0.14199  0.63690  1.0000
  C   C106      1.0  0.59870  0.85801  0.13690  1.0000
  C   C107      1.0  0.09870  0.64199  0.86310  1.0000
  C   C108      1.0  0.40130  0.35801  0.36310  1.0000
  C   C109      1.0  0.09870  0.85801  0.36310  1.0000
  C   C110      1.0  0.40130  0.14199  0.86310  1.0000
  C   C111      1.0  0.90130  0.35801  0.13690  1.0000
  C   C112      1.0  0.59870  0.64199  0.63690  1.0000
  C   C113      1.0  0.16510  0.21310  0.80498  1.0000
  C   C114      1.0  0.33490  0.78690  0.30498  1.0000
  C   C115      1.0  0.83490  0.71310  0.69502  1.0000
  C   C116      1.0  0.66510  0.28690  0.19502  1.0000
  C   C117      1.0  0.83490  0.78690  0.19502  1.0000
  C   C118      1.0  0.66510  0.21310  0.69502  1.0000
  C   C119      1.0  0.16510  0.28690  0.30498  1.0000
  C   C120      1.0  0.33490  0.71310  0.80498  1.0000
  C   C121      1.0  0.19060  0.30258  0.55756  1.0000
  C   C122      1.0  0.30940  0.69742  0.05756  1.0000
  C   C123      1.0  0.80940  0.80258  0.94244  1.0000
  C   C124      1.0  0.69060  0.19742  0.44244  1.0000
  C   C125      1.0  0.80940  0.69742  0.44244  1.0000
  C   C126      1.0  0.69060  0.30258  0.94244  1.0000
  C   C127      1.0  0.19060  0.19742  0.05756  1.0000
  C   C128      1.0  0.30940  0.80258  0.55756  1.0000
