data_image0
_chemical_formula_structural       Ba2Ni4S16O8H4O10C16
_chemical_formula_sum              "Ba2 Ni4 S16 O18 H4 C16"
_cell_length_a       12.9028
_cell_length_b       13.1509
_cell_length_c       17.8132
_cell_angle_alpha    98.157
_cell_angle_beta     107.019
_cell_angle_gamma    95.762

_space_group_name_H-M_alt    "P 1"
_space_group_IT_number       1

loop_
  _space_group_symop_operation_xyz
  'x, y, z'

loop_
  _atom_site_type_symbol
  _atom_site_label
  _atom_site_symmetry_multiplicity
  _atom_site_fract_x
  _atom_site_fract_y
  _atom_site_fract_z
  _atom_site_occupancy
  Ba  Ba1       1.0  0.34361  0.91260  0.30706  1.0000
  Ba  Ba2       1.0  0.65639  0.08740  0.69294  1.0000
  Ni  Ni1       1.0  0.00000  1.00000  0.50000  1.0000
  Ni  Ni2       1.0  0.31706  0.40491  0.29918  1.0000
  Ni  Ni3       1.0  0.68294  0.59509  0.70082  1.0000
  Ni  Ni4       1.0  0.50000  0.00000  0.00000  1.0000
  S   S1        1.0  0.17143  0.98098  0.54014  1.0000
  S   S2        1.0  0.82857  0.01902  0.45986  1.0000
  S   S3        1.0  0.97531  0.91226  0.38116  1.0000
  S   S4        1.0  0.02469  0.08774  0.61884  1.0000
  S   S5        1.0  0.22704  0.49555  0.21413  1.0000
  S   S6        1.0  0.77296  0.50445  0.78587  1.0000
  S   S7        1.0  0.20736  0.26323  0.23232  1.0000
  S   S8        1.0  0.79264  0.73677  0.76768  1.0000
  S   S9        1.0  0.58906  0.00895  0.12667  1.0000
  S   S10       1.0  0.41094  0.99105  0.87333  1.0000
  S   S11       1.0  0.41988  0.54301  0.37609  1.0000
  S   S12       1.0  0.58012  0.45699  0.62391  1.0000
  S   S13       1.0  0.42319  0.31993  0.37818  1.0000
  S   S14       1.0  0.57681  0.68007  0.62182  1.0000
  S   S15       1.0  0.34246  0.97449  0.02143  1.0000
  S   S16       1.0  0.65754  0.02551  0.97857  1.0000
  O   O1        1.0  0.29488  0.94334  0.44948  1.0000
  O   O2        1.0  0.70512  0.05666  0.55052  1.0000
  O   O3        1.0  0.12680  0.86649  0.31649  1.0000
  O   O4        1.0  0.87320  0.13351  0.68351  1.0000
  O   O5        1.0  0.40700  0.12076  0.37881  1.0000
  O   O6        1.0  0.59300  0.87924  0.62119  1.0000
  O   O7        1.0  0.53710  0.92370  0.42707  1.0000
  O   O8        1.0  0.46290  0.07630  0.57293  1.0000
  H   H1        1.0  0.52983  0.88078  0.45980  1.0000
  H   H2        1.0  0.47017  0.11922  0.54020  1.0000
  H   H3        1.0  0.55425  0.98532  0.45837  1.0000
  H   H4        1.0  0.44575  0.01468  0.54163  1.0000
  O   O9        1.0  0.40890  0.73765  0.36648  1.0000
  O   O10       1.0  0.59110  0.26235  0.63352  1.0000
  O   O11       1.0  0.30280  0.91190  0.14463  1.0000
  O   O12       1.0  0.69720  0.08810  0.85537  1.0000
  O   O13       1.0  0.24770  0.69966  0.22728  1.0000
  O   O14       1.0  0.75230  0.30034  0.77272  1.0000
  O   O15       1.0  0.50880  0.97630  0.24239  1.0000
  O   O16       1.0  0.49120  0.02370  0.75761  1.0000
  O   O17       1.0  0.22420  0.07076  0.25246  1.0000
  O   O18       1.0  0.77580  0.92924  0.74754  1.0000
  C   C1        1.0  0.36770  0.19190  0.34753  1.0000
  C   C2        1.0  0.63230  0.80810  0.65247  1.0000
  C   C3        1.0  0.27930  0.62430  0.25579  1.0000
  C   C4        1.0  0.72070  0.37570  0.74421  1.0000
  C   C5        1.0  0.10520  0.90300  0.37685  1.0000
  C   C6        1.0  0.89480  0.09700  0.62315  1.0000
  C   C7        1.0  0.37260  0.64560  0.33580  1.0000
  C   C8        1.0  0.62740  0.35440  0.66420  1.0000
  C   C9        1.0  0.49110  0.97810  0.17098  1.0000
  C   C10       1.0  0.50890  0.02190  0.82902  1.0000
  C   C11       1.0  0.20110  0.94300  0.45360  1.0000
  C   C12       1.0  0.79890  0.05700  0.54640  1.0000
  C   C13       1.0  0.37150  0.94960  0.11682  1.0000
  C   C14       1.0  0.62850  0.05040  0.88318  1.0000
  C   C15       1.0  0.26290  0.16350  0.27550  1.0000
  C   C16       1.0  0.73710  0.83650  0.72450  1.0000
