data_image0
_chemical_formula_structural       Ba2Ni4S16O16C16
_chemical_formula_sum              "Ba2 Ni4 S16 O16 C16"
_cell_length_a       17.8107
_cell_length_b       12.7457
_cell_length_c       11.9587
_cell_angle_alpha    90
_cell_angle_beta     90
_cell_angle_gamma    90

_space_group_name_H-M_alt    "P 1"
_space_group_IT_number       1

loop_
  _space_group_symop_operation_xyz
  'x, y, z'

loop_
  _atom_site_type_symbol
  _atom_site_label
  _atom_site_symmetry_multiplicity
  _atom_site_fract_x
  _atom_site_fract_y
  _atom_site_fract_z
  _atom_site_occupancy
  Ba  Ba1       1.0  0.00000  1.00000  0.30293  1.0000
  Ba  Ba2       1.0  0.50000  0.50000  0.80293  1.0000
  Ni  Ni1       1.0  0.29019  0.82807  0.56631  1.0000
  Ni  Ni2       1.0  0.70981  0.17193  0.56631  1.0000
  Ni  Ni3       1.0  0.79019  0.67193  0.06631  1.0000
  Ni  Ni4       1.0  0.20981  0.32807  0.06631  1.0000
  S   S1        1.0  0.26857  0.85406  0.38959  1.0000
  S   S2        1.0  0.73143  0.14594  0.38959  1.0000
  S   S3        1.0  0.76857  0.64594  0.88959  1.0000
  S   S4        1.0  0.23143  0.35406  0.88959  1.0000
  S   S5        1.0  0.30998  0.80567  0.74402  1.0000
  S   S6        1.0  0.69002  0.19433  0.74402  1.0000
  S   S7        1.0  0.80998  0.69433  0.24402  1.0000
  S   S8        1.0  0.19002  0.30567  0.24402  1.0000
  S   S9        1.0  0.17447  0.85908  0.61183  1.0000
  S   S10       1.0  0.82553  0.14092  0.61183  1.0000
  S   S11       1.0  0.67447  0.64092  0.11183  1.0000
  S   S12       1.0  0.32553  0.35908  0.11183  1.0000
  S   S13       1.0  0.40486  0.78199  0.52457  1.0000
  S   S14       1.0  0.59514  0.21801  0.52457  1.0000
  S   S15       1.0  0.90486  0.71801  0.02457  1.0000
  S   S16       1.0  0.09514  0.28199  0.02457  1.0000
  O   O1        1.0  0.14409  0.91553  0.29430  1.0000
  O   O2        1.0  0.85591  0.08447  0.29430  1.0000
  O   O3        1.0  0.64409  0.58447  0.79430  1.0000
  O   O4        1.0  0.35591  0.41553  0.79430  1.0000
  O   O5        1.0  0.06251  0.91020  0.48280  1.0000
  O   O6        1.0  0.93749  0.08980  0.48280  1.0000
  O   O7        1.0  0.56251  0.58980  0.98280  1.0000
  O   O8        1.0  0.43749  0.41020  0.98280  1.0000
  O   O9        1.0  0.39735  0.65968  0.82370  1.0000
  O   O10       1.0  0.60265  0.34032  0.82370  1.0000
  O   O11       1.0  0.89735  0.84032  0.32370  1.0000
  O   O12       1.0  0.10265  0.15968  0.32370  1.0000
  O   O13       1.0  0.48369  0.64850  0.64130  1.0000
  O   O14       1.0  0.51631  0.35150  0.64130  1.0000
  O   O15       1.0  0.98369  0.85150  0.14130  1.0000
  O   O16       1.0  0.01631  0.14850  0.14130  1.0000
  C   C1        1.0  0.38070  0.71530  0.74460  1.0000
  C   C2        1.0  0.61930  0.28470  0.74460  1.0000
  C   C3        1.0  0.88070  0.78470  0.24460  1.0000
  C   C4        1.0  0.11930  0.21530  0.24460  1.0000
  C   C5        1.0  0.42922  0.70710  0.63800  1.0000
  C   C6        1.0  0.57078  0.29290  0.63800  1.0000
  C   C7        1.0  0.92922  0.79290  0.13800  1.0000
  C   C8        1.0  0.07078  0.20710  0.13800  1.0000
  C   C9        1.0  0.12917  0.88910  0.48940  1.0000
  C   C10       1.0  0.87083  0.11090  0.48940  1.0000
  C   C11       1.0  0.62917  0.61090  0.98940  1.0000
  C   C12       1.0  0.37083  0.38910  0.98940  1.0000
  C   C13       1.0  0.17616  0.89020  0.38030  1.0000
  C   C14       1.0  0.82384  0.10980  0.38030  1.0000
  C   C15       1.0  0.67616  0.60980  0.88030  1.0000
  C   C16       1.0  0.32384  0.39020  0.88030  1.0000
