data_image0
_chemical_formula_structural       Zn2C6O12
_chemical_formula_sum              "Zn2 C6 O12"
_cell_length_a       9.379
_cell_length_b       9.379
_cell_length_c       8.216
_cell_angle_alpha    90
_cell_angle_beta     90
_cell_angle_gamma    120

_space_group_name_H-M_alt    "P 1"
_space_group_IT_number       1

loop_
  _space_group_symop_operation_xyz
  'x, y, z'

loop_
  _atom_site_type_symbol
  _atom_site_label
  _atom_site_symmetry_multiplicity
  _atom_site_fract_x
  _atom_site_fract_y
  _atom_site_fract_z
  _atom_site_occupancy
  Zn  Zn1       1.0  0.33330  0.66670  0.50000  1.0000
  Zn  Zn2       1.0  0.66670  0.33330  0.50000  1.0000
  C   C1        1.0  0.45790  0.45790  0.41910  1.0000
  C   C2        1.0  0.54210  0.00000  0.41910  1.0000
  C   C3        1.0  0.00000  0.54210  0.41910  1.0000
  C   C4        1.0  0.54210  0.54210  0.58090  1.0000
  C   C5        1.0  0.45790  0.00000  0.58090  1.0000
  C   C6        1.0  0.00000  0.45790  0.58090  1.0000
  O   O1        1.0  0.35810  0.49520  0.35930  1.0000
  O   O2        1.0  0.50480  0.86290  0.35930  1.0000
  O   O3        1.0  0.13710  0.64190  0.35930  1.0000
  O   O4        1.0  0.50480  0.64190  0.64070  1.0000
  O   O5        1.0  0.35810  0.86290  0.64070  1.0000
  O   O6        1.0  0.13710  0.49520  0.64070  1.0000
  O   O7        1.0  0.64190  0.50480  0.64070  1.0000
  O   O8        1.0  0.49520  0.13710  0.64070  1.0000
  O   O9        1.0  0.86290  0.35810  0.64070  1.0000
  O   O10       1.0  0.49520  0.35810  0.35930  1.0000
  O   O11       1.0  0.64190  0.13710  0.35930  1.0000
  O   O12       1.0  0.86290  0.50480  0.35930  1.0000
