data_image0
_chemical_formula_structural       U8S8O64C8
_chemical_formula_sum              "U8 S8 O64 C8"
_cell_length_a       11.5793
_cell_length_b       17.3121
_cell_length_c       13.6938
_cell_angle_alpha    90
_cell_angle_beta     108.178
_cell_angle_gamma    90

_space_group_name_H-M_alt    "P 1"
_space_group_IT_number       1

loop_
  _space_group_symop_operation_xyz
  'x, y, z'

loop_
  _atom_site_type_symbol
  _atom_site_label
  _atom_site_symmetry_multiplicity
  _atom_site_fract_x
  _atom_site_fract_y
  _atom_site_fract_z
  _atom_site_occupancy
  U   U1        1.0  0.80773  0.26299  0.29996  1.0000
  U   U2        1.0  0.19227  0.76299  0.20004  1.0000
  U   U3        1.0  0.19227  0.73701  0.70004  1.0000
  U   U4        1.0  0.80773  0.23701  0.79996  1.0000
  U   U5        1.0  0.37743  0.25238  0.92627  1.0000
  U   U6        1.0  0.62257  0.75238  0.57373  1.0000
  U   U7        1.0  0.62257  0.74762  0.07373  1.0000
  U   U8        1.0  0.37743  0.24762  0.42627  1.0000
  S   S1        1.0  0.48400  0.20532  0.20294  1.0000
  S   S2        1.0  0.51600  0.70532  0.29706  1.0000
  S   S3        1.0  0.51600  0.79468  0.79706  1.0000
  S   S4        1.0  0.48400  0.29468  0.70294  1.0000
  S   S5        1.0  0.71211  0.29052  0.02003  1.0000
  S   S6        1.0  0.28789  0.79052  0.47997  1.0000
  S   S7        1.0  0.28789  0.70948  0.97997  1.0000
  S   S8        1.0  0.71211  0.20948  0.52003  1.0000
  O   O1        1.0  0.78090  0.36380  0.29400  1.0000
  O   O2        1.0  0.21910  0.86380  0.20600  1.0000
  O   O3        1.0  0.21910  0.63620  0.70600  1.0000
  O   O4        1.0  0.78090  0.13620  0.79400  1.0000
  O   O5        1.0  0.84390  0.16440  0.30840  1.0000
  O   O6        1.0  0.15610  0.66440  0.19160  1.0000
  O   O7        1.0  0.15610  0.83560  0.69160  1.0000
  O   O8        1.0  0.84390  0.33560  0.80840  1.0000
  O   O9        1.0  0.33150  0.34960  0.93160  1.0000
  O   O10       1.0  0.66850  0.84960  0.56840  1.0000
  O   O11       1.0  0.66850  0.65040  0.06840  1.0000
  O   O12       1.0  0.33150  0.15040  0.43160  1.0000
  O   O13       1.0  0.41510  0.15390  0.91870  1.0000
  O   O14       1.0  0.58490  0.65390  0.58130  1.0000
  O   O15       1.0  0.58490  0.84610  0.08130  1.0000
  O   O16       1.0  0.41510  0.34610  0.41870  1.0000
  O   O17       1.0  0.60240  0.23850  0.25920  1.0000
  O   O18       1.0  0.39760  0.73850  0.24080  1.0000
  O   O19       1.0  0.39760  0.76150  0.74080  1.0000
  O   O20       1.0  0.60240  0.26150  0.75920  1.0000
  O   O21       1.0  0.43800  0.24920  0.10540  1.0000
  O   O22       1.0  0.56200  0.74920  0.39460  1.0000
  O   O23       1.0  0.56200  0.75080  0.89460  1.0000
  O   O24       1.0  0.43800  0.25080  0.60540  1.0000
  O   O25       1.0  0.57980  0.29250  0.97180  1.0000
  O   O26       1.0  0.42020  0.79250  0.52820  1.0000
  O   O27       1.0  0.42020  0.70750  0.02820  1.0000
  O   O28       1.0  0.57980  0.20750  0.47180  1.0000
  O   O29       1.0  0.73850  0.25150  0.12040  1.0000
  O   O30       1.0  0.26150  0.75150  0.37960  1.0000
  O   O31       1.0  0.26150  0.74850  0.87960  1.0000
  O   O32       1.0  0.73850  0.24850  0.62040  1.0000
  O   O33       1.0  0.98610  0.27800  0.24150  1.0000
  O   O34       1.0  0.01390  0.77800  0.25850  1.0000
  O   O35       1.0  0.01390  0.72200  0.75850  1.0000
  O   O36       1.0  0.98610  0.22200  0.74150  1.0000
  O   O37       1.0  0.99800  0.28890  0.43860  1.0000
  O   O38       1.0  0.00200  0.78890  0.06140  1.0000
  O   O39       1.0  0.00200  0.71110  0.56140  1.0000
  O   O40       1.0  0.99800  0.21110  0.93860  1.0000
  O   O41       1.0  0.76430  0.24040  0.95830  1.0000
  O   O42       1.0  0.23570  0.74040  0.54170  1.0000
  O   O43       1.0  0.23570  0.75960  0.04170  1.0000
  O   O44       1.0  0.76430  0.25960  0.45830  1.0000
  O   O45       1.0  0.20220  0.28140  0.48360  1.0000
  O   O46       1.0  0.79780  0.78140  0.01640  1.0000
  O   O47       1.0  0.79780  0.71860  0.51640  1.0000
  O   O48       1.0  0.20220  0.21860  0.98360  1.0000
  O   O49       1.0  0.18690  0.27310  0.28600  1.0000
  O   O50       1.0  0.81310  0.77310  0.21400  1.0000
  O   O51       1.0  0.81310  0.72690  0.71400  1.0000
  O   O52       1.0  0.18690  0.22690  0.78600  1.0000
  O   O53       1.0  0.40190  0.22260  0.26520  1.0000
  O   O54       1.0  0.59810  0.72260  0.23480  1.0000
  O   O55       1.0  0.59810  0.77740  0.73480  1.0000
  O   O56       1.0  0.40190  0.27740  0.76520  1.0000
  O   O57       1.0  0.49300  0.12570  0.18510  1.0000
  O   O58       1.0  0.50700  0.62570  0.31490  1.0000
  O   O59       1.0  0.50700  0.87430  0.81490  1.0000
  O   O60       1.0  0.49300  0.37430  0.68510  1.0000
  O   O61       1.0  0.76260  0.36590  0.02990  1.0000
  O   O62       1.0  0.23740  0.86590  0.47010  1.0000
  O   O63       1.0  0.23740  0.63410  0.97010  1.0000
  O   O64       1.0  0.76260  0.13410  0.52990  1.0000
  C   C1        1.0  0.09100  0.27770  0.30680  1.0000
  C   C2        1.0  0.90900  0.77770  0.19320  1.0000
  C   C3        1.0  0.90900  0.72230  0.69320  1.0000
  C   C4        1.0  0.09100  0.22230  0.80680  1.0000
  C   C5        1.0  0.09870  0.28340  0.42100  1.0000
  C   C6        1.0  0.90130  0.78340  0.07900  1.0000
  C   C7        1.0  0.90130  0.71660  0.57900  1.0000
  C   C8        1.0  0.09870  0.21660  0.92100  1.0000
