data_image0
_chemical_formula_structural       U4S4O32C4
_chemical_formula_sum              "U4 S4 O32 C4"
_cell_length_a       9.4276
_cell_length_b       11.5537
_cell_length_c       13.687
_cell_angle_alpha    108.37
_cell_angle_beta     108.493
_cell_angle_gamma    99.417

_space_group_name_H-M_alt    "P 1"
_space_group_IT_number       1

loop_
  _space_group_symop_operation_xyz
  'x, y, z'

loop_
  _atom_site_type_symbol
  _atom_site_label
  _atom_site_symmetry_multiplicity
  _atom_site_fract_x
  _atom_site_fract_y
  _atom_site_fract_z
  _atom_site_occupancy
  U   U1        1.0  0.97855  0.71583  0.67982  1.0000
  U   U2        1.0  0.02145  0.28417  0.32018  1.0000
  U   U3        1.0  0.00586  0.29492  0.81809  1.0000
  U   U4        1.0  0.99414  0.70508  0.18191  1.0000
  S   S1        1.0  0.08220  0.41150  0.61500  1.0000
  S   S2        1.0  0.91780  0.58850  0.38500  1.0000
  S   S3        1.0  0.91880  0.35340  0.06570  1.0000
  S   S4        1.0  0.08120  0.64660  0.93430  1.0000
  O   O1        1.0  0.17960  0.79860  0.74570  1.0000
  O   O2        1.0  0.82040  0.20140  0.25430  1.0000
  O   O3        1.0  0.77380  0.64220  0.61540  1.0000
  O   O4        1.0  0.22620  0.35780  0.38460  1.0000
  O   O5        1.0  0.19990  0.28930  0.86760  1.0000
  O   O6        1.0  0.80010  0.71070  0.13240  1.0000
  O   O7        1.0  0.80740  0.29270  0.76550  1.0000
  O   O8        1.0  0.19260  0.70730  0.23450  1.0000
  O   O9        1.0  0.92610  0.89490  0.80370  1.0000
  O   O10       1.0  0.07390  0.10510  0.19630  1.0000
  O   O11       1.0  0.95180  0.88850  0.61510  1.0000
  O   O12       1.0  0.04820  0.11150  0.38490  1.0000
  O   O13       1.0  0.02650  0.52100  0.64690  1.0000
  O   O14       1.0  0.97350  0.47900  0.35310  1.0000
  O   O15       1.0  0.03150  0.32890  0.66590  1.0000
  O   O16       1.0  0.96850  0.67110  0.33410  1.0000
  O   O17       1.0  0.01680  0.36330  0.00180  1.0000
  O   O18       1.0  0.98320  0.63670  0.99820  1.0000
  O   O19       1.0  0.94560  0.09250  0.65970  1.0000
  O   O20       1.0  0.05440  0.90750  0.34030  1.0000
  O   O21       1.0  0.93950  0.10390  0.85630  1.0000
  O   O22       1.0  0.06050  0.89610  0.14370  1.0000
  O   O23       1.0  0.24260  0.45190  0.64700  1.0000
  O   O24       1.0  0.75740  0.54810  0.35300  1.0000
  O   O25       1.0  0.99840  0.33970  0.49070  1.0000
  O   O26       1.0  0.00160  0.66030  0.50930  1.0000
  O   O27       1.0  0.77090  0.25740  0.99910  1.0000
  O   O28       1.0  0.22910  0.74260  0.00090  1.0000
  O   O29       1.0  0.90000  0.48110  0.11430  1.0000
  O   O30       1.0  0.10000  0.51890  0.88570  1.0000
  O   O31       1.0  0.01490  0.32490  0.16040  1.0000
  O   O32       1.0  0.98510  0.67510  0.83960  1.0000
  C   C1        1.0  0.93740  0.99690  0.78870  1.0000
  C   C2        1.0  0.06260  0.00310  0.21130  1.0000
  C   C3        1.0  0.94250  0.99300  0.67830  1.0000
  C   C4        1.0  0.05750  0.00700  0.32170  1.0000
