data_image0
_chemical_formula_structural       Cu8O34H2O2H4O2H4C6H2C4H2C4H2C10H2C2H2C2H2C10H2C4H2C4H2C10H2C2H2C2H2C4
_chemical_formula_sum              "Cu8 O38 H34 C64"
_cell_length_a       12.429
_cell_length_b       12.712
_cell_length_c       15.821
_cell_angle_alpha    98.159
_cell_angle_beta     92.873
_cell_angle_gamma    93.267

_space_group_name_H-M_alt    "P 1"
_space_group_IT_number       1

loop_
  _space_group_symop_operation_xyz
  'x, y, z'

loop_
  _atom_site_type_symbol
  _atom_site_label
  _atom_site_symmetry_multiplicity
  _atom_site_fract_x
  _atom_site_fract_y
  _atom_site_fract_z
  _atom_site_occupancy
  Cu  Cu1       1.0  0.92623  0.07248  0.50629  1.0000
  Cu  Cu2       1.0  0.07377  0.92752  0.49371  1.0000
  Cu  Cu3       1.0  0.84902  0.35586  0.07176  1.0000
  Cu  Cu4       1.0  0.15098  0.64414  0.92824  1.0000
  Cu  Cu5       1.0  0.06662  0.50910  0.07950  1.0000
  Cu  Cu6       1.0  0.93338  0.49090  0.92050  1.0000
  Cu  Cu7       1.0  0.46409  0.41177  0.06711  1.0000
  Cu  Cu8       1.0  0.53591  0.58823  0.93289  1.0000
  O   O1        1.0  0.01650  0.12380  0.42080  1.0000
  O   O2        1.0  0.98350  0.87620  0.57920  1.0000
  O   O3        1.0  0.14770  0.00740  0.41180  1.0000
  O   O4        1.0  0.85230  0.99260  0.58820  1.0000
  O   O5        1.0  0.96020  0.31440  0.15820  1.0000
  O   O6        1.0  0.03980  0.68560  0.84180  1.0000
  O   O7        1.0  0.11460  0.40150  0.14400  1.0000
  O   O8        1.0  0.88540  0.59850  0.85600  1.0000
  O   O9        1.0  0.74260  0.28730  0.13600  1.0000
  O   O10       1.0  0.25740  0.71270  0.86400  1.0000
  O   O11       1.0  0.61170  0.39100  0.10710  1.0000
  O   O12       1.0  0.38830  0.60900  0.89290  1.0000
  O   O13       1.0  0.43710  0.35790  0.30890  1.0000
  O   O14       1.0  0.56290  0.64210  0.69110  1.0000
  O   O15       1.0  0.42250  0.41820  0.18320  1.0000
  O   O16       1.0  0.57750  0.58180  0.81680  1.0000
  O   O17       1.0  0.80560  0.52370  0.09460  1.0000
  O   O18       1.0  0.19440  0.47630  0.90540  1.0000
  O   O19       1.0  0.95680  0.58070  0.17360  1.0000
  O   O20       1.0  0.04320  0.41930  0.82640  1.0000
  O   O21       1.0  0.96670  0.86700  0.40180  1.0000
  O   O22       1.0  0.03330  0.13300  0.59820  1.0000
  O   O23       1.0  0.83720  0.98600  0.41280  1.0000
  O   O24       1.0  0.16280  0.01400  0.58720  1.0000
  O   O25       1.0  0.19510  0.59960  0.13250  1.0000
  O   O26       1.0  0.80490  0.40040  0.86750  1.0000
  O   O27       1.0  0.25170  0.69560  0.03210  1.0000
  O   O28       1.0  0.74830  0.30440  0.96790  1.0000
  O   O29       1.0  0.48790  0.59510  0.05080  1.0000
  O   O30       1.0  0.51210  0.40490  0.94920  1.0000
  O   O31       1.0  0.52750  0.76580  0.04230  1.0000
  O   O32       1.0  0.47250  0.23420  0.95770  1.0000
  O   O33       1.0  0.96470  0.40080  0.00680  1.0000
  O   O34       1.0  0.03530  0.59920  0.99320  1.0000
  H   H1        1.0  0.00330  0.33950  0.98260  1.0000
  H   H2        1.0  0.99670  0.66050  0.01740  1.0000
  O   O35       1.0  0.83850  0.21340  0.52630  1.0000
  O   O36       1.0  0.16150  0.78660  0.47370  1.0000
  H   H3        1.0  0.87380  0.26820  0.49970  1.0000
  H   H4        1.0  0.12620  0.73180  0.50030  1.0000
  H   H5        1.0  0.83670  0.23690  0.58660  1.0000
  H   H6        1.0  0.16330  0.76310  0.41340  1.0000
  O   O37       1.0  0.30950  0.41260  0.03320  1.0000
  O   O38       1.0  0.69050  0.58740  0.96680  1.0000
  H   H7        1.0  0.27100  0.35280  0.05130  1.0000
  H   H8        1.0  0.72900  0.64720  0.94870  1.0000
  H   H9        1.0  0.30070  0.40770  0.97210  1.0000
  H   H10       1.0  0.69930  0.59230  0.02790  1.0000
  C   C1        1.0  0.09880  0.08550  0.38780  1.0000
  C   C2        1.0  0.90120  0.91450  0.61220  1.0000
  C   C3        1.0  0.14310  0.13270  0.31700  1.0000
  C   C4        1.0  0.85690  0.86730  0.68300  1.0000
  C   C5        1.0  0.24540  0.11220  0.28910  1.0000
  C   C6        1.0  0.75460  0.88780  0.71090  1.0000
  H   H11       1.0  0.28480  0.06220  0.31260  1.0000
  H   H12       1.0  0.71520  0.93780  0.68740  1.0000
  C   C7        1.0  0.29070  0.16640  0.22530  1.0000
  C   C8        1.0  0.70930  0.83360  0.77470  1.0000
  C   C9        1.0  0.22770  0.23380  0.18760  1.0000
  C   C10       1.0  0.77230  0.76620  0.81240  1.0000
  H   H13       1.0  0.25570  0.26890  0.14500  1.0000
  H   H14       1.0  0.74430  0.73110  0.85500  1.0000
  C   C11       1.0  0.12130  0.25170  0.21160  1.0000
  C   C12       1.0  0.87870  0.74830  0.78840  1.0000
  C   C13       1.0  0.08080  0.20560  0.27910  1.0000
  C   C14       1.0  0.91920  0.79440  0.72090  1.0000
  H   H15       1.0  0.01390  0.22240  0.29910  1.0000
  H   H16       1.0  0.98610  0.77760  0.70090  1.0000
  C   C15       1.0  0.05760  0.32850  0.16660  1.0000
  C   C16       1.0  0.94240  0.67150  0.83340  1.0000
  C   C17       1.0  0.39730  0.14500  0.19180  1.0000
  C   C18       1.0  0.60270  0.85500  0.80820  1.0000
  C   C19       1.0  0.46920  0.23240  0.18440  1.0000
  C   C20       1.0  0.53080  0.76760  0.81560  1.0000
  C   C21       1.0  0.56720  0.21710  0.14580  1.0000
  C   C22       1.0  0.43280  0.78290  0.85420  1.0000
  C   C23       1.0  0.59030  0.11250  0.11330  1.0000
  C   C24       1.0  0.40970  0.88750  0.88670  1.0000
  H   H17       1.0  0.65250  0.09920  0.08420  1.0000
  H   H18       1.0  0.34750  0.90080  0.91580  1.0000
  C   C25       1.0  0.51770  0.02910  0.12590  1.0000
  C   C26       1.0  0.48230  0.97090  0.87410  1.0000
  H   H19       1.0  0.53460  0.95940  0.10770  1.0000
  H   H20       1.0  0.46540  0.04060  0.89230  1.0000
  C   C27       1.0  0.42160  0.04610  0.16430  1.0000
  C   C28       1.0  0.57840  0.95390  0.83570  1.0000
  H   H21       1.0  0.37440  0.98880  0.17080  1.0000
  H   H22       1.0  0.62560  0.01120  0.82920  1.0000
  C   C29       1.0  0.44270  0.34220  0.22880  1.0000
  C   C30       1.0  0.55730  0.65780  0.77120  1.0000
  C   C31       1.0  0.64170  0.30280  0.12600  1.0000
  C   C32       1.0  0.35830  0.69720  0.87400  1.0000
  C   C33       1.0  0.85750  0.58430  0.15360  1.0000
  C   C34       1.0  0.14250  0.41570  0.84640  1.0000
  C   C35       1.0  0.80170  0.67480  0.20250  1.0000
  C   C36       1.0  0.19830  0.32520  0.79750  1.0000
  C   C37       1.0  0.68880  0.67950  0.19480  1.0000
  C   C38       1.0  0.31120  0.32050  0.80520  1.0000
  H   H23       1.0  0.64730  0.62640  0.15900  1.0000
  H   H24       1.0  0.35270  0.37360  0.84100  1.0000
  C   C39       1.0  0.63870  0.76290  0.24030  1.0000
  C   C40       1.0  0.36130  0.23710  0.75970  1.0000
  C   C41       1.0  0.70000  0.83760  0.29610  1.0000
  C   C42       1.0  0.30000  0.16240  0.70390  1.0000
  H   H25       1.0  0.66670  0.89460  0.32510  1.0000
  H   H26       1.0  0.33330  0.10540  0.67490  1.0000
  C   C43       1.0  0.81220  0.83100  0.31090  1.0000
  C   C44       1.0  0.18780  0.16900  0.68910  1.0000
  C   C45       1.0  0.86010  0.74910  0.26240  1.0000
  C   C46       1.0  0.13990  0.25090  0.73760  1.0000
  H   H27       1.0  0.93410  0.74380  0.27030  1.0000
  H   H28       1.0  0.06590  0.25620  0.72970  1.0000
  C   C47       1.0  0.87690  0.90330  0.38060  1.0000
  C   C48       1.0  0.12310  0.09670  0.61940  1.0000
  C   C49       1.0  0.51770  0.76810  0.23860  1.0000
  C   C50       1.0  0.48230  0.23190  0.76140  1.0000
  C   C51       1.0  0.44720  0.72710  0.16680  1.0000
  C   C52       1.0  0.55280  0.27290  0.83320  1.0000
  C   C53       1.0  0.33350  0.72500  0.17770  1.0000
  C   C54       1.0  0.66650  0.27500  0.82230  1.0000
  C   C55       1.0  0.29220  0.77120  0.24960  1.0000
  C   C56       1.0  0.70780  0.22880  0.75040  1.0000
  H   H29       1.0  0.21790  0.77410  0.25280  1.0000
  H   H30       1.0  0.78210  0.22590  0.74720  1.0000
  C   C57       1.0  0.36000  0.81370  0.31770  1.0000
  C   C58       1.0  0.64000  0.18630  0.68230  1.0000
  H   H31       1.0  0.33160  0.84260  0.36850  1.0000
  H   H32       1.0  0.66840  0.15740  0.63150  1.0000
  C   C59       1.0  0.47100  0.81410  0.31210  1.0000
  C   C60       1.0  0.52900  0.18590  0.68790  1.0000
  H   H33       1.0  0.51570  0.84600  0.35880  1.0000
  H   H34       1.0  0.48430  0.15400  0.64120  1.0000
  C   C61       1.0  0.25240  0.66710  0.10770  1.0000
  C   C62       1.0  0.74760  0.33290  0.89230  1.0000
  C   C63       1.0  0.49080  0.69520  0.08100  1.0000
  C   C64       1.0  0.50920  0.30480  0.91900  1.0000
