data_image0
_chemical_formula_structural       Zn8P12O12H4O4H4O20H4O4H4O20H4O4H4O8C4H4C8H4C8H4C4
_chemical_formula_sum              "Zn8 P12 O72 H36 C24"
_cell_length_a       8.9974
_cell_length_b       18.013
_cell_length_c       16.632
_cell_angle_alpha    90
_cell_angle_beta     100.462
_cell_angle_gamma    90

_space_group_name_H-M_alt    "P 1"
_space_group_IT_number       1

loop_
  _space_group_symop_operation_xyz
  'x, y, z'

loop_
  _atom_site_type_symbol
  _atom_site_label
  _atom_site_symmetry_multiplicity
  _atom_site_fract_x
  _atom_site_fract_y
  _atom_site_fract_z
  _atom_site_occupancy
  Zn  Zn1       1.0  0.05985  0.02323  0.15488  1.0000
  Zn  Zn2       1.0  0.44015  0.52323  0.34512  1.0000
  Zn  Zn3       1.0  0.94015  0.97677  0.84512  1.0000
  Zn  Zn4       1.0  0.55985  0.47677  0.65488  1.0000
  Zn  Zn5       1.0  0.58950  0.82422  0.24627  1.0000
  Zn  Zn6       1.0  0.91050  0.32422  0.25373  1.0000
  Zn  Zn7       1.0  0.41050  0.17578  0.75373  1.0000
  Zn  Zn8       1.0  0.08950  0.67578  0.74627  1.0000
  P   P1        1.0  0.32610  0.98077  0.06700  1.0000
  P   P2        1.0  0.17390  0.48077  0.43300  1.0000
  P   P3        1.0  0.67390  0.01923  0.93300  1.0000
  P   P4        1.0  0.82610  0.51923  0.56700  1.0000
  P   P5        1.0  0.84680  0.25150  0.07836  1.0000
  P   P6        1.0  0.65320  0.75150  0.42164  1.0000
  P   P7        1.0  0.15320  0.74850  0.92164  1.0000
  P   P8        1.0  0.34680  0.24850  0.57836  1.0000
  P   P9        1.0  0.84200  0.79864  0.13474  1.0000
  P   P10       1.0  0.65800  0.29864  0.36526  1.0000
  P   P11       1.0  0.15800  0.20136  0.86526  1.0000
  P   P12       1.0  0.34200  0.70136  0.63474  1.0000
  O   O1        1.0  0.18680  0.02710  0.06550  1.0000
  O   O2        1.0  0.31320  0.52710  0.43450  1.0000
  O   O3        1.0  0.81320  0.97290  0.93450  1.0000
  O   O4        1.0  0.68680  0.47290  0.56550  1.0000
  O   O5        1.0  0.34240  0.95340  0.98290  1.0000
  O   O6        1.0  0.15760  0.45340  0.51710  1.0000
  O   O7        1.0  0.65760  0.04660  0.01710  1.0000
  O   O8        1.0  0.84240  0.54660  0.48290  1.0000
  O   O9        1.0  0.46930  0.02290  0.10930  1.0000
  O   O10       1.0  0.03070  0.52290  0.39070  1.0000
  O   O11       1.0  0.53070  0.97710  0.89070  1.0000
  O   O12       1.0  0.96930  0.47710  0.60930  1.0000
  H   H1        1.0  0.52620  0.02910  0.07660  1.0000
  H   H2        1.0  0.97380  0.52910  0.42340  1.0000
  H   H3        1.0  0.47380  0.97090  0.92340  1.0000
  H   H4        1.0  0.02620  0.47090  0.57660  1.0000
  O   O13       1.0  0.43210  0.84910  0.12320  1.0000
  O   O14       1.0  0.06790  0.34910  0.37680  1.0000
  O   O15       1.0  0.56790  0.15090  0.87680  1.0000
  O   O16       1.0  0.93210  0.65090  0.62320  1.0000
  H   H5        1.0  0.40200  0.81810  0.08520  1.0000
  H   H6        1.0  0.09800  0.31810  0.41480  1.0000
  H   H7        1.0  0.59800  0.18190  0.91480  1.0000
  H   H8        1.0  0.90200  0.68190  0.58520  1.0000
  O   O17       1.0  0.42000  0.89290  0.27260  1.0000
  O   O18       1.0  0.08000  0.39290  0.22740  1.0000
  O   O19       1.0  0.58000  0.10710  0.72740  1.0000
  O   O20       1.0  0.92000  0.60710  0.77260  1.0000
  O   O21       1.0  0.22200  0.96590  0.23450  1.0000
  O   O22       1.0  0.27800  0.46590  0.26550  1.0000
  O   O23       1.0  0.77800  0.03410  0.76550  1.0000
  O   O24       1.0  0.72200  0.53410  0.73450  1.0000
  O   O25       1.0  0.80470  0.30810  0.13670  1.0000
  O   O26       1.0  0.69530  0.80810  0.36330  1.0000
  O   O27       1.0  0.19530  0.69190  0.86330  1.0000
  O   O28       1.0  0.30470  0.19190  0.63670  1.0000
  O   O29       1.0  0.72810  0.23540  0.00580  1.0000
  O   O30       1.0  0.77190  0.73540  0.49420  1.0000
  O   O31       1.0  0.27190  0.76460  0.99420  1.0000
  O   O32       1.0  0.22810  0.26460  0.50580  1.0000
  O   O33       1.0  0.00050  0.27660  0.05460  1.0000
  O   O34       1.0  0.49950  0.77660  0.44540  1.0000
  O   O35       1.0  0.99950  0.72340  0.94540  1.0000
  O   O36       1.0  0.50050  0.22340  0.55460  1.0000
  H   H9        1.0  0.01890  0.24920  0.01590  1.0000
  H   H10       1.0  0.48110  0.74920  0.48410  1.0000
  H   H11       1.0  0.98110  0.75080  0.98410  1.0000
  H   H12       1.0  0.51890  0.25080  0.51590  1.0000
  O   O37       1.0  0.91140  0.10520  0.08740  1.0000
  O   O38       1.0  0.58860  0.60520  0.41260  1.0000
  O   O39       1.0  0.08860  0.89480  0.91260  1.0000
  O   O40       1.0  0.41140  0.39480  0.58740  1.0000
  H   H13       1.0  0.82620  0.08520  0.06950  1.0000
  H   H14       1.0  0.67380  0.58520  0.43050  1.0000
  H   H15       1.0  0.17380  0.91480  0.93050  1.0000
  H   H16       1.0  0.32620  0.41480  0.56950  1.0000
  O   O41       1.0  0.12040  0.12050  0.21450  1.0000
  O   O42       1.0  0.37960  0.62050  0.28550  1.0000
  O   O43       1.0  0.87960  0.87950  0.78550  1.0000
  O   O44       1.0  0.62040  0.37950  0.71450  1.0000
  O   O45       1.0  0.04330  0.22880  0.25080  1.0000
  O   O46       1.0  0.45670  0.72880  0.24920  1.0000
  O   O47       1.0  0.95670  0.77120  0.74920  1.0000
  O   O48       1.0  0.54330  0.27120  0.75080  1.0000
  O   O49       1.0  0.71900  0.77020  0.17710  1.0000
  O   O50       1.0  0.78100  0.27020  0.32290  1.0000
  O   O51       1.0  0.28100  0.22980  0.82290  1.0000
  O   O52       1.0  0.21900  0.72980  0.67710  1.0000
  O   O53       1.0  0.83950  0.76580  0.05140  1.0000
  O   O54       1.0  0.66050  0.26580  0.44860  1.0000
  O   O55       1.0  0.16050  0.23420  0.94860  1.0000
  O   O56       1.0  0.33950  0.73420  0.55140  1.0000
  O   O57       1.0  0.99960  0.78930  0.19020  1.0000
  O   O58       1.0  0.50040  0.28930  0.30980  1.0000
  O   O59       1.0  0.00040  0.21070  0.80980  1.0000
  O   O60       1.0  0.49960  0.71070  0.69020  1.0000
  H   H17       1.0  0.05430  0.76200  0.16570  1.0000
  H   H18       1.0  0.44570  0.26200  0.33430  1.0000
  H   H19       1.0  0.94570  0.23800  0.83430  1.0000
  H   H20       1.0  0.55430  0.73800  0.66570  1.0000
  O   O61       1.0  0.94070  0.92870  0.08720  1.0000
  O   O62       1.0  0.55930  0.42870  0.41280  1.0000
  O   O63       1.0  0.05930  0.07130  0.91280  1.0000
  O   O64       1.0  0.44070  0.57130  0.58720  1.0000
  H   H21       1.0  0.90700  0.94350  0.03880  1.0000
  H   H22       1.0  0.59300  0.44350  0.46120  1.0000
  H   H23       1.0  0.09300  0.05650  0.96120  1.0000
  H   H24       1.0  0.40700  0.55650  0.53880  1.0000
  O   O65       1.0  0.89860  0.99600  0.22180  1.0000
  O   O66       1.0  0.60140  0.49600  0.27820  1.0000
  O   O67       1.0  0.10140  0.00400  0.77820  1.0000
  O   O68       1.0  0.39860  0.50400  0.72180  1.0000
  O   O69       1.0  0.71720  0.91970  0.24400  1.0000
  O   O70       1.0  0.78280  0.41970  0.25600  1.0000
  O   O71       1.0  0.28280  0.08030  0.75600  1.0000
  O   O72       1.0  0.21720  0.58030  0.74400  1.0000
  C   C1        1.0  0.31390  0.89910  0.13080  1.0000
  C   C2        1.0  0.18610  0.39910  0.36920  1.0000
  C   C3        1.0  0.68610  0.10090  0.86920  1.0000
  C   C4        1.0  0.81390  0.60090  0.63080  1.0000
  H   H25       1.0  0.21920  0.87490  0.11130  1.0000
  H   H26       1.0  0.28080  0.37490  0.38870  1.0000
  H   H27       1.0  0.78080  0.12510  0.88870  1.0000
  H   H28       1.0  0.71920  0.62510  0.61130  1.0000
  C   C5        1.0  0.31880  0.92010  0.21860  1.0000
  C   C6        1.0  0.18120  0.42010  0.28140  1.0000
  C   C7        1.0  0.68120  0.07990  0.78140  1.0000
  C   C8        1.0  0.81880  0.57990  0.71860  1.0000
  C   C9        1.0  0.88970  0.16630  0.13780  1.0000
  C   C10       1.0  0.61030  0.66630  0.36220  1.0000
  C   C11       1.0  0.11030  0.83370  0.86220  1.0000
  C   C12       1.0  0.38970  0.33370  0.63780  1.0000
  H   H29       1.0  0.80450  0.15540  0.16310  1.0000
  H   H30       1.0  0.69550  0.65540  0.33690  1.0000
  H   H31       1.0  0.19550  0.84460  0.83690  1.0000
  H   H32       1.0  0.30450  0.34460  0.66310  1.0000
  C   C13       1.0  0.02850  0.17270  0.20580  1.0000
  C   C14       1.0  0.47150  0.67270  0.29420  1.0000
  C   C15       1.0  0.97150  0.82730  0.79420  1.0000
  C   C16       1.0  0.52850  0.32730  0.70580  1.0000
  C   C17       1.0  0.81850  0.89960  0.12280  1.0000
  C   C18       1.0  0.68150  0.39960  0.37720  1.0000
  C   C19       1.0  0.18150  0.10040  0.87720  1.0000
  C   C20       1.0  0.31850  0.60040  0.62280  1.0000
  H   H33       1.0  0.72530  0.90890  0.08580  1.0000
  H   H34       1.0  0.77470  0.40890  0.41420  1.0000
  H   H35       1.0  0.27470  0.09110  0.91420  1.0000
  H   H36       1.0  0.22530  0.59110  0.58580  1.0000
  C   C21       1.0  0.81420  0.94170  0.20270  1.0000
  C   C22       1.0  0.68580  0.44170  0.29730  1.0000
  C   C23       1.0  0.18580  0.05830  0.79730  1.0000
  C   C24       1.0  0.31420  0.55830  0.70270  1.0000
