data_image0
_chemical_formula_structural       Mo40P40O168H4O8H4O8H4O8H4O12H4C28H4C4H4C4H4C4H4C4H4C4H4C4H4C4H4C4H4C4H4C4H4C4H4C4H4C12H4C4H4C4H4C12H4C4H4C4H4C4H4
_chemical_formula_sum              "Mo40 P40 O204 H100 C120"
_cell_length_a       20.8506
_cell_length_b       22.8656
_cell_length_c       21.1403
_cell_angle_alpha    90
_cell_angle_beta     118.709
_cell_angle_gamma    90

_space_group_name_H-M_alt    "P 1"
_space_group_IT_number       1

loop_
  _space_group_symop_operation_xyz
  'x, y, z'

loop_
  _atom_site_type_symbol
  _atom_site_label
  _atom_site_symmetry_multiplicity
  _atom_site_fract_x
  _atom_site_fract_y
  _atom_site_fract_z
  _atom_site_occupancy
  Mo  Mo1       1.0  0.31929  0.33967  0.08763  1.0000
  Mo  Mo2       1.0  0.31929  0.16033  0.58763  1.0000
  Mo  Mo3       1.0  0.68071  0.66033  0.91237  1.0000
  Mo  Mo4       1.0  0.68071  0.83967  0.41237  1.0000
  Mo  Mo5       1.0  0.02685  0.30086  0.10421  1.0000
  Mo  Mo6       1.0  0.02685  0.19914  0.60421  1.0000
  Mo  Mo7       1.0  0.97315  0.69914  0.89579  1.0000
  Mo  Mo8       1.0  0.97315  0.80086  0.39579  1.0000
  Mo  Mo9       1.0  0.04808  0.15566  0.11083  1.0000
  Mo  Mo10      1.0  0.04808  0.34434  0.61083  1.0000
  Mo  Mo11      1.0  0.95192  0.84434  0.88917  1.0000
  Mo  Mo12      1.0  0.95192  0.65566  0.38917  1.0000
  Mo  Mo13      1.0  0.34145  0.19405  0.09496  1.0000
  Mo  Mo14      1.0  0.34145  0.30595  0.59496  1.0000
  Mo  Mo15      1.0  0.65855  0.80595  0.90504  1.0000
  Mo  Mo16      1.0  0.65855  0.69405  0.40504  1.0000
  Mo  Mo17      1.0  0.17055  0.37921  0.26151  1.0000
  Mo  Mo18      1.0  0.17055  0.12079  0.76151  1.0000
  Mo  Mo19      1.0  0.82945  0.62079  0.73849  1.0000
  Mo  Mo20      1.0  0.82945  0.87921  0.23849  1.0000
  Mo  Mo21      1.0  0.36758  0.12775  0.26602  1.0000
  Mo  Mo22      1.0  0.36758  0.37225  0.76602  1.0000
  Mo  Mo23      1.0  0.63242  0.87225  0.73398  1.0000
  Mo  Mo24      1.0  0.63242  0.62775  0.23398  1.0000
  Mo  Mo25      1.0  0.21228  0.10418  0.27365  1.0000
  Mo  Mo26      1.0  0.21228  0.39582  0.77365  1.0000
  Mo  Mo27      1.0  0.78772  0.89582  0.72635  1.0000
  Mo  Mo28      1.0  0.78772  0.60418  0.22635  1.0000
  Mo  Mo29      1.0  0.32297  0.40359  0.24903  1.0000
  Mo  Mo30      1.0  0.32297  0.09641  0.74903  1.0000
  Mo  Mo31      1.0  0.67703  0.59641  0.75097  1.0000
  Mo  Mo32      1.0  0.67703  0.90359  0.25097  1.0000
  Mo  Mo33      1.0  0.78110  0.22685  0.11142  1.0000
  Mo  Mo34      1.0  0.78110  0.27315  0.61142  1.0000
  Mo  Mo35      1.0  0.21890  0.77315  0.88858  1.0000
  Mo  Mo36      1.0  0.21890  0.72685  0.38858  1.0000
  Mo  Mo37      1.0  0.60237  0.26598  0.09538  1.0000
  Mo  Mo38      1.0  0.60237  0.23402  0.59538  1.0000
  Mo  Mo39      1.0  0.39763  0.73402  0.90462  1.0000
  Mo  Mo40      1.0  0.39763  0.76598  0.40462  1.0000
  P   P1        1.0  0.38219  0.26846  0.25578  1.0000
  P   P2        1.0  0.38219  0.23154  0.75578  1.0000
  P   P3        1.0  0.61781  0.73154  0.74422  1.0000
  P   P4        1.0  0.61781  0.76846  0.24422  1.0000
  P   P5        1.0  0.16709  0.35352  0.09548  1.0000
  P   P6        1.0  0.16709  0.14648  0.59548  1.0000
  P   P7        1.0  0.83291  0.64648  0.90452  1.0000
  P   P8        1.0  0.83291  0.85352  0.40452  1.0000
  P   P9        1.0  0.15385  0.23861  0.26949  1.0000
  P   P10       1.0  0.15385  0.26139  0.76949  1.0000
  P   P11       1.0  0.84615  0.76139  0.73051  1.0000
  P   P12       1.0  0.84615  0.73861  0.23051  1.0000
  P   P13       1.0  0.20169  0.14073  0.10486  1.0000
  P   P14       1.0  0.20169  0.35927  0.60486  1.0000
  P   P15       1.0  0.79831  0.85927  0.89514  1.0000
  P   P16       1.0  0.79831  0.64073  0.39514  1.0000
  P   P17       1.0  0.96352  0.21911  0.18862  1.0000
  P   P18       1.0  0.96352  0.28089  0.68862  1.0000
  P   P19       1.0  0.03648  0.78089  0.81138  1.0000
  P   P20       1.0  0.03648  0.71911  0.31138  1.0000
  P   P21       1.0  0.48306  0.28120  0.16283  1.0000
  P   P22       1.0  0.48306  0.21880  0.66283  1.0000
  P   P23       1.0  0.51694  0.71880  0.83717  1.0000
  P   P24       1.0  0.51694  0.78120  0.33717  1.0000
  P   P25       1.0  0.27142  0.00843  0.19710  1.0000
  P   P26       1.0  0.27142  0.49157  0.69710  1.0000
  P   P27       1.0  0.72858  0.99157  0.80290  1.0000
  P   P28       1.0  0.72858  0.50843  0.30290  1.0000
  P   P29       1.0  0.72616  0.18219  0.23117  1.0000
  P   P30       1.0  0.72616  0.31781  0.73117  1.0000
  P   P31       1.0  0.27384  0.81781  0.76883  1.0000
  P   P32       1.0  0.27384  0.68219  0.26883  1.0000
  P   P33       1.0  0.18200  0.49287  0.17264  1.0000
  P   P34       1.0  0.18200  0.00713  0.67264  1.0000
  P   P35       1.0  0.81800  0.50713  0.82736  1.0000
  P   P36       1.0  0.81800  0.99287  0.32736  1.0000
  P   P37       1.0  0.76130  0.32341  0.22328  1.0000
  P   P38       1.0  0.76130  0.17659  0.72328  1.0000
  P   P39       1.0  0.23870  0.67659  0.77672  1.0000
  P   P40       1.0  0.23870  0.82341  0.27672  1.0000
  O   O1        1.0  0.12330  0.16210  0.07730  1.0000
  O   O2        1.0  0.12330  0.33790  0.57730  1.0000
  O   O3        1.0  0.87670  0.83790  0.92270  1.0000
  O   O4        1.0  0.87670  0.66210  0.42270  1.0000
  O   O5        1.0  0.21570  0.32930  0.06560  1.0000
  O   O6        1.0  0.21570  0.17070  0.56560  1.0000
  O   O7        1.0  0.78430  0.67070  0.93440  1.0000
  O   O8        1.0  0.78430  0.82930  0.43440  1.0000
  O   O9        1.0  0.65060  0.20670  0.18560  1.0000
  O   O10       1.0  0.65060  0.29330  0.68560  1.0000
  O   O11       1.0  0.34940  0.79330  0.81440  1.0000
  O   O12       1.0  0.34940  0.70670  0.31440  1.0000
  O   O13       1.0  0.20950  0.36320  0.17660  1.0000
  O   O14       1.0  0.20950  0.13680  0.67660  1.0000
  O   O15       1.0  0.79050  0.63680  0.82340  1.0000
  O   O16       1.0  0.79050  0.86320  0.32340  1.0000
  O   O17       1.0  0.31240  0.26390  0.04240  1.0000
  O   O18       1.0  0.31240  0.23610  0.54240  1.0000
  O   O19       1.0  0.68760  0.73610  0.95760  1.0000
  O   O20       1.0  0.68760  0.76390  0.45760  1.0000
  O   O21       1.0  0.19870  0.29510  0.29070  1.0000
  O   O22       1.0  0.19870  0.20490  0.79070  1.0000
  O   O23       1.0  0.80130  0.70490  0.70930  1.0000
  O   O24       1.0  0.80130  0.79510  0.20930  1.0000
  O   O25       1.0  0.10550  0.23400  0.18820  1.0000
  O   O26       1.0  0.10550  0.26600  0.68820  1.0000
  O   O27       1.0  0.89450  0.76600  0.81180  1.0000
  O   O28       1.0  0.89450  0.73400  0.31180  1.0000
  O   O29       1.0  0.80370  0.29660  0.19050  1.0000
  O   O30       1.0  0.80370  0.20340  0.69050  1.0000
  O   O31       1.0  0.19630  0.70340  0.80950  1.0000
  O   O32       1.0  0.19630  0.79660  0.30950  1.0000
  O   O33       1.0  0.24380  0.13810  0.18700  1.0000
  O   O34       1.0  0.24380  0.36190  0.68700  1.0000
  O   O35       1.0  0.75620  0.86190  0.81300  1.0000
  O   O36       1.0  0.75620  0.63810  0.31300  1.0000
  O   O37       1.0  0.00630  0.22540  0.06000  1.0000
  O   O38       1.0  0.00630  0.27460  0.56000  1.0000
  O   O39       1.0  0.99370  0.77460  0.94000  1.0000
  O   O40       1.0  0.99370  0.72540  0.44000  1.0000
  O   O41       1.0  0.23780  0.18260  0.07460  1.0000
  O   O42       1.0  0.23780  0.31740  0.57460  1.0000
  O   O43       1.0  0.76220  0.81740  0.92540  1.0000
  O   O44       1.0  0.76220  0.68260  0.42540  1.0000
  O   O45       1.0  0.08050  0.35220  0.18490  1.0000
  O   O46       1.0  0.08050  0.14780  0.68490  1.0000
  O   O47       1.0  0.91950  0.64780  0.81510  1.0000
  O   O48       1.0  0.91950  0.85220  0.31510  1.0000
  O   O49       1.0  0.11590  0.11320  0.19220  1.0000
  O   O50       1.0  0.11590  0.38680  0.69220  1.0000
  O   O51       1.0  0.88410  0.88680  0.80780  1.0000
  O   O52       1.0  0.88410  0.61320  0.30780  1.0000
  O   O53       1.0  0.35700  0.32100  0.28260  1.0000
  O   O54       1.0  0.35700  0.17900  0.78260  1.0000
  O   O55       1.0  0.64300  0.67900  0.71740  1.0000
  O   O56       1.0  0.64300  0.82100  0.21740  1.0000
  O   O57       1.0  0.14720  0.45710  0.21010  1.0000
  O   O58       1.0  0.14720  0.04290  0.71010  1.0000
  O   O59       1.0  0.85280  0.54290  0.78990  1.0000
  O   O60       1.0  0.85280  0.95710  0.28990  1.0000
  O   O61       1.0  0.34680  0.26730  0.17370  1.0000
  O   O62       1.0  0.34680  0.23270  0.67370  1.0000
  O   O63       1.0  0.65320  0.73270  0.82630  1.0000
  O   O64       1.0  0.65320  0.76730  0.32630  1.0000
  O   O65       1.0  0.22100  0.02870  0.22720  1.0000
  O   O66       1.0  0.22100  0.47130  0.72720  1.0000
  O   O67       1.0  0.77900  0.97130  0.77280  1.0000
  O   O68       1.0  0.77900  0.52870  0.27280  1.0000
  O   O69       1.0  0.34240  0.14660  0.03510  1.0000
  O   O70       1.0  0.34240  0.35340  0.53510  1.0000
  O   O71       1.0  0.65760  0.85340  0.96490  1.0000
  O   O72       1.0  0.65760  0.64660  0.46490  1.0000
  O   O73       1.0  0.20870  0.18840  0.30010  1.0000
  O   O74       1.0  0.20870  0.31160  0.80010  1.0000
  O   O75       1.0  0.79130  0.81160  0.69990  1.0000
  O   O76       1.0  0.79130  0.68840  0.19990  1.0000
  O   O77       1.0  0.10490  0.30980  0.07560  1.0000
  O   O78       1.0  0.10490  0.19020  0.57560  1.0000
  O   O79       1.0  0.89510  0.69020  0.92440  1.0000
  O   O80       1.0  0.89510  0.80980  0.42440  1.0000
  O   O81       1.0  0.96360  0.34430  0.04250  1.0000
  O   O82       1.0  0.96360  0.15570  0.54250  1.0000
  O   O83       1.0  0.03640  0.65570  0.95750  1.0000
  O   O84       1.0  0.03640  0.84430  0.45750  1.0000
  O   O85       1.0  0.37320  0.14820  0.17930  1.0000
  O   O86       1.0  0.37320  0.35180  0.67930  1.0000
  O   O87       1.0  0.62680  0.85180  0.82070  1.0000
  O   O88       1.0  0.62680  0.64820  0.32070  1.0000
  O   O89       1.0  0.26240  0.47600  0.19980  1.0000
  O   O90       1.0  0.26240  0.02400  0.69980  1.0000
  O   O91       1.0  0.73760  0.52400  0.80020  1.0000
  O   O92       1.0  0.73760  0.97600  0.30020  1.0000
  O   O93       1.0  0.67920  0.32260  0.17780  1.0000
  O   O94       1.0  0.67920  0.17740  0.67780  1.0000
  O   O95       1.0  0.32080  0.67740  0.82220  1.0000
  O   O96       1.0  0.32080  0.82260  0.32220  1.0000
  O   O97       1.0  0.44670  0.22160  0.13250  1.0000
  O   O98       1.0  0.44670  0.27840  0.63250  1.0000
  O   O99       1.0  0.55330  0.77840  0.86750  1.0000
  O   O100      1.0  0.55330  0.72160  0.36750  1.0000
  O   O101      1.0  0.19810  0.07060  0.33600  1.0000
  O   O102      1.0  0.19810  0.42940  0.83600  1.0000
  O   O103      1.0  0.80190  0.92940  0.66400  1.0000
  O   O104      1.0  0.80190  0.57060  0.16400  1.0000
  O   O105      1.0  0.96590  0.27560  0.15130  1.0000
  O   O106      1.0  0.96590  0.22440  0.65130  1.0000
  O   O107      1.0  0.03410  0.72440  0.84870  1.0000
  O   O108      1.0  0.03410  0.77560  0.34870  1.0000
  O   O109      1.0  0.54640  0.29220  0.14850  1.0000
  O   O110      1.0  0.54640  0.20780  0.64850  1.0000
  O   O111      1.0  0.45360  0.70780  0.85150  1.0000
  O   O112      1.0  0.45360  0.79220  0.35150  1.0000
  O   O113      1.0  0.88810  0.20880  0.18010  1.0000
  O   O114      1.0  0.88810  0.29120  0.68010  1.0000
  O   O115      1.0  0.11190  0.79120  0.81990  1.0000
  O   O116      1.0  0.11190  0.70880  0.31990  1.0000
  O   O117      1.0  0.33520  0.39040  0.16640  1.0000
  O   O118      1.0  0.33520  0.10960  0.66640  1.0000
  O   O119      1.0  0.66480  0.60960  0.83360  1.0000
  O   O120      1.0  0.66480  0.89040  0.33360  1.0000
  O   O121      1.0  0.39790  0.44120  0.30510  1.0000
  O   O122      1.0  0.39790  0.05880  0.80510  1.0000
  O   O123      1.0  0.60210  0.55880  0.69490  1.0000
  O   O124      1.0  0.60210  0.94120  0.19490  1.0000
  O   O125      1.0  0.79720  0.27620  0.06150  1.0000
  O   O126      1.0  0.79720  0.22380  0.56150  1.0000
  O   O127      1.0  0.20280  0.72380  0.93850  1.0000
  O   O128      1.0  0.20280  0.77620  0.43850  1.0000
  O   O129      1.0  0.98720  0.16530  0.16180  1.0000
  O   O130      1.0  0.98720  0.33470  0.66180  1.0000
  O   O131      1.0  0.01280  0.83470  0.83820  1.0000
  O   O132      1.0  0.01280  0.66530  0.33820  1.0000
  O   O133      1.0  0.27030  0.39910  0.30360  1.0000
  O   O134      1.0  0.27030  0.10090  0.80360  1.0000
  O   O135      1.0  0.72970  0.60090  0.69640  1.0000
  O   O136      1.0  0.72970  0.89910  0.19640  1.0000
  O   O137      1.0  0.30920  0.38620  0.02240  1.0000
  O   O138      1.0  0.30920  0.11380  0.52240  1.0000
  O   O139      1.0  0.69080  0.61380  0.97760  1.0000
  O   O140      1.0  0.69080  0.88620  0.47760  1.0000
  O   O141      1.0  0.34170  0.04480  0.22470  1.0000
  O   O142      1.0  0.34170  0.45520  0.72470  1.0000
  O   O143      1.0  0.65830  0.95520  0.77530  1.0000
  O   O144      1.0  0.65830  0.54480  0.27530  1.0000
  O   O145      1.0  0.36350  0.21400  0.28550  1.0000
  O   O146      1.0  0.36350  0.28600  0.78550  1.0000
  O   O147      1.0  0.63650  0.78600  0.71450  1.0000
  O   O148      1.0  0.63650  0.71400  0.21450  1.0000
  O   O149      1.0  0.31550  0.11100  0.31770  1.0000
  O   O150      1.0  0.31550  0.38900  0.81770  1.0000
  O   O151      1.0  0.68450  0.88900  0.68230  1.0000
  O   O152      1.0  0.68450  0.61100  0.18230  1.0000
  O   O153      1.0  0.42970  0.33300  0.13320  1.0000
  O   O154      1.0  0.42970  0.16700  0.63320  1.0000
  O   O155      1.0  0.57030  0.66700  0.86680  1.0000
  O   O156      1.0  0.57030  0.83300  0.36680  1.0000
  O   O157      1.0  0.77250  0.17790  0.19410  1.0000
  O   O158      1.0  0.77250  0.32210  0.69410  1.0000
  O   O159      1.0  0.22750  0.82210  0.80590  1.0000
  O   O160      1.0  0.22750  0.67790  0.30590  1.0000
  O   O161      1.0  0.14930  0.39810  0.32560  1.0000
  O   O162      1.0  0.14930  0.10190  0.82560  1.0000
  O   O163      1.0  0.85070  0.60190  0.67440  1.0000
  O   O164      1.0  0.85070  0.89810  0.17440  1.0000
  O   O165      1.0  0.78750  0.38770  0.24190  1.0000
  O   O166      1.0  0.78750  0.11230  0.74190  1.0000
  O   O167      1.0  0.21250  0.61230  0.75810  1.0000
  O   O168      1.0  0.21250  0.88770  0.25810  1.0000
  H   H1        1.0  0.76560  0.40360  0.26070  1.0000
  H   H2        1.0  0.76560  0.09640  0.76070  1.0000
  H   H3        1.0  0.23440  0.59640  0.73930  1.0000
  H   H4        1.0  0.23440  0.90360  0.23930  1.0000
  O   O169      1.0  0.68070  0.24460  0.08040  1.0000
  O   O170      1.0  0.68070  0.25540  0.58040  1.0000
  O   O171      1.0  0.31930  0.75540  0.91960  1.0000
  O   O172      1.0  0.31930  0.74460  0.41960  1.0000
  O   O173      1.0  0.29000  0.94470  0.21480  1.0000
  O   O174      1.0  0.29000  0.55530  0.71480  1.0000
  O   O175      1.0  0.71000  0.05530  0.78520  1.0000
  O   O176      1.0  0.71000  0.44470  0.28520  1.0000
  H   H5        1.0  0.25230  0.92530  0.19710  1.0000
  H   H6        1.0  0.25230  0.57470  0.69710  1.0000
  H   H7        1.0  0.74770  0.07470  0.80290  1.0000
  H   H8        1.0  0.74770  0.42530  0.30290  1.0000
  O   O177      1.0  0.56840  0.32090  0.03650  1.0000
  O   O178      1.0  0.56840  0.17910  0.53650  1.0000
  O   O179      1.0  0.43160  0.67910  0.96350  1.0000
  O   O180      1.0  0.43160  0.82090  0.46350  1.0000
  O   O181      1.0  0.71620  0.12120  0.25650  1.0000
  O   O182      1.0  0.71620  0.37880  0.75650  1.0000
  O   O183      1.0  0.28380  0.87880  0.74350  1.0000
  O   O184      1.0  0.28380  0.62120  0.24350  1.0000
  H   H9        1.0  0.75640  0.10610  0.28100  1.0000
  H   H10       1.0  0.75640  0.39390  0.78100  1.0000
  H   H11       1.0  0.24360  0.89390  0.71900  1.0000
  H   H12       1.0  0.24360  0.60610  0.21900  1.0000
  O   O185      1.0  0.99500  0.10370  0.05450  1.0000
  O   O186      1.0  0.99500  0.39630  0.55450  1.0000
  O   O187      1.0  0.00500  0.89630  0.94550  1.0000
  O   O188      1.0  0.00500  0.60370  0.44550  1.0000
  O   O189      1.0  0.76770  0.16070  0.05970  1.0000
  O   O190      1.0  0.76770  0.33930  0.55970  1.0000
  O   O191      1.0  0.23230  0.83930  0.94030  1.0000
  O   O192      1.0  0.23230  0.66070  0.44030  1.0000
  H   H13       1.0  0.80470  0.15370  0.05660  1.0000
  H   H14       1.0  0.80470  0.34630  0.55660  1.0000
  H   H15       1.0  0.19530  0.84630  0.94340  1.0000
  H   H16       1.0  0.19530  0.65370  0.44340  1.0000
  O   O193      1.0  0.54040  0.21070  0.04750  1.0000
  O   O194      1.0  0.54040  0.28930  0.54750  1.0000
  O   O195      1.0  0.45960  0.78930  0.95250  1.0000
  O   O196      1.0  0.45960  0.71070  0.45250  1.0000
  O   O197      1.0  0.45460  0.11300  0.32590  1.0000
  O   O198      1.0  0.45460  0.38700  0.82590  1.0000
  O   O199      1.0  0.54540  0.88700  0.67410  1.0000
  O   O200      1.0  0.54540  0.61300  0.17410  1.0000
  O   O201      1.0  0.17480  0.55720  0.18300  1.0000
  O   O202      1.0  0.17480  0.94280  0.68300  1.0000
  O   O203      1.0  0.82520  0.44280  0.81700  1.0000
  O   O204      1.0  0.82520  0.05720  0.31700  1.0000
  H   H17       1.0  0.19400  0.57600  0.16360  1.0000
  H   H18       1.0  0.19400  0.92400  0.66360  1.0000
  H   H19       1.0  0.80600  0.42400  0.83640  1.0000
  H   H20       1.0  0.80600  0.07600  0.33640  1.0000
  C   C1        1.0  0.02340  0.22940  0.28370  1.0000
  C   C2        1.0  0.02340  0.27060  0.78370  1.0000
  C   C3        1.0  0.97660  0.77060  0.71630  1.0000
  C   C4        1.0  0.97660  0.72940  0.21630  1.0000
  C   C5        1.0  0.52120  0.27820  0.25900  1.0000
  C   C6        1.0  0.52120  0.22180  0.75900  1.0000
  C   C7        1.0  0.47880  0.72180  0.74100  1.0000
  C   C8        1.0  0.47880  0.77820  0.24100  1.0000
  C   C9        1.0  0.09960  0.23930  0.31530  1.0000
  C   C10       1.0  0.09960  0.26070  0.81530  1.0000
  C   C11       1.0  0.90040  0.76070  0.68470  1.0000
  C   C12       1.0  0.90040  0.73930  0.18470  1.0000
  C   C13       1.0  0.12650  0.42020  0.04730  1.0000
  C   C14       1.0  0.12650  0.07980  0.54730  1.0000
  C   C15       1.0  0.87350  0.57980  0.95270  1.0000
  C   C16       1.0  0.87350  0.92020  0.45270  1.0000
  C   C17       1.0  0.13210  0.47610  0.07800  1.0000
  C   C18       1.0  0.13210  0.02390  0.57800  1.0000
  C   C19       1.0  0.86790  0.52390  0.92200  1.0000
  C   C20       1.0  0.86790  0.97610  0.42200  1.0000
  C   C21       1.0  0.48060  0.27160  0.29620  1.0000
  C   C22       1.0  0.48060  0.22840  0.79620  1.0000
  C   C23       1.0  0.51940  0.72840  0.70380  1.0000
  C   C24       1.0  0.51940  0.77160  0.20380  1.0000
  C   C25       1.0  0.98990  0.23040  0.32790  1.0000
  C   C26       1.0  0.98990  0.26960  0.82790  1.0000
  C   C27       1.0  0.01010  0.76960  0.67210  1.0000
  C   C28       1.0  0.01010  0.73040  0.17210  1.0000
  H   H21       1.0  0.94000  0.22300  0.30780  1.0000
  H   H22       1.0  0.94000  0.27700  0.80780  1.0000
  H   H23       1.0  0.06000  0.77700  0.69220  1.0000
  H   H24       1.0  0.06000  0.72300  0.19220  1.0000
  C   C29       1.0  0.13950  0.24980  0.38970  1.0000
  C   C30       1.0  0.13950  0.25020  0.88970  1.0000
  C   C31       1.0  0.86050  0.75020  0.61030  1.0000
  C   C32       1.0  0.86050  0.74980  0.11030  1.0000
  H   H25       1.0  0.18970  0.25560  0.41090  1.0000
  H   H26       1.0  0.18970  0.24440  0.91090  1.0000
  H   H27       1.0  0.81030  0.74440  0.58910  1.0000
  H   H28       1.0  0.81030  0.75560  0.08910  1.0000
  C   C33       1.0  0.09540  0.52250  0.03000  1.0000
  C   C34       1.0  0.09540  0.97750  0.53000  1.0000
  C   C35       1.0  0.90460  0.47750  0.97000  1.0000
  C   C36       1.0  0.90460  0.02250  0.47000  1.0000
  H   H29       1.0  0.09870  0.56000  0.04850  1.0000
  H   H30       1.0  0.09870  0.94000  0.54850  1.0000
  H   H31       1.0  0.90130  0.44000  0.95150  1.0000
  H   H32       1.0  0.90130  0.06000  0.45150  1.0000
  C   C37       1.0  0.59770  0.28130  0.29930  1.0000
  C   C38       1.0  0.59770  0.21870  0.79930  1.0000
  C   C39       1.0  0.40230  0.71870  0.70070  1.0000
  C   C40       1.0  0.40230  0.78130  0.20070  1.0000
  H   H33       1.0  0.62500  0.28750  0.27570  1.0000
  H   H34       1.0  0.62500  0.21250  0.77570  1.0000
  H   H35       1.0  0.37500  0.71250  0.72430  1.0000
  H   H36       1.0  0.37500  0.78750  0.22430  1.0000
  C   C41       1.0  0.08530  0.41260  0.97280  1.0000
  C   C42       1.0  0.08530  0.08740  0.47280  1.0000
  C   C43       1.0  0.91470  0.58740  0.02720  1.0000
  C   C44       1.0  0.91470  0.91260  0.52720  1.0000
  H   H37       1.0  0.08200  0.37570  0.95310  1.0000
  H   H38       1.0  0.08200  0.12430  0.45310  1.0000
  H   H39       1.0  0.91800  0.62430  0.04690  1.0000
  H   H40       1.0  0.91800  0.87570  0.54690  1.0000
  C   C45       1.0  0.51690  0.26590  0.37130  1.0000
  C   C46       1.0  0.51690  0.23410  0.87130  1.0000
  C   C47       1.0  0.48310  0.73410  0.62870  1.0000
  C   C48       1.0  0.48310  0.76590  0.12870  1.0000
  H   H41       1.0  0.49020  0.26040  0.39570  1.0000
  H   H42       1.0  0.49020  0.23960  0.89570  1.0000
  H   H43       1.0  0.50980  0.73960  0.60430  1.0000
  H   H44       1.0  0.50980  0.76040  0.10430  1.0000
  C   C49       1.0  0.10610  0.25170  0.43240  1.0000
  C   C50       1.0  0.10610  0.24830  0.93240  1.0000
  C   C51       1.0  0.89390  0.74830  0.56760  1.0000
  C   C52       1.0  0.89390  0.75170  0.06760  1.0000
  H   H45       1.0  0.13340  0.25920  0.48150  1.0000
  H   H46       1.0  0.13340  0.24080  0.98150  1.0000
  H   H47       1.0  0.86660  0.74080  0.51850  1.0000
  H   H48       1.0  0.86660  0.75920  0.01850  1.0000
  C   C53       1.0  0.03040  0.24220  0.40080  1.0000
  C   C54       1.0  0.03040  0.25780  0.90080  1.0000
  C   C55       1.0  0.96960  0.75780  0.59920  1.0000
  C   C56       1.0  0.96960  0.74220  0.09920  1.0000
  H   H49       1.0  0.00740  0.24380  0.42910  1.0000
  H   H50       1.0  0.00740  0.25620  0.92910  1.0000
  H   H51       1.0  0.99260  0.75620  0.57090  1.0000
  H   H52       1.0  0.99260  0.74380  0.07090  1.0000
  C   C57       1.0  0.16070  0.07180  0.98840  1.0000
  C   C58       1.0  0.16070  0.42820  0.48840  1.0000
  C   C59       1.0  0.83930  0.92820  0.01160  1.0000
  C   C60       1.0  0.83930  0.57180  0.51160  1.0000
  H   H53       1.0  0.14550  0.10740  0.96450  1.0000
  H   H54       1.0  0.14550  0.39260  0.46450  1.0000
  H   H55       1.0  0.85450  0.89260  0.03550  1.0000
  H   H56       1.0  0.85450  0.60740  0.53550  1.0000
  C   C61       1.0  0.20800  0.96580  0.05800  1.0000
  C   C62       1.0  0.20800  0.53420  0.55800  1.0000
  C   C63       1.0  0.79200  0.03420  0.94200  1.0000
  C   C64       1.0  0.79200  0.46580  0.44200  1.0000
  H   H57       1.0  0.22480  0.93000  0.08120  1.0000
  H   H58       1.0  0.22480  0.57000  0.58120  1.0000
  H   H59       1.0  0.77520  0.07000  0.91880  1.0000
  H   H60       1.0  0.77520  0.43000  0.41880  1.0000
  C   C65       1.0  0.63300  0.27540  0.37330  1.0000
  C   C66       1.0  0.63300  0.22460  0.87330  1.0000
  C   C67       1.0  0.36700  0.72460  0.62670  1.0000
  C   C68       1.0  0.36700  0.77540  0.12670  1.0000
  H   H61       1.0  0.68390  0.27600  0.39910  1.0000
  H   H62       1.0  0.68390  0.22400  0.89910  1.0000
  H   H63       1.0  0.31610  0.72400  0.60090  1.0000
  H   H64       1.0  0.31610  0.77600  0.10090  1.0000
  C   C69       1.0  0.04930  0.45920  0.92790  1.0000
  C   C70       1.0  0.04930  0.04080  0.42790  1.0000
  C   C71       1.0  0.95070  0.54080  0.07210  1.0000
  C   C72       1.0  0.95070  0.95920  0.57210  1.0000
  H   H65       1.0  0.02150  0.45350  0.87850  1.0000
  H   H66       1.0  0.02150  0.04650  0.37850  1.0000
  H   H67       1.0  0.97850  0.54650  0.12150  1.0000
  H   H68       1.0  0.97850  0.95350  0.62150  1.0000
  C   C73       1.0  0.59230  0.26840  0.40920  1.0000
  C   C74       1.0  0.59230  0.23160  0.90920  1.0000
  C   C75       1.0  0.40770  0.73160  0.59080  1.0000
  C   C76       1.0  0.40770  0.76840  0.09080  1.0000
  H   H69       1.0  0.61620  0.26550  0.45920  1.0000
  H   H70       1.0  0.61620  0.23450  0.95920  1.0000
  H   H71       1.0  0.38380  0.73450  0.54080  1.0000
  H   H72       1.0  0.38380  0.76550  0.04080  1.0000
  C   C77       1.0  0.19560  0.07040  0.06360  1.0000
  C   C78       1.0  0.19560  0.42960  0.56360  1.0000
  C   C79       1.0  0.80440  0.92960  0.93640  1.0000
  C   C80       1.0  0.80440  0.57040  0.43640  1.0000
  C   C81       1.0  0.22090  0.01670  0.10010  1.0000
  C   C82       1.0  0.22090  0.48330  0.60010  1.0000
  C   C83       1.0  0.77910  0.98330  0.89990  1.0000
  C   C84       1.0  0.77910  0.51670  0.39990  1.0000
  C   C85       1.0  0.14830  0.02020  0.94850  1.0000
  C   C86       1.0  0.14830  0.47980  0.44850  1.0000
  C   C87       1.0  0.85170  0.97980  0.05150  1.0000
  C   C88       1.0  0.85170  0.52020  0.55150  1.0000
  H   H73       1.0  0.12460  0.02140  0.89840  1.0000
  H   H74       1.0  0.12460  0.47860  0.39840  1.0000
  H   H75       1.0  0.87540  0.97860  0.10160  1.0000
  H   H76       1.0  0.87540  0.52140  0.60160  1.0000
  C   C89       1.0  0.17190  0.96700  0.98480  1.0000
  C   C90       1.0  0.17190  0.53300  0.48480  1.0000
  C   C91       1.0  0.82810  0.03300  0.01520  1.0000
  C   C92       1.0  0.82810  0.46700  0.51520  1.0000
  H   H77       1.0  0.16290  0.93240  0.95880  1.0000
  H   H78       1.0  0.16290  0.56760  0.45880  1.0000
  H   H79       1.0  0.83710  0.06760  0.04120  1.0000
  H   H80       1.0  0.83710  0.43240  0.54120  1.0000
  C   C93       1.0  0.05500  0.51400  0.95680  1.0000
  C   C94       1.0  0.05500  0.98600  0.45680  1.0000
  C   C95       1.0  0.94500  0.48600  0.04320  1.0000
  C   C96       1.0  0.94500  0.01400  0.54320  1.0000
  H   H81       1.0  0.03130  0.54550  0.92670  1.0000
  H   H82       1.0  0.03130  0.95450  0.42670  1.0000
  H   H83       1.0  0.96870  0.45450  0.07330  1.0000
  H   H84       1.0  0.96870  0.04550  0.57330  1.0000
  C   C97       1.0  0.78670  0.28800  0.30610  1.0000
  C   C98       1.0  0.78670  0.21200  0.80610  1.0000
  C   C99       1.0  0.21330  0.71200  0.69390  1.0000
  C   C100      1.0  0.21330  0.78800  0.19390  1.0000
  C   C101      1.0  0.77450  0.22770  0.31110  1.0000
  C   C102      1.0  0.77450  0.27230  0.81110  1.0000
  C   C103      1.0  0.22550  0.77230  0.68890  1.0000
  C   C104      1.0  0.22550  0.72770  0.18890  1.0000
  C   C105      1.0  0.82150  0.32010  0.37000  1.0000
  C   C106      1.0  0.82150  0.17990  0.87000  1.0000
  C   C107      1.0  0.17850  0.67990  0.63000  1.0000
  C   C108      1.0  0.17850  0.82010  0.13000  1.0000
  H   H85       1.0  0.82650  0.35980  0.36360  1.0000
  H   H86       1.0  0.82650  0.14020  0.86360  1.0000
  H   H87       1.0  0.17350  0.64020  0.63640  1.0000
  H   H88       1.0  0.17350  0.85980  0.13640  1.0000
  C   C109      1.0  0.80010  0.20300  0.37970  1.0000
  C   C110      1.0  0.80010  0.29700  0.87970  1.0000
  C   C111      1.0  0.19990  0.79700  0.62030  1.0000
  C   C112      1.0  0.19990  0.70300  0.12030  1.0000
  H   H89       1.0  0.79540  0.16340  0.38690  1.0000
  H   H90       1.0  0.79540  0.33660  0.88690  1.0000
  H   H91       1.0  0.20460  0.83660  0.61310  1.0000
  H   H92       1.0  0.20460  0.66340  0.11310  1.0000
  C   C113      1.0  0.83740  0.24780  0.44360  1.0000
  C   C114      1.0  0.83740  0.25220  0.94360  1.0000
  C   C115      1.0  0.16260  0.75220  0.55640  1.0000
  C   C116      1.0  0.16260  0.74780  0.05640  1.0000
  H   H93       1.0  0.85360  0.23470  0.49050  1.0000
  H   H94       1.0  0.85360  0.26530  0.99050  1.0000
  H   H95       1.0  0.14640  0.76530  0.50950  1.0000
  H   H96       1.0  0.14640  0.73470  0.00950  1.0000
  C   C117      1.0  0.84670  0.30490  0.43290  1.0000
  C   C118      1.0  0.84670  0.19510  0.93290  1.0000
  C   C119      1.0  0.15330  0.69510  0.56710  1.0000
  C   C120      1.0  0.15330  0.80490  0.06710  1.0000
  H   H97       1.0  0.87070  0.33090  0.47090  1.0000
  H   H98       1.0  0.87070  0.16910  0.97090  1.0000
  H   H99       1.0  0.12930  0.66910  0.52910  1.0000
  H   H100      1.0  0.12930  0.83090  0.02910  1.0000
