data_image0
_chemical_formula_structural       Mo40P40O168H4O20H4O4H4O4H4O4C12H4C4H4C4H4C4H4C20H4C8H4C4H4C4H4C4H4C4H4C12H4C4H4C4H4C4H4C8H4C4H4C4H4C4H4C4H4C4H4
_chemical_formula_sum              "Mo40 P40 O200 H96 C120"
_cell_length_a       19.0574
_cell_length_b       20.4023
_cell_length_c       20.6598
_cell_angle_alpha    90
_cell_angle_beta     90
_cell_angle_gamma    90

_space_group_name_H-M_alt    "P 1"
_space_group_IT_number       1

loop_
  _space_group_symop_operation_xyz
  'x, y, z'

loop_
  _atom_site_type_symbol
  _atom_site_label
  _atom_site_symmetry_multiplicity
  _atom_site_fract_x
  _atom_site_fract_y
  _atom_site_fract_z
  _atom_site_occupancy
  Mo  Mo1       1.0  0.08643  0.39085  0.62142  1.0000
  Mo  Mo2       1.0  0.91357  0.60915  0.12142  1.0000
  Mo  Mo3       1.0  0.58643  0.60915  0.62142  1.0000
  Mo  Mo4       1.0  0.41357  0.39085  0.12142  1.0000
  Mo  Mo5       1.0  0.92709  0.14897  0.61311  1.0000
  Mo  Mo6       1.0  0.07291  0.85103  0.11311  1.0000
  Mo  Mo7       1.0  0.42709  0.85103  0.61311  1.0000
  Mo  Mo8       1.0  0.57291  0.14897  0.11311  1.0000
  Mo  Mo9       1.0  0.08888  0.09234  0.69494  1.0000
  Mo  Mo10      1.0  0.91112  0.90766  0.19494  1.0000
  Mo  Mo11      1.0  0.58888  0.90766  0.69494  1.0000
  Mo  Mo12      1.0  0.41112  0.09234  0.19494  1.0000
  Mo  Mo13      1.0  0.93050  0.30445  0.56665  1.0000
  Mo  Mo14      1.0  0.06950  0.69555  0.06665  1.0000
  Mo  Mo15      1.0  0.43050  0.69555  0.56665  1.0000
  Mo  Mo16      1.0  0.56950  0.30445  0.06665  1.0000
  Mo  Mo17      1.0  0.09970  0.41123  0.78433  1.0000
  Mo  Mo18      1.0  0.90030  0.58877  0.28433  1.0000
  Mo  Mo19      1.0  0.59970  0.58877  0.78433  1.0000
  Mo  Mo20      1.0  0.40030  0.41123  0.28433  1.0000
  Mo  Mo21      1.0  0.93898  0.20466  0.91928  1.0000
  Mo  Mo22      1.0  0.06102  0.79534  0.41928  1.0000
  Mo  Mo23      1.0  0.43898  0.79534  0.91928  1.0000
  Mo  Mo24      1.0  0.56102  0.20466  0.41928  1.0000
  Mo  Mo25      1.0  0.94009  0.35947  0.87353  1.0000
  Mo  Mo26      1.0  0.05991  0.64053  0.37353  1.0000
  Mo  Mo27      1.0  0.44009  0.64053  0.87353  1.0000
  Mo  Mo28      1.0  0.55991  0.35947  0.37353  1.0000
  Mo  Mo29      1.0  0.09145  0.11326  0.85818  1.0000
  Mo  Mo30      1.0  0.90855  0.88674  0.35818  1.0000
  Mo  Mo31      1.0  0.59145  0.88674  0.85818  1.0000
  Mo  Mo32      1.0  0.40855  0.11326  0.35818  1.0000
  Mo  Mo33      1.0  0.92031  0.15514  0.32136  1.0000
  Mo  Mo34      1.0  0.07969  0.84486  0.82136  1.0000
  Mo  Mo35      1.0  0.42031  0.84486  0.32136  1.0000
  Mo  Mo36      1.0  0.57969  0.15514  0.82136  1.0000
  Mo  Mo37      1.0  0.05967  0.67962  0.65261  1.0000
  Mo  Mo38      1.0  0.94033  0.32038  0.15261  1.0000
  Mo  Mo39      1.0  0.55967  0.32038  0.65261  1.0000
  Mo  Mo40      1.0  0.44033  0.67962  0.15261  1.0000
  P   P1        1.0  0.08793  0.22982  0.62139  1.0000
  P   P2        1.0  0.91207  0.77018  0.12139  1.0000
  P   P3        1.0  0.58793  0.77018  0.62139  1.0000
  P   P4        1.0  0.41207  0.22982  0.12139  1.0000
  P   P5        1.0  0.01526  0.51750  0.69569  1.0000
  P   P6        1.0  0.98474  0.48250  0.19569  1.0000
  P   P7        1.0  0.51526  0.48250  0.69569  1.0000
  P   P8        1.0  0.48474  0.51750  0.19569  1.0000
  P   P9        1.0  0.00897  0.99050  0.79195  1.0000
  P   P10       1.0  0.99103  0.00950  0.29195  1.0000
  P   P11       1.0  0.50897  0.00950  0.79195  1.0000
  P   P12       1.0  0.49103  0.99050  0.29195  1.0000
  P   P13       1.0  0.09823  0.27316  0.86071  1.0000
  P   P14       1.0  0.90177  0.72684  0.36071  1.0000
  P   P15       1.0  0.59823  0.72684  0.86071  1.0000
  P   P16       1.0  0.40177  0.27316  0.36071  1.0000
  P   P17       1.0  0.99955  0.18996  0.47425  1.0000
  P   P18       1.0  0.00045  0.81004  0.97425  1.0000
  P   P19       1.0  0.49955  0.81004  0.47425  1.0000
  P   P20       1.0  0.50045  0.18996  0.97425  1.0000
  P   P21       1.0  0.93636  0.36420  0.71732  1.0000
  P   P22       1.0  0.06364  0.63580  0.21732  1.0000
  P   P23       1.0  0.43636  0.63580  0.71732  1.0000
  P   P24       1.0  0.56364  0.36420  0.21732  1.0000
  P   P25       1.0  0.01693  0.31439  0.00866  1.0000
  P   P26       1.0  0.98307  0.68561  0.50866  1.0000
  P   P27       1.0  0.51693  0.68561  0.00866  1.0000
  P   P28       1.0  0.48307  0.31439  0.50866  1.0000
  P   P29       1.0  0.93210  0.14192  0.77130  1.0000
  P   P30       1.0  0.06790  0.85808  0.27130  1.0000
  P   P31       1.0  0.43210  0.85808  0.77130  1.0000
  P   P32       1.0  0.56790  0.14192  0.27130  1.0000
  P   P33       1.0  0.90184  0.31335  0.31806  1.0000
  P   P34       1.0  0.09816  0.68665  0.81806  1.0000
  P   P35       1.0  0.40184  0.68665  0.31806  1.0000
  P   P36       1.0  0.59816  0.31335  0.81806  1.0000
  P   P37       1.0  0.05470  0.25985  0.26203  1.0000
  P   P38       1.0  0.94530  0.74015  0.76203  1.0000
  P   P39       1.0  0.55470  0.74015  0.26203  1.0000
  P   P40       1.0  0.44530  0.25985  0.76203  1.0000
  O   O1        1.0  0.98400  0.36630  0.96410  1.0000
  O   O2        1.0  0.01600  0.63370  0.46410  1.0000
  O   O3        1.0  0.48400  0.63370  0.96410  1.0000
  O   O4        1.0  0.51600  0.36630  0.46410  1.0000
  O   O5        1.0  0.11140  0.18680  0.67790  1.0000
  O   O6        1.0  0.88860  0.81320  0.17790  1.0000
  O   O7        1.0  0.61140  0.81320  0.67790  1.0000
  O   O8        1.0  0.38860  0.18680  0.17790  1.0000
  O   O9        1.0  0.05710  0.49600  0.75680  1.0000
  O   O10       1.0  0.94290  0.50400  0.25680  1.0000
  O   O11       1.0  0.55710  0.50400  0.75680  1.0000
  O   O12       1.0  0.44290  0.49600  0.25680  1.0000
  O   O13       1.0  0.00810  0.23280  0.61550  1.0000
  O   O14       1.0  0.99190  0.76720  0.11550  1.0000
  O   O15       1.0  0.50810  0.76720  0.61550  1.0000
  O   O16       1.0  0.49190  0.23280  0.11550  1.0000
  O   O17       1.0  0.00610  0.10160  0.64150  1.0000
  O   O18       1.0  0.99390  0.89840  0.14150  1.0000
  O   O19       1.0  0.50610  0.89840  0.64150  1.0000
  O   O20       1.0  0.49390  0.10160  0.14150  1.0000
  O   O21       1.0  0.14810  0.05820  0.64470  1.0000
  O   O22       1.0  0.85190  0.94180  0.14470  1.0000
  O   O23       1.0  0.64810  0.94180  0.64470  1.0000
  O   O24       1.0  0.35190  0.05820  0.14470  1.0000
  O   O25       1.0  0.12060  0.29650  0.63100  1.0000
  O   O26       1.0  0.87940  0.70350  0.13100  1.0000
  O   O27       1.0  0.62060  0.70350  0.63100  1.0000
  O   O28       1.0  0.37940  0.29650  0.13100  1.0000
  O   O29       1.0  0.90090  0.31440  0.24320  1.0000
  O   O30       1.0  0.09910  0.68560  0.74320  1.0000
  O   O31       1.0  0.40090  0.68560  0.24320  1.0000
  O   O32       1.0  0.59910  0.31440  0.74320  1.0000
  O   O33       1.0  0.14050  0.40600  0.70290  1.0000
  O   O34       1.0  0.85950  0.59400  0.20290  1.0000
  O   O35       1.0  0.64050  0.59400  0.70290  1.0000
  O   O36       1.0  0.35950  0.40600  0.20290  1.0000
  O   O37       1.0  0.90800  0.17500  0.70740  1.0000
  O   O38       1.0  0.09200  0.82500  0.20740  1.0000
  O   O39       1.0  0.40800  0.82500  0.70740  1.0000
  O   O40       1.0  0.59200  0.17500  0.20740  1.0000
  O   O41       1.0  0.98770  0.17100  0.40410  1.0000
  O   O42       1.0  0.01230  0.82900  0.90410  1.0000
  O   O43       1.0  0.48770  0.82900  0.40410  1.0000
  O   O44       1.0  0.51230  0.17100  0.90410  1.0000
  O   O45       1.0  0.13660  0.09500  0.77830  1.0000
  O   O46       1.0  0.86340  0.90500  0.27830  1.0000
  O   O47       1.0  0.63660  0.90500  0.77830  1.0000
  O   O48       1.0  0.36340  0.09500  0.27830  1.0000
  O   O49       1.0  0.86360  0.09360  0.60700  1.0000
  O   O50       1.0  0.13640  0.90640  0.10700  1.0000
  O   O51       1.0  0.36360  0.90640  0.60700  1.0000
  O   O52       1.0  0.63640  0.09360  0.10700  1.0000
  O   O53       1.0  0.01920  0.27370  0.86910  1.0000
  O   O54       1.0  0.98080  0.72630  0.36910  1.0000
  O   O55       1.0  0.51920  0.72630  0.86910  1.0000
  O   O56       1.0  0.48080  0.27370  0.36910  1.0000
  O   O57       1.0  0.03710  0.02840  0.85080  1.0000
  O   O58       1.0  0.96290  0.97160  0.35080  1.0000
  O   O59       1.0  0.53710  0.97160  0.85080  1.0000
  O   O60       1.0  0.46290  0.02840  0.35080  1.0000
  O   O61       1.0  0.88390  0.16060  0.96420  1.0000
  O   O62       1.0  0.11610  0.83940  0.46420  1.0000
  O   O63       1.0  0.38390  0.83940  0.96420  1.0000
  O   O64       1.0  0.61610  0.16060  0.46420  1.0000
  O   O65       1.0  0.14000  0.41860  0.56320  1.0000
  O   O66       1.0  0.86000  0.58140  0.06320  1.0000
  O   O67       1.0  0.64000  0.58140  0.56320  1.0000
  O   O68       1.0  0.36000  0.41860  0.06320  1.0000
  O   O69       1.0  0.89140  0.28540  0.90650  1.0000
  O   O70       1.0  0.10860  0.71460  0.40650  1.0000
  O   O71       1.0  0.39140  0.71460  0.90650  1.0000
  O   O72       1.0  0.60860  0.28540  0.40650  1.0000
  O   O73       1.0  0.00620  0.20450  0.27800  1.0000
  O   O74       1.0  0.99380  0.79550  0.77800  1.0000
  O   O75       1.0  0.50620  0.79550  0.27800  1.0000
  O   O76       1.0  0.49380  0.20450  0.77800  1.0000
  O   O77       1.0  0.01490  0.37170  0.71010  1.0000
  O   O78       1.0  0.98510  0.62830  0.21010  1.0000
  O   O79       1.0  0.51490  0.62830  0.71010  1.0000
  O   O80       1.0  0.48510  0.37170  0.21010  1.0000
  O   O81       1.0  0.00650  0.36130  0.57300  1.0000
  O   O82       1.0  0.99350  0.63870  0.07300  1.0000
  O   O83       1.0  0.50650  0.63870  0.57300  1.0000
  O   O84       1.0  0.49350  0.36130  0.07300  1.0000
  O   O85       1.0  0.88160  0.22380  0.58460  1.0000
  O   O86       1.0  0.11840  0.77620  0.08460  1.0000
  O   O87       1.0  0.38160  0.77620  0.58460  1.0000
  O   O88       1.0  0.61840  0.22380  0.08460  1.0000
  O   O89       1.0  0.87090  0.34640  0.52310  1.0000
  O   O90       1.0  0.12910  0.65360  0.02310  1.0000
  O   O91       1.0  0.37090  0.65360  0.52310  1.0000
  O   O92       1.0  0.62910  0.34640  0.02310  1.0000
  O   O93       1.0  0.01650  0.14590  0.90930  1.0000
  O   O94       1.0  0.98350  0.85410  0.40930  1.0000
  O   O95       1.0  0.51650  0.85410  0.90930  1.0000
  O   O96       1.0  0.48350  0.14590  0.40930  1.0000
  O   O97       1.0  0.01370  0.91850  0.80590  1.0000
  O   O98       1.0  0.98630  0.08150  0.30590  1.0000
  O   O99       1.0  0.51370  0.08150  0.80590  1.0000
  O   O100      1.0  0.48630  0.91850  0.30590  1.0000
  O   O101      1.0  0.86200  0.11660  0.37040  1.0000
  O   O102      1.0  0.13800  0.88340  0.87040  1.0000
  O   O103      1.0  0.36200  0.88340  0.37040  1.0000
  O   O104      1.0  0.63800  0.11660  0.87040  1.0000
  O   O105      1.0  0.90600  0.18230  0.82800  1.0000
  O   O106      1.0  0.09400  0.81770  0.32800  1.0000
  O   O107      1.0  0.40600  0.81770  0.82800  1.0000
  O   O108      1.0  0.59400  0.18230  0.32800  1.0000
  O   O109      1.0  0.14790  0.08470  0.91340  1.0000
  O   O110      1.0  0.85210  0.91530  0.41340  1.0000
  O   O111      1.0  0.64790  0.91530  0.91340  1.0000
  O   O112      1.0  0.35210  0.08470  0.41340  1.0000
  O   O113      1.0  0.03770  0.47910  0.63520  1.0000
  O   O114      1.0  0.96230  0.52090  0.13520  1.0000
  O   O115      1.0  0.53770  0.52090  0.63520  1.0000
  O   O116      1.0  0.46230  0.47910  0.13520  1.0000
  O   O117      1.0  0.98810  0.24620  0.99800  1.0000
  O   O118      1.0  0.01190  0.75380  0.49800  1.0000
  O   O119      1.0  0.48810  0.75380  0.99800  1.0000
  O   O120      1.0  0.51190  0.24620  0.49800  1.0000
  O   O121      1.0  0.12220  0.31660  0.80290  1.0000
  O   O122      1.0  0.87780  0.68340  0.30290  1.0000
  O   O123      1.0  0.62220  0.68340  0.80290  1.0000
  O   O124      1.0  0.37780  0.31660  0.30290  1.0000
  O   O125      1.0  0.02390  0.40350  0.84150  1.0000
  O   O126      1.0  0.97610  0.59650  0.34150  1.0000
  O   O127      1.0  0.52390  0.59650  0.84150  1.0000
  O   O128      1.0  0.47610  0.40350  0.34150  1.0000
  O   O129      1.0  0.12650  0.20520  0.84680  1.0000
  O   O130      1.0  0.87350  0.79480  0.34680  1.0000
  O   O131      1.0  0.62650  0.79480  0.84680  1.0000
  O   O132      1.0  0.37350  0.20520  0.34680  1.0000
  O   O133      1.0  0.91680  0.33040  0.78150  1.0000
  O   O134      1.0  0.08320  0.66960  0.28150  1.0000
  O   O135      1.0  0.41680  0.66960  0.78150  1.0000
  O   O136      1.0  0.58320  0.33040  0.28150  1.0000
  O   O137      1.0  0.04540  0.00700  0.72800  1.0000
  O   O138      1.0  0.95460  0.99300  0.22800  1.0000
  O   O139      1.0  0.54540  0.99300  0.72800  1.0000
  O   O140      1.0  0.45460  0.00700  0.22800  1.0000
  O   O141      1.0  0.07690  0.75780  0.63300  1.0000
  O   O142      1.0  0.92310  0.24220  0.13300  1.0000
  O   O143      1.0  0.57690  0.24220  0.63300  1.0000
  O   O144      1.0  0.42310  0.75780  0.13300  1.0000
  O   O145      1.0  0.90310  0.32710  0.66010  1.0000
  O   O146      1.0  0.09690  0.67290  0.16010  1.0000
  O   O147      1.0  0.40310  0.67290  0.66010  1.0000
  O   O148      1.0  0.59690  0.32710  0.16010  1.0000
  O   O149      1.0  0.96430  0.14090  0.52080  1.0000
  O   O150      1.0  0.03570  0.85910  0.02080  1.0000
  O   O151      1.0  0.46430  0.85910  0.52080  1.0000
  O   O152      1.0  0.53570  0.14090  0.02080  1.0000
  O   O153      1.0  0.00720  0.33470  0.08000  1.0000
  O   O154      1.0  0.99280  0.66530  0.58000  1.0000
  O   O155      1.0  0.50720  0.66530  0.08000  1.0000
  O   O156      1.0  0.49280  0.33470  0.58000  1.0000
  O   O157      1.0  0.01160  0.13170  0.77290  1.0000
  O   O158      1.0  0.98840  0.86830  0.27290  1.0000
  O   O159      1.0  0.51160  0.86830  0.77290  1.0000
  O   O160      1.0  0.48840  0.13170  0.27290  1.0000
  O   O161      1.0  0.88190  0.41960  0.88120  1.0000
  O   O162      1.0  0.11810  0.58040  0.38120  1.0000
  O   O163      1.0  0.38190  0.58040  0.88120  1.0000
  O   O164      1.0  0.61810  0.41960  0.38120  1.0000
  O   O165      1.0  0.13420  0.64240  0.61710  1.0000
  O   O166      1.0  0.86580  0.35760  0.11710  1.0000
  O   O167      1.0  0.63420  0.35760  0.61710  1.0000
  O   O168      1.0  0.36580  0.64240  0.11710  1.0000
  H   H1        1.0  0.16990  0.65700  0.63390  1.0000
  H   H2        1.0  0.83010  0.34300  0.13390  1.0000
  H   H3        1.0  0.66990  0.34300  0.63390  1.0000
  H   H4        1.0  0.33010  0.65700  0.13390  1.0000
  O   O169      1.0  0.16370  0.44210  0.83020  1.0000
  O   O170      1.0  0.83630  0.55790  0.33020  1.0000
  O   O171      1.0  0.66370  0.55790  0.83020  1.0000
  O   O172      1.0  0.33630  0.44210  0.33020  1.0000
  O   O173      1.0  0.97580  0.25970  0.48870  1.0000
  O   O174      1.0  0.02420  0.74030  0.98870  1.0000
  O   O175      1.0  0.47580  0.74030  0.48870  1.0000
  O   O176      1.0  0.52420  0.25970  0.98870  1.0000
  O   O177      1.0  0.04040  0.29130  0.19690  1.0000
  O   O178      1.0  0.95960  0.70870  0.69690  1.0000
  O   O179      1.0  0.54040  0.70870  0.19690  1.0000
  O   O180      1.0  0.45960  0.29130  0.69690  1.0000
  O   O181      1.0  0.02140  0.58900  0.68700  1.0000
  O   O182      1.0  0.97860  0.41100  0.18700  1.0000
  O   O183      1.0  0.52140  0.41100  0.68700  1.0000
  O   O184      1.0  0.47860  0.58900  0.18700  1.0000
  O   O185      1.0  0.87410  0.14810  0.24650  1.0000
  O   O186      1.0  0.12590  0.85190  0.74650  1.0000
  O   O187      1.0  0.37410  0.85190  0.24650  1.0000
  O   O188      1.0  0.62590  0.14810  0.74650  1.0000
  H   H5        1.0  0.89720  0.16510  0.21760  1.0000
  H   H6        1.0  0.10280  0.83490  0.71760  1.0000
  H   H7        1.0  0.39720  0.83490  0.21760  1.0000
  H   H8        1.0  0.60280  0.16510  0.71760  1.0000
  O   O189      1.0  0.13050  0.23040  0.26330  1.0000
  O   O190      1.0  0.86950  0.76960  0.76330  1.0000
  O   O191      1.0  0.63050  0.76960  0.26330  1.0000
  O   O192      1.0  0.36950  0.23040  0.76330  1.0000
  H   H9        1.0  0.15900  0.25910  0.25430  1.0000
  H   H10       1.0  0.84100  0.74090  0.75430  1.0000
  H   H11       1.0  0.65900  0.74090  0.25430  1.0000
  H   H12       1.0  0.34100  0.25910  0.75430  1.0000
  O   O193      1.0  0.84540  0.35770  0.34590  1.0000
  O   O194      1.0  0.15460  0.64230  0.84590  1.0000
  O   O195      1.0  0.34540  0.64230  0.34590  1.0000
  O   O196      1.0  0.65460  0.35770  0.84590  1.0000
  H   H13       1.0  0.80670  0.34500  0.33390  1.0000
  H   H14       1.0  0.19330  0.65500  0.83390  1.0000
  H   H15       1.0  0.30670  0.65500  0.33390  1.0000
  H   H16       1.0  0.69330  0.34500  0.83390  1.0000
  O   O197      1.0  0.88820  0.24500  0.34310  1.0000
  O   O198      1.0  0.11180  0.75500  0.84310  1.0000
  O   O199      1.0  0.38820  0.75500  0.34310  1.0000
  O   O200      1.0  0.61180  0.24500  0.84310  1.0000
  C   C1        1.0  0.11020  0.31530  0.99490  1.0000
  C   C2        1.0  0.88980  0.68470  0.49490  1.0000
  C   C3        1.0  0.61020  0.68470  0.99490  1.0000
  C   C4        1.0  0.38980  0.31530  0.49490  1.0000
  C   C5        1.0  0.14140  0.30120  0.93390  1.0000
  C   C6        1.0  0.85860  0.69880  0.43390  1.0000
  C   C7        1.0  0.64140  0.69880  0.93390  1.0000
  C   C8        1.0  0.35860  0.30120  0.43390  1.0000
  C   C9        1.0  0.25510  0.32360  0.98210  1.0000
  C   C10       1.0  0.74490  0.67640  0.48210  1.0000
  C   C11       1.0  0.75510  0.67640  0.98210  1.0000
  C   C12       1.0  0.24490  0.32360  0.48210  1.0000
  H   H17       1.0  0.30370  0.32580  0.97820  1.0000
  H   H18       1.0  0.69630  0.67420  0.47820  1.0000
  H   H19       1.0  0.80370  0.67420  0.97820  1.0000
  H   H20       1.0  0.19630  0.32580  0.47820  1.0000
  C   C13       1.0  0.21500  0.30710  0.92670  1.0000
  C   C14       1.0  0.78500  0.69290  0.42670  1.0000
  C   C15       1.0  0.71500  0.69290  0.92670  1.0000
  C   C16       1.0  0.28500  0.30710  0.42670  1.0000
  H   H21       1.0  0.23640  0.30030  0.88680  1.0000
  H   H22       1.0  0.76360  0.69970  0.38680  1.0000
  H   H23       1.0  0.73640  0.69970  0.88680  1.0000
  H   H24       1.0  0.26360  0.30030  0.38680  1.0000
  C   C17       1.0  0.22480  0.33660  0.04220  1.0000
  C   C18       1.0  0.77520  0.66340  0.54220  1.0000
  C   C19       1.0  0.72480  0.66340  0.04220  1.0000
  C   C20       1.0  0.27520  0.33660  0.54220  1.0000
  H   H25       1.0  0.25290  0.34810  0.07720  1.0000
  H   H26       1.0  0.74710  0.65190  0.57720  1.0000
  H   H27       1.0  0.75290  0.65190  0.07720  1.0000
  H   H28       1.0  0.24710  0.34810  0.57720  1.0000
  C   C21       1.0  0.15290  0.33250  0.04940  1.0000
  C   C22       1.0  0.84710  0.66750  0.54940  1.0000
  C   C23       1.0  0.65290  0.66750  0.04940  1.0000
  C   C24       1.0  0.34710  0.33250  0.54940  1.0000
  H   H29       1.0  0.13230  0.34090  0.08930  1.0000
  H   H30       1.0  0.86770  0.65910  0.58930  1.0000
  H   H31       1.0  0.63230  0.65910  0.08930  1.0000
  H   H32       1.0  0.36770  0.34090  0.58930  1.0000
  C   C25       1.0  0.89320  0.44200  0.72090  1.0000
  C   C26       1.0  0.10680  0.55800  0.22090  1.0000
  C   C27       1.0  0.39320  0.55800  0.72090  1.0000
  C   C28       1.0  0.60680  0.44200  0.22090  1.0000
  C   C29       1.0  0.12820  0.19620  0.54780  1.0000
  C   C30       1.0  0.87180  0.80380  0.04780  1.0000
  C   C31       1.0  0.62820  0.80380  0.54780  1.0000
  C   C32       1.0  0.37180  0.19620  0.04780  1.0000
  C   C33       1.0  0.92300  0.50340  0.71070  1.0000
  C   C34       1.0  0.07700  0.49660  0.21070  1.0000
  C   C35       1.0  0.42300  0.49660  0.71070  1.0000
  C   C36       1.0  0.57700  0.50340  0.21070  1.0000
  C   C37       1.0  0.09270  0.18320  0.48860  1.0000
  C   C38       1.0  0.90730  0.81680  0.98860  1.0000
  C   C39       1.0  0.59270  0.81680  0.48860  1.0000
  C   C40       1.0  0.40730  0.18320  0.98860  1.0000
  C   C41       1.0  0.79950  0.95710  0.78010  1.0000
  C   C42       1.0  0.20050  0.04290  0.28010  1.0000
  C   C43       1.0  0.29950  0.04290  0.78010  1.0000
  C   C44       1.0  0.70050  0.95710  0.28010  1.0000
  H   H33       1.0  0.77070  0.92030  0.78050  1.0000
  H   H34       1.0  0.22930  0.07970  0.28050  1.0000
  H   H35       1.0  0.27070  0.07970  0.78050  1.0000
  H   H36       1.0  0.72930  0.92030  0.28050  1.0000
  C   C45       1.0  0.88470  0.06700  0.77570  1.0000
  C   C46       1.0  0.11530  0.93300  0.27570  1.0000
  C   C47       1.0  0.38470  0.93300  0.77570  1.0000
  C   C48       1.0  0.61530  0.06700  0.27570  1.0000
  C   C49       1.0  0.87910  0.55780  0.71450  1.0000
  C   C50       1.0  0.12090  0.44220  0.21450  1.0000
  C   C51       1.0  0.37910  0.44220  0.71450  1.0000
  C   C52       1.0  0.62090  0.55780  0.21450  1.0000
  H   H37       1.0  0.89830  0.59940  0.70950  1.0000
  H   H38       1.0  0.10170  0.40060  0.20950  1.0000
  H   H39       1.0  0.39830  0.40060  0.70950  1.0000
  H   H40       1.0  0.60170  0.59940  0.20950  1.0000
  C   C53       1.0  0.87190  0.95000  0.78540  1.0000
  C   C54       1.0  0.12810  0.05000  0.28540  1.0000
  C   C55       1.0  0.37190  0.05000  0.78540  1.0000
  C   C56       1.0  0.62810  0.95000  0.28540  1.0000
  H   H41       1.0  0.89120  0.90840  0.79010  1.0000
  H   H42       1.0  0.10880  0.09160  0.29010  1.0000
  H   H43       1.0  0.39120  0.09160  0.79010  1.0000
  H   H44       1.0  0.60880  0.90840  0.29010  1.0000
  C   C57       1.0  0.81310  0.07190  0.77100  1.0000
  C   C58       1.0  0.18690  0.92810  0.27100  1.0000
  C   C59       1.0  0.31310  0.92810  0.77100  1.0000
  C   C60       1.0  0.68690  0.07190  0.27100  1.0000
  H   H45       1.0  0.79270  0.11300  0.76550  1.0000
  H   H46       1.0  0.20730  0.88700  0.26550  1.0000
  H   H47       1.0  0.29270  0.88700  0.76550  1.0000
  H   H48       1.0  0.70730  0.11300  0.26550  1.0000
  C   C61       1.0  0.19780  0.18270  0.55360  1.0000
  C   C62       1.0  0.80220  0.81730  0.05360  1.0000
  C   C63       1.0  0.69780  0.81730  0.55360  1.0000
  C   C64       1.0  0.30220  0.18270  0.05360  1.0000
  H   H49       1.0  0.21960  0.18930  0.59340  1.0000
  H   H50       1.0  0.78040  0.81070  0.09340  1.0000
  H   H51       1.0  0.71960  0.81070  0.59340  1.0000
  H   H52       1.0  0.28040  0.18930  0.09340  1.0000
  C   C65       1.0  0.13240  0.15970  0.43570  1.0000
  C   C66       1.0  0.86760  0.84030  0.93570  1.0000
  C   C67       1.0  0.63240  0.84030  0.43570  1.0000
  C   C68       1.0  0.36760  0.15970  0.93570  1.0000
  H   H53       1.0  0.11050  0.15240  0.39610  1.0000
  H   H54       1.0  0.88950  0.84760  0.89610  1.0000
  H   H55       1.0  0.61050  0.84760  0.39610  1.0000
  H   H56       1.0  0.38950  0.15240  0.89610  1.0000
  C   C69       1.0  0.04940  0.32050  0.32520  1.0000
  C   C70       1.0  0.95060  0.67950  0.82520  1.0000
  C   C71       1.0  0.54940  0.67950  0.32520  1.0000
  C   C72       1.0  0.45060  0.32050  0.82520  1.0000
  C   C73       1.0  0.98470  0.34330  0.34560  1.0000
  C   C74       1.0  0.01530  0.65670  0.84560  1.0000
  C   C75       1.0  0.48470  0.65670  0.34560  1.0000
  C   C76       1.0  0.51530  0.34330  0.84560  1.0000
  C   C77       1.0  0.11230  0.34740  0.34750  1.0000
  C   C78       1.0  0.88770  0.65260  0.84750  1.0000
  C   C79       1.0  0.61230  0.65260  0.34750  1.0000
  C   C80       1.0  0.38770  0.34740  0.84750  1.0000
  H   H57       1.0  0.15550  0.33170  0.33350  1.0000
  H   H58       1.0  0.84450  0.66830  0.83350  1.0000
  H   H59       1.0  0.65550  0.66830  0.33350  1.0000
  H   H60       1.0  0.34450  0.33170  0.83350  1.0000
  C   C81       1.0  0.23780  0.15920  0.50170  1.0000
  C   C82       1.0  0.76220  0.84080  0.00170  1.0000
  C   C83       1.0  0.73780  0.84080  0.50170  1.0000
  C   C84       1.0  0.26220  0.15920  0.00170  1.0000
  H   H61       1.0  0.28570  0.15150  0.50630  1.0000
  H   H62       1.0  0.71430  0.84850  0.00630  1.0000
  H   H63       1.0  0.78570  0.84850  0.50630  1.0000
  H   H64       1.0  0.21430  0.15150  0.00630  1.0000
  C   C85       1.0  0.80760  0.55170  0.72560  1.0000
  C   C86       1.0  0.19240  0.44830  0.22560  1.0000
  C   C87       1.0  0.30760  0.44830  0.72560  1.0000
  C   C88       1.0  0.69240  0.55170  0.22560  1.0000
  H   H65       1.0  0.77940  0.58890  0.72550  1.0000
  H   H66       1.0  0.22060  0.41110  0.22550  1.0000
  H   H67       1.0  0.27940  0.41110  0.72550  1.0000
  H   H68       1.0  0.72060  0.58890  0.22550  1.0000
  C   C89       1.0  0.20370  0.14750  0.44230  1.0000
  C   C90       1.0  0.79630  0.85250  0.94230  1.0000
  C   C91       1.0  0.70370  0.85250  0.44230  1.0000
  C   C92       1.0  0.29630  0.14750  0.94230  1.0000
  H   H69       1.0  0.22920  0.13160  0.40720  1.0000
  H   H70       1.0  0.77080  0.86840  0.90720  1.0000
  H   H71       1.0  0.72920  0.86840  0.40720  1.0000
  H   H72       1.0  0.27080  0.13160  0.90720  1.0000
  C   C93       1.0  0.91610  0.00500  0.78350  1.0000
  C   C94       1.0  0.08390  0.99500  0.28350  1.0000
  C   C95       1.0  0.41610  0.99500  0.78350  1.0000
  C   C96       1.0  0.58390  0.00500  0.28350  1.0000
  C   C97       1.0  0.82140  0.43600  0.73340  1.0000
  C   C98       1.0  0.17860  0.56400  0.23340  1.0000
  C   C99       1.0  0.32140  0.56400  0.73340  1.0000
  C   C100      1.0  0.67860  0.43600  0.23340  1.0000
  H   H73       1.0  0.80240  0.39450  0.73960  1.0000
  H   H74       1.0  0.19760  0.60550  0.23960  1.0000
  H   H75       1.0  0.30240  0.60550  0.73960  1.0000
  H   H76       1.0  0.69760  0.39450  0.23960  1.0000
  C   C101      1.0  0.98580  0.39540  0.39330  1.0000
  C   C102      1.0  0.01420  0.60460  0.89330  1.0000
  C   C103      1.0  0.48580  0.60460  0.39330  1.0000
  C   C104      1.0  0.51420  0.39540  0.89330  1.0000
  H   H77       1.0  0.94380  0.41130  0.41000  1.0000
  H   H78       1.0  0.05620  0.58870  0.91000  1.0000
  H   H79       1.0  0.44380  0.58870  0.41000  1.0000
  H   H80       1.0  0.55620  0.41130  0.91000  1.0000
  C   C105      1.0  0.77760  0.49050  0.73690  1.0000
  C   C106      1.0  0.22240  0.50950  0.23690  1.0000
  C   C107      1.0  0.27760  0.50950  0.73690  1.0000
  C   C108      1.0  0.72240  0.49050  0.23690  1.0000
  H   H81       1.0  0.73010  0.48630  0.74640  1.0000
  H   H82       1.0  0.26990  0.51370  0.24640  1.0000
  H   H83       1.0  0.23010  0.51370  0.74640  1.0000
  H   H84       1.0  0.76990  0.48630  0.24640  1.0000
  C   C109      1.0  0.04750  0.42120  0.41380  1.0000
  C   C110      1.0  0.95250  0.57880  0.91380  1.0000
  C   C111      1.0  0.54750  0.57880  0.41380  1.0000
  C   C112      1.0  0.45250  0.42120  0.91380  1.0000
  H   H85       1.0  0.04730  0.45510  0.44380  1.0000
  H   H86       1.0  0.95270  0.54490  0.94380  1.0000
  H   H87       1.0  0.54730  0.54490  0.44380  1.0000
  H   H88       1.0  0.45270  0.45510  0.94380  1.0000
  C   C113      1.0  0.10750  0.39880  0.39160  1.0000
  C   C114      1.0  0.89250  0.60120  0.89160  1.0000
  C   C115      1.0  0.60750  0.60120  0.39160  1.0000
  C   C116      1.0  0.39250  0.39880  0.89160  1.0000
  H   H89       1.0  0.14870  0.41820  0.40610  1.0000
  H   H90       1.0  0.85130  0.58180  0.90610  1.0000
  H   H91       1.0  0.64870  0.58180  0.40610  1.0000
  H   H92       1.0  0.35130  0.41820  0.90610  1.0000
  C   C117      1.0  0.77080  0.01730  0.77430  1.0000
  C   C118      1.0  0.22920  0.98270  0.27430  1.0000
  C   C119      1.0  0.27080  0.98270  0.77430  1.0000
  C   C120      1.0  0.72920  0.01730  0.27430  1.0000
  H   H93       1.0  0.72230  0.02190  0.77260  1.0000
  H   H94       1.0  0.27770  0.97810  0.27260  1.0000
  H   H95       1.0  0.22230  0.97810  0.77260  1.0000
  H   H96       1.0  0.77770  0.02190  0.27260  1.0000
