data_image0
_chemical_formula_structural       Co8O8H8O36C12H4C8H4C8H4C16H4C4H4C8H4C12H4C8H4C8H4C8
_chemical_formula_sum              "Co8 O44 H44 C92"
_cell_length_a       10.23
_cell_length_b       9.468
_cell_length_c       28.006
_cell_angle_alpha    90
_cell_angle_beta     98.048
_cell_angle_gamma    90

_space_group_name_H-M_alt    "P 1"
_space_group_IT_number       1

loop_
  _space_group_symop_operation_xyz
  'x, y, z'

loop_
  _atom_site_type_symbol
  _atom_site_label
  _atom_site_symmetry_multiplicity
  _atom_site_fract_x
  _atom_site_fract_y
  _atom_site_fract_z
  _atom_site_occupancy
  Co  Co1       1.0  0.77973  0.38336  0.69352  1.0000
  Co  Co2       1.0  0.22027  0.88336  0.80648  1.0000
  Co  Co3       1.0  0.22027  0.61664  0.30648  1.0000
  Co  Co4       1.0  0.77973  0.11664  0.19352  1.0000
  Co  Co5       1.0  0.55644  0.43970  0.59720  1.0000
  Co  Co6       1.0  0.44356  0.93970  0.90280  1.0000
  Co  Co7       1.0  0.44356  0.56030  0.40280  1.0000
  Co  Co8       1.0  0.55644  0.06030  0.09720  1.0000
  O   O1        1.0  0.53270  0.24630  0.62640  1.0000
  O   O2        1.0  0.46730  0.74630  0.87360  1.0000
  O   O3        1.0  0.46730  0.75370  0.37360  1.0000
  O   O4        1.0  0.53270  0.25370  0.12640  1.0000
  O   O5        1.0  0.57850  0.64090  0.56420  1.0000
  O   O6        1.0  0.42150  0.14090  0.93580  1.0000
  O   O7        1.0  0.42150  0.35910  0.43580  1.0000
  O   O8        1.0  0.57850  0.85910  0.06420  1.0000
  H   H1        1.0  0.50150  0.65140  0.56940  1.0000
  H   H2        1.0  0.49850  0.15140  0.93060  1.0000
  H   H3        1.0  0.49850  0.34860  0.43060  1.0000
  H   H4        1.0  0.50150  0.84860  0.06940  1.0000
  H   H5        1.0  0.58860  0.63370  0.53470  1.0000
  H   H6        1.0  0.41140  0.13370  0.96530  1.0000
  H   H7        1.0  0.41140  0.36630  0.46530  1.0000
  H   H8        1.0  0.58860  0.86630  0.03470  1.0000
  O   O9        1.0  0.70990  0.18690  0.67780  1.0000
  O   O10       1.0  0.29010  0.68690  0.82220  1.0000
  O   O11       1.0  0.29010  0.81310  0.32220  1.0000
  O   O12       1.0  0.70990  0.31310  0.17780  1.0000
  O   O13       1.0  0.78250  0.65270  0.70590  1.0000
  O   O14       1.0  0.21750  0.15270  0.79410  1.0000
  O   O15       1.0  0.21750  0.34730  0.29410  1.0000
  O   O16       1.0  0.78250  0.84730  0.20590  1.0000
  O   O17       1.0  0.63260  0.51830  0.66600  1.0000
  O   O18       1.0  0.36740  0.01830  0.83400  1.0000
  O   O19       1.0  0.36740  0.48170  0.33400  1.0000
  O   O20       1.0  0.63260  0.98170  0.16600  1.0000
  O   O21       1.0  0.28770  0.87800  0.73500  1.0000
  O   O22       1.0  0.71230  0.37800  0.76500  1.0000
  O   O23       1.0  0.71230  0.12200  0.26500  1.0000
  O   O24       1.0  0.28770  0.62200  0.23500  1.0000
  O   O25       1.0  0.08120  0.84860  0.74520  1.0000
  O   O26       1.0  0.91880  0.34860  0.75480  1.0000
  O   O27       1.0  0.91880  0.15140  0.25480  1.0000
  O   O28       1.0  0.08120  0.65140  0.24520  1.0000
  O   O29       1.0  0.58970  0.62590  0.46420  1.0000
  O   O30       1.0  0.41030  0.12590  0.03580  1.0000
  O   O31       1.0  0.41030  0.37410  0.53580  1.0000
  O   O32       1.0  0.58970  0.87410  0.96420  1.0000
  O   O33       1.0  0.65210  0.53880  0.39920  1.0000
  O   O34       1.0  0.34790  0.03880  0.10080  1.0000
  O   O35       1.0  0.34790  0.46120  0.60080  1.0000
  O   O36       1.0  0.65210  0.96120  0.89920  1.0000
  O   O37       1.0  0.10060  0.60780  0.35900  1.0000
  O   O38       1.0  0.89940  0.10780  0.14100  1.0000
  O   O39       1.0  0.89940  0.39220  0.64100  1.0000
  O   O40       1.0  0.10060  0.89220  0.85900  1.0000
  O   O41       1.0  0.26260  0.61080  0.42190  1.0000
  O   O42       1.0  0.73740  0.11080  0.07810  1.0000
  O   O43       1.0  0.73740  0.38920  0.57810  1.0000
  O   O44       1.0  0.26260  0.88920  0.92190  1.0000
  C   C1        1.0  0.60300  0.15900  0.65200  1.0000
  C   C2        1.0  0.39700  0.65900  0.84800  1.0000
  C   C3        1.0  0.39700  0.84100  0.34800  1.0000
  C   C4        1.0  0.60300  0.34100  0.15200  1.0000
  C   C5        1.0  0.55180  0.01010  0.65330  1.0000
  C   C6        1.0  0.44820  0.51010  0.84670  1.0000
  C   C7        1.0  0.44820  0.98990  0.34670  1.0000
  C   C8        1.0  0.55180  0.48990  0.15330  1.0000
  C   C9        1.0  0.63570  0.89880  0.66780  1.0000
  C   C10       1.0  0.36430  0.39880  0.83220  1.0000
  C   C11       1.0  0.36430  0.10120  0.33220  1.0000
  C   C12       1.0  0.63570  0.60120  0.16780  1.0000
  H   H9        1.0  0.72550  0.91440  0.67700  1.0000
  H   H10       1.0  0.27450  0.41440  0.82300  1.0000
  H   H11       1.0  0.27450  0.08560  0.32300  1.0000
  H   H12       1.0  0.72550  0.58560  0.17700  1.0000
  C   C13       1.0  0.58370  0.76290  0.66870  1.0000
  C   C14       1.0  0.41630  0.26290  0.83130  1.0000
  C   C15       1.0  0.41630  0.23710  0.33130  1.0000
  C   C16       1.0  0.58370  0.73710  0.16870  1.0000
  C   C17       1.0  0.44910  0.74170  0.65790  1.0000
  C   C18       1.0  0.55090  0.24170  0.84210  1.0000
  C   C19       1.0  0.55090  0.25830  0.34210  1.0000
  C   C20       1.0  0.44910  0.75830  0.15790  1.0000
  H   H13       1.0  0.41490  0.65130  0.66010  1.0000
  H   H14       1.0  0.58510  0.15130  0.83990  1.0000
  H   H15       1.0  0.58510  0.34870  0.33990  1.0000
  H   H16       1.0  0.41490  0.84870  0.16010  1.0000
  C   C21       1.0  0.36390  0.85370  0.64370  1.0000
  C   C22       1.0  0.63610  0.35370  0.85630  1.0000
  C   C23       1.0  0.63610  0.14630  0.35630  1.0000
  C   C24       1.0  0.36390  0.64630  0.14370  1.0000
  C   C25       1.0  0.41570  0.98460  0.64030  1.0000
  C   C26       1.0  0.58430  0.48460  0.85970  1.0000
  C   C27       1.0  0.58430  0.01540  0.35970  1.0000
  C   C28       1.0  0.41570  0.51540  0.14030  1.0000
  H   H17       1.0  0.36030  0.05910  0.62930  1.0000
  H   H18       1.0  0.63970  0.55910  0.87070  1.0000
  H   H19       1.0  0.63970  0.94090  0.37070  1.0000
  H   H20       1.0  0.36030  0.44090  0.12930  1.0000
  C   C29       1.0  0.67390  0.63950  0.68110  1.0000
  C   C30       1.0  0.32610  0.13950  0.81890  1.0000
  C   C31       1.0  0.32610  0.36050  0.31890  1.0000
  C   C32       1.0  0.67390  0.86050  0.18110  1.0000
  C   C33       1.0  0.21900  0.82460  0.63140  1.0000
  C   C34       1.0  0.78100  0.32460  0.86860  1.0000
  C   C35       1.0  0.78100  0.17540  0.36860  1.0000
  C   C36       1.0  0.21900  0.67540  0.13140  1.0000
  C   C37       1.0  0.13070  0.82520  0.66490  1.0000
  C   C38       1.0  0.86930  0.32520  0.83510  1.0000
  C   C39       1.0  0.86930  0.17480  0.33510  1.0000
  C   C40       1.0  0.13070  0.67480  0.16490  1.0000
  C   C41       1.0  0.99820  0.79150  0.64870  1.0000
  C   C42       1.0  0.00180  0.29150  0.85130  1.0000
  C   C43       1.0  0.00180  0.20850  0.35130  1.0000
  C   C44       1.0  0.99820  0.70850  0.14870  1.0000
  H   H21       1.0  0.93890  0.79260  0.67100  1.0000
  H   H22       1.0  0.06110  0.29260  0.82900  1.0000
  H   H23       1.0  0.06110  0.20740  0.32900  1.0000
  H   H24       1.0  0.93890  0.70740  0.17100  1.0000
  C   C45       1.0  0.95030  0.75630  0.60080  1.0000
  C   C46       1.0  0.04970  0.25630  0.89920  1.0000
  C   C47       1.0  0.04970  0.24370  0.39920  1.0000
  C   C48       1.0  0.95030  0.74370  0.10080  1.0000
  H   H25       1.0  0.86200  0.73310  0.59160  1.0000
  H   H26       1.0  0.13800  0.23310  0.90840  1.0000
  H   H27       1.0  0.13800  0.26690  0.40840  1.0000
  H   H28       1.0  0.86200  0.76690  0.09160  1.0000
  C   C49       1.0  0.03920  0.75720  0.56740  1.0000
  C   C50       1.0  0.96080  0.25720  0.93260  1.0000
  C   C51       1.0  0.96080  0.24280  0.43260  1.0000
  C   C52       1.0  0.03920  0.74280  0.06740  1.0000
  C   C53       1.0  0.16920  0.79280  0.58380  1.0000
  C   C54       1.0  0.83080  0.29280  0.91620  1.0000
  C   C55       1.0  0.83080  0.20720  0.41620  1.0000
  C   C56       1.0  0.16920  0.70720  0.08380  1.0000
  H   H29       1.0  0.22780  0.79560  0.56120  1.0000
  H   H30       1.0  0.77220  0.29560  0.93880  1.0000
  H   H31       1.0  0.77220  0.20440  0.43880  1.0000
  H   H32       1.0  0.22780  0.70440  0.06120  1.0000
  C   C57       1.0  0.17120  0.85280  0.71800  1.0000
  C   C58       1.0  0.82880  0.35280  0.78200  1.0000
  C   C59       1.0  0.82880  0.14720  0.28200  1.0000
  C   C60       1.0  0.17120  0.64720  0.21800  1.0000
  C   C61       1.0  0.99480  0.71300  0.51660  1.0000
  C   C62       1.0  0.00520  0.21300  0.98340  1.0000
  C   C63       1.0  0.00520  0.28700  0.48340  1.0000
  C   C64       1.0  0.99480  0.78700  0.01660  1.0000
  C   C65       1.0  0.86230  0.68190  0.50050  1.0000
  C   C66       1.0  0.13770  0.18190  0.99950  1.0000
  C   C67       1.0  0.13770  0.31810  0.49950  1.0000
  C   C68       1.0  0.86230  0.81810  0.00050  1.0000
  H   H33       1.0  0.80000  0.69650  0.52120  1.0000
  H   H34       1.0  0.20000  0.19650  0.97880  1.0000
  H   H35       1.0  0.20000  0.30350  0.47880  1.0000
  H   H36       1.0  0.80000  0.80350  0.02120  1.0000
  C   C69       1.0  0.82210  0.63080  0.45530  1.0000
  C   C70       1.0  0.17790  0.13080  0.04470  1.0000
  C   C71       1.0  0.17790  0.36920  0.54470  1.0000
  C   C72       1.0  0.82210  0.86920  0.95530  1.0000
  C   C73       1.0  0.91250  0.60870  0.42320  1.0000
  C   C74       1.0  0.08750  0.10870  0.07680  1.0000
  C   C75       1.0  0.08750  0.39130  0.57680  1.0000
  C   C76       1.0  0.91250  0.89130  0.92320  1.0000
  H   H37       1.0  0.88430  0.57260  0.39260  1.0000
  H   H38       1.0  0.11570  0.07260  0.10740  1.0000
  H   H39       1.0  0.11570  0.42740  0.60740  1.0000
  H   H40       1.0  0.88430  0.92740  0.89260  1.0000
  C   C77       1.0  0.04440  0.64050  0.43700  1.0000
  C   C78       1.0  0.95560  0.14050  0.06300  1.0000
  C   C79       1.0  0.95560  0.35950  0.56300  1.0000
  C   C80       1.0  0.04440  0.85950  0.93700  1.0000
  C   C81       1.0  0.08490  0.68900  0.48440  1.0000
  C   C82       1.0  0.91510  0.18900  0.01560  1.0000
  C   C83       1.0  0.91510  0.31100  0.51560  1.0000
  C   C84       1.0  0.08490  0.81100  0.98440  1.0000
  H   H41       1.0  0.17410  0.70550  0.49440  1.0000
  H   H42       1.0  0.82590  0.20550  0.00560  1.0000
  H   H43       1.0  0.82590  0.29450  0.50560  1.0000
  H   H44       1.0  0.17410  0.79450  0.99440  1.0000
  C   C85       1.0  0.14660  0.61590  0.40420  1.0000
  C   C86       1.0  0.85340  0.11590  0.09580  1.0000
  C   C87       1.0  0.85340  0.38410  0.59580  1.0000
  C   C88       1.0  0.14660  0.88410  0.90420  1.0000
  C   C89       1.0  0.67910  0.59510  0.43790  1.0000
  C   C90       1.0  0.32090  0.09510  0.06210  1.0000
  C   C91       1.0  0.32090  0.40490  0.56210  1.0000
  C   C92       1.0  0.67910  0.90490  0.93790  1.0000
