data_image0
_chemical_formula_structural       Mn8O8H8O40N4C12H4C8H4C8H4C12H4C12H4C4H4C8H4C8H4C8H4C16H4C4H12C4H12
_chemical_formula_sum              "Mn8 O48 H72 N4 C104"
_cell_length_a       10.615
_cell_length_b       9.6419
_cell_length_c       28.48
_cell_angle_alpha    90
_cell_angle_beta     94.819
_cell_angle_gamma    90

_space_group_name_H-M_alt    "P 1"
_space_group_IT_number       1

loop_
  _space_group_symop_operation_xyz
  'x, y, z'

loop_
  _atom_site_type_symbol
  _atom_site_label
  _atom_site_symmetry_multiplicity
  _atom_site_fract_x
  _atom_site_fract_y
  _atom_site_fract_z
  _atom_site_occupancy
  Mn  Mn1       1.0  0.55212  0.19468  0.09425  1.0000
  Mn  Mn2       1.0  0.44788  0.69468  0.40575  1.0000
  Mn  Mn3       1.0  0.44788  0.80532  0.90575  1.0000
  Mn  Mn4       1.0  0.55212  0.30532  0.59425  1.0000
  Mn  Mn5       1.0  0.76770  0.26041  0.69087  1.0000
  Mn  Mn6       1.0  0.23230  0.76041  0.80913  1.0000
  Mn  Mn7       1.0  0.23230  0.73959  0.30913  1.0000
  Mn  Mn8       1.0  0.76770  0.23959  0.19087  1.0000
  O   O1        1.0  0.35143  0.14870  0.09054  1.0000
  O   O2        1.0  0.64857  0.64870  0.40946  1.0000
  O   O3        1.0  0.64857  0.85130  0.90946  1.0000
  O   O4        1.0  0.35143  0.35130  0.59054  1.0000
  O   O5        1.0  0.58640  0.99340  0.06123  1.0000
  O   O6        1.0  0.41360  0.49340  0.43877  1.0000
  O   O7        1.0  0.41360  0.00660  0.93877  1.0000
  O   O8        1.0  0.58640  0.50660  0.56123  1.0000
  H   H1        1.0  0.65660  0.00150  0.04230  1.0000
  H   H2        1.0  0.34340  0.50150  0.45770  1.0000
  H   H3        1.0  0.34340  0.99850  0.95770  1.0000
  H   H4        1.0  0.65660  0.49850  0.54230  1.0000
  H   H5        1.0  0.51240  0.96620  0.04170  1.0000
  H   H6        1.0  0.48760  0.46620  0.45830  1.0000
  H   H7        1.0  0.48760  0.03380  0.95830  1.0000
  H   H8        1.0  0.51240  0.53380  0.54170  1.0000
  O   O9        1.0  0.34380  0.00510  0.02878  1.0000
  O   O10       1.0  0.65620  0.50510  0.47122  1.0000
  O   O11       1.0  0.65620  0.99490  0.97122  1.0000
  O   O12       1.0  0.34380  0.49490  0.52878  1.0000
  O   O13       1.0  0.90440  0.21530  0.14198  1.0000
  O   O14       1.0  0.09560  0.71530  0.35802  1.0000
  O   O15       1.0  0.09560  0.78470  0.85802  1.0000
  O   O16       1.0  0.90440  0.28470  0.64198  1.0000
  O   O17       1.0  0.74840  0.23430  0.08571  1.0000
  O   O18       1.0  0.25160  0.73430  0.41429  1.0000
  O   O19       1.0  0.25160  0.76570  0.91429  1.0000
  O   O20       1.0  0.74840  0.26570  0.58571  1.0000
  O   O21       1.0  0.47280  0.62010  0.86720  1.0000
  O   O22       1.0  0.52720  0.12010  0.63280  1.0000
  O   O23       1.0  0.52720  0.37990  0.13280  1.0000
  O   O24       1.0  0.47280  0.87990  0.36720  1.0000
  O   O25       1.0  0.29750  0.55570  0.82418  1.0000
  O   O26       1.0  0.70250  0.05570  0.67582  1.0000
  O   O27       1.0  0.70250  0.44430  0.17582  1.0000
  O   O28       1.0  0.29750  0.94430  0.32418  1.0000
  O   O29       1.0  0.38770  0.89580  0.83569  1.0000
  O   O30       1.0  0.61230  0.39580  0.66431  1.0000
  O   O31       1.0  0.61230  0.10420  0.16431  1.0000
  O   O32       1.0  0.38770  0.60420  0.33569  1.0000
  O   O33       1.0  0.24140  0.02990  0.80041  1.0000
  O   O34       1.0  0.75860  0.52990  0.69959  1.0000
  O   O35       1.0  0.75860  0.97010  0.19959  1.0000
  O   O36       1.0  0.24140  0.47010  0.30041  1.0000
  O   O37       1.0  0.91070  0.20990  0.75057  1.0000
  O   O38       1.0  0.08930  0.70990  0.74943  1.0000
  O   O39       1.0  0.08930  0.79010  0.24943  1.0000
  O   O40       1.0  0.91070  0.29010  0.25057  1.0000
  O   O41       1.0  0.71900  0.25710  0.76477  1.0000
  O   O42       1.0  0.28100  0.75710  0.73523  1.0000
  O   O43       1.0  0.28100  0.74290  0.23523  1.0000
  O   O44       1.0  0.71900  0.24290  0.26477  1.0000
  O   O45       1.0  0.51670  0.29610  0.02548  1.0000
  O   O46       1.0  0.48330  0.79610  0.47452  1.0000
  O   O47       1.0  0.48330  0.70390  0.97452  1.0000
  O   O48       1.0  0.51670  0.20390  0.52548  1.0000
  N   N1        1.0  0.33910  0.39930  0.99237  1.0000
  N   N2        1.0  0.66090  0.89930  0.50763  1.0000
  N   N3        1.0  0.66090  0.60070  0.00763  1.0000
  N   N4        1.0  0.33910  0.10070  0.49237  1.0000
  C   C1        1.0  0.29510  0.09220  0.05434  1.0000
  C   C2        1.0  0.70490  0.59220  0.44566  1.0000
  C   C3        1.0  0.70490  0.90780  0.94566  1.0000
  C   C4        1.0  0.29510  0.40780  0.55434  1.0000
  C   C5        1.0  0.16090  0.13440  0.04084  1.0000
  C   C6        1.0  0.83910  0.63440  0.45916  1.0000
  C   C7        1.0  0.83910  0.86560  0.95916  1.0000
  C   C8        1.0  0.16090  0.36560  0.54084  1.0000
  C   C9        1.0  0.07920  0.16480  0.07546  1.0000
  C   C10       1.0  0.92080  0.66480  0.42454  1.0000
  C   C11       1.0  0.92080  0.83520  0.92454  1.0000
  C   C12       1.0  0.07920  0.33520  0.57546  1.0000
  H   H9        1.0  0.10890  0.16360  0.10710  1.0000
  H   H10       1.0  0.89110  0.66360  0.39290  1.0000
  H   H11       1.0  0.89110  0.83640  0.89290  1.0000
  H   H12       1.0  0.10890  0.33640  0.60710  1.0000
  C   C13       1.0  0.95400  0.19670  0.06252  1.0000
  C   C14       1.0  0.04600  0.69670  0.43748  1.0000
  C   C15       1.0  0.04600  0.80330  0.93748  1.0000
  C   C16       1.0  0.95400  0.30330  0.56252  1.0000
  C   C17       1.0  0.91180  0.20530  0.01461  1.0000
  C   C18       1.0  0.08820  0.70530  0.48539  1.0000
  C   C19       1.0  0.08820  0.79470  0.98539  1.0000
  C   C20       1.0  0.91180  0.29470  0.51461  1.0000
  H   H13       1.0  0.82810  0.22930  0.00610  1.0000
  H   H14       1.0  0.17190  0.72930  0.49390  1.0000
  H   H15       1.0  0.17190  0.77070  0.99390  1.0000
  H   H16       1.0  0.82810  0.27070  0.50610  1.0000
  C   C21       1.0  0.99160  0.17900  0.97957  1.0000
  C   C22       1.0  0.00840  0.67900  0.52043  1.0000
  C   C23       1.0  0.00840  0.82100  0.02043  1.0000
  C   C24       1.0  0.99160  0.32100  0.47957  1.0000
  C   C25       1.0  0.11640  0.13960  0.99386  1.0000
  C   C26       1.0  0.88360  0.63960  0.50614  1.0000
  C   C27       1.0  0.88360  0.86040  0.00614  1.0000
  C   C28       1.0  0.11640  0.36040  0.49386  1.0000
  H   H17       1.0  0.17060  0.11640  0.97110  1.0000
  H   H18       1.0  0.82940  0.61640  0.52890  1.0000
  H   H19       1.0  0.82940  0.88360  0.02890  1.0000
  H   H20       1.0  0.17060  0.38360  0.47110  1.0000
  C   C29       1.0  0.86190  0.21710  0.09947  1.0000
  C   C30       1.0  0.13810  0.71710  0.40053  1.0000
  C   C31       1.0  0.13810  0.78290  0.90053  1.0000
  C   C32       1.0  0.86190  0.28290  0.59947  1.0000
  C   C33       1.0  0.94870  0.18790  0.92823  1.0000
  C   C34       1.0  0.05130  0.68790  0.57177  1.0000
  C   C35       1.0  0.05130  0.81210  0.07177  1.0000
  C   C36       1.0  0.94870  0.31210  0.42823  1.0000
  C   C37       1.0  0.82120  0.20820  0.91309  1.0000
  C   C38       1.0  0.17880  0.70820  0.58691  1.0000
  C   C39       1.0  0.17880  0.79180  0.08691  1.0000
  C   C40       1.0  0.82120  0.29180  0.41309  1.0000
  H   H21       1.0  0.76320  0.21690  0.93560  1.0000
  H   H22       1.0  0.23680  0.71690  0.56440  1.0000
  H   H23       1.0  0.23680  0.78310  0.06440  1.0000
  H   H24       1.0  0.76320  0.28310  0.43560  1.0000
  C   C41       1.0  0.77730  0.21590  0.86545  1.0000
  C   C42       1.0  0.22270  0.71590  0.63455  1.0000
  C   C43       1.0  0.22270  0.78410  0.13455  1.0000
  C   C44       1.0  0.77730  0.28410  0.36545  1.0000
  C   C45       1.0  0.86420  0.20620  0.83139  1.0000
  C   C46       1.0  0.13580  0.70620  0.66861  1.0000
  C   C47       1.0  0.13580  0.79380  0.16861  1.0000
  C   C48       1.0  0.86420  0.29380  0.33139  1.0000
  C   C49       1.0  0.99140  0.18300  0.84621  1.0000
  C   C50       1.0  0.00860  0.68300  0.65379  1.0000
  C   C51       1.0  0.00860  0.81700  0.15379  1.0000
  C   C52       1.0  0.99140  0.31700  0.34621  1.0000
  H   H25       1.0  0.04950  0.17350  0.82370  1.0000
  H   H26       1.0  0.95050  0.67350  0.67630  1.0000
  H   H27       1.0  0.95050  0.82650  0.17630  1.0000
  H   H28       1.0  0.04950  0.32650  0.32370  1.0000
  C   C53       1.0  0.03260  0.17410  0.89301  1.0000
  C   C54       1.0  0.96740  0.67410  0.60699  1.0000
  C   C55       1.0  0.96740  0.82590  0.10699  1.0000
  C   C56       1.0  0.03260  0.32590  0.39301  1.0000
  H   H29       1.0  0.11790  0.15850  0.90160  1.0000
  H   H30       1.0  0.88210  0.65850  0.59840  1.0000
  H   H31       1.0  0.88210  0.84150  0.09840  1.0000
  H   H32       1.0  0.11790  0.34150  0.40160  1.0000
  C   C57       1.0  0.63790  0.23430  0.85398  1.0000
  C   C58       1.0  0.36210  0.73430  0.64602  1.0000
  C   C59       1.0  0.36210  0.76570  0.14602  1.0000
  C   C60       1.0  0.63790  0.26570  0.35398  1.0000
  C   C61       1.0  0.58460  0.36590  0.85524  1.0000
  C   C62       1.0  0.41540  0.86590  0.64476  1.0000
  C   C63       1.0  0.41540  0.63410  0.14476  1.0000
  C   C64       1.0  0.58460  0.13410  0.35524  1.0000
  H   H33       1.0  0.63610  0.44170  0.86340  1.0000
  H   H34       1.0  0.36390  0.94170  0.63660  1.0000
  H   H35       1.0  0.36390  0.55830  0.13660  1.0000
  H   H36       1.0  0.63610  0.05830  0.36340  1.0000
  C   C65       1.0  0.45480  0.38650  0.84440  1.0000
  C   C66       1.0  0.54520  0.88650  0.65560  1.0000
  C   C67       1.0  0.54520  0.61350  0.15560  1.0000
  C   C68       1.0  0.45480  0.11350  0.34440  1.0000
  C   C69       1.0  0.37790  0.27230  0.83303  1.0000
  C   C70       1.0  0.62210  0.77230  0.66697  1.0000
  C   C71       1.0  0.62210  0.72770  0.16697  1.0000
  C   C72       1.0  0.37790  0.22770  0.33303  1.0000
  H   H37       1.0  0.29190  0.28480  0.82510  1.0000
  H   H38       1.0  0.70810  0.78480  0.67490  1.0000
  H   H39       1.0  0.70810  0.71520  0.17490  1.0000
  H   H40       1.0  0.29190  0.21520  0.32510  1.0000
  C   C73       1.0  0.42960  0.13970  0.83356  1.0000
  C   C74       1.0  0.57040  0.63970  0.66644  1.0000
  C   C75       1.0  0.57040  0.86030  0.16644  1.0000
  C   C76       1.0  0.42960  0.36030  0.33356  1.0000
  C   C77       1.0  0.55940  0.12150  0.84351  1.0000
  C   C78       1.0  0.44060  0.62150  0.65649  1.0000
  C   C79       1.0  0.44060  0.87850  0.15649  1.0000
  C   C80       1.0  0.55940  0.37850  0.34351  1.0000
  H   H41       1.0  0.59370  0.03280  0.84310  1.0000
  H   H42       1.0  0.40630  0.53280  0.65690  1.0000
  H   H43       1.0  0.40630  0.96720  0.15690  1.0000
  H   H44       1.0  0.59370  0.46720  0.34310  1.0000
  C   C81       1.0  0.40380  0.53140  0.84537  1.0000
  C   C82       1.0  0.59620  0.03140  0.65463  1.0000
  C   C83       1.0  0.59620  0.46860  0.15463  1.0000
  C   C84       1.0  0.40380  0.96860  0.34537  1.0000
  C   C85       1.0  0.34690  0.01570  0.82223  1.0000
  C   C86       1.0  0.65310  0.51570  0.67777  1.0000
  C   C87       1.0  0.65310  0.98430  0.17777  1.0000
  C   C88       1.0  0.34690  0.48430  0.32223  1.0000
  C   C89       1.0  0.82870  0.22470  0.77952  1.0000
  C   C90       1.0  0.17130  0.72470  0.72048  1.0000
  C   C91       1.0  0.17130  0.77530  0.22048  1.0000
  C   C92       1.0  0.82870  0.27530  0.27952  1.0000
  C   C93       1.0  0.44170  0.32250  0.99136  1.0000
  C   C94       1.0  0.55830  0.82250  0.50864  1.0000
  C   C95       1.0  0.55830  0.67750  0.00864  1.0000
  C   C96       1.0  0.44170  0.17750  0.49136  1.0000
  H   H45       1.0  0.45880  0.28530  0.96240  1.0000
  H   H46       1.0  0.54120  0.78530  0.53760  1.0000
  H   H47       1.0  0.54120  0.71470  0.03760  1.0000
  H   H48       1.0  0.45880  0.21470  0.46240  1.0000
  C   C97       1.0  0.30690  0.46470  0.03562  1.0000
  C   C98       1.0  0.69310  0.96470  0.46438  1.0000
  C   C99       1.0  0.69310  0.53530  0.96438  1.0000
  C   C100      1.0  0.30690  0.03530  0.53562  1.0000
  H   H49       1.0  0.22970  0.51600  0.02970  1.0000
  H   H50       1.0  0.77030  0.01600  0.47030  1.0000
  H   H51       1.0  0.77030  0.48400  0.97030  1.0000
  H   H52       1.0  0.22970  0.98400  0.52970  1.0000
  H   H53       1.0  0.29600  0.39480  0.05890  1.0000
  H   H54       1.0  0.70400  0.89480  0.44110  1.0000
  H   H55       1.0  0.70400  0.60520  0.94110  1.0000
  H   H56       1.0  0.29600  0.10520  0.55890  1.0000
  H   H57       1.0  0.37360  0.52650  0.04690  1.0000
  H   H58       1.0  0.62640  0.02650  0.45310  1.0000
  H   H59       1.0  0.62640  0.47350  0.95310  1.0000
  H   H60       1.0  0.37360  0.97350  0.54690  1.0000
  C   C101      1.0  0.26070  0.43070  0.94911  1.0000
  C   C102      1.0  0.73930  0.93070  0.55089  1.0000
  C   C103      1.0  0.73930  0.56930  0.05089  1.0000
  C   C104      1.0  0.26070  0.06930  0.44911  1.0000
  H   H61       1.0  0.19050  0.48730  0.95640  1.0000
  H   H62       1.0  0.80950  0.98730  0.54360  1.0000
  H   H63       1.0  0.80950  0.51270  0.04360  1.0000
  H   H64       1.0  0.19050  0.01270  0.45640  1.0000
  H   H65       1.0  0.31020  0.47960  0.92770  1.0000
  H   H66       1.0  0.68980  0.97960  0.57230  1.0000
  H   H67       1.0  0.68980  0.52040  0.07230  1.0000
  H   H68       1.0  0.31020  0.02040  0.42770  1.0000
  H   H69       1.0  0.22980  0.34580  0.93470  1.0000
  H   H70       1.0  0.77020  0.84580  0.56530  1.0000
  H   H71       1.0  0.77020  0.65420  0.06530  1.0000
  H   H72       1.0  0.22980  0.15420  0.43470  1.0000
