data_image0
_chemical_formula_structural       Co2O2H4O2H4O2H4O12N6C4H2C4H2C4H2C6H2C4
_chemical_formula_sum              "Co2 O18 H20 N6 C22"
_cell_length_a       6.994
_cell_length_b       10.99
_cell_length_c       12.008
_cell_angle_alpha    82.639
_cell_angle_beta     82.527
_cell_angle_gamma    71.827

_space_group_name_H-M_alt    "P 1"
_space_group_IT_number       1

loop_
  _space_group_symop_operation_xyz
  'x, y, z'

loop_
  _atom_site_type_symbol
  _atom_site_label
  _atom_site_symmetry_multiplicity
  _atom_site_fract_x
  _atom_site_fract_y
  _atom_site_fract_z
  _atom_site_occupancy
  Co  Co1       1.0  1.00000  0.50000  0.50000  1.0000
  Co  Co2       1.0  0.00000  0.00000  0.00000  1.0000
  O   O1        1.0  0.17320  0.93590  0.14076  1.0000
  O   O2        1.0  0.82680  0.06410  0.85924  1.0000
  H   H1        1.0  0.14600  0.91100  0.20970  1.0000
  H   H2        1.0  0.85400  0.08900  0.79030  1.0000
  H   H3        1.0  0.30150  0.92300  0.13400  1.0000
  H   H4        1.0  0.69850  0.07700  0.86600  1.0000
  O   O3        1.0  0.25810  0.89710  0.90350  1.0000
  O   O4        1.0  0.74190  0.10290  0.09650  1.0000
  H   H5        1.0  0.27900  0.84000  0.85800  1.0000
  H   H6        1.0  0.72100  0.16000  0.14200  1.0000
  H   H7        1.0  0.31500  0.95300  0.87200  1.0000
  H   H8        1.0  0.68500  0.04700  0.12800  1.0000
  O   O5        1.0  0.31210  0.40750  0.52764  1.0000
  O   O6        1.0  0.68790  0.59250  0.47236  1.0000
  H   H9        1.0  0.38600  0.41400  0.46610  1.0000
  H   H10       1.0  0.61400  0.58600  0.53390  1.0000
  H   H11       1.0  0.34800  0.44800  0.57300  1.0000
  H   H12       1.0  0.65200  0.55200  0.42700  1.0000
  O   O7        1.0  0.39540  0.10550  0.85217  1.0000
  O   O8        1.0  0.60460  0.89450  0.14783  1.0000
  O   O9        1.0  0.11890  0.15167  0.97568  1.0000
  O   O10       1.0  0.88110  0.84833  0.02432  1.0000
  O   O11       1.0  0.37980  0.70599  0.76030  1.0000
  O   O12       1.0  0.62020  0.29401  0.23970  1.0000
  O   O13       1.0  0.44790  0.54370  0.65412  1.0000
  O   O14       1.0  0.55210  0.45630  0.34588  1.0000
  O   O15       1.0  0.11750  0.83380  0.35972  1.0000
  O   O16       1.0  0.88250  0.16620  0.64028  1.0000
  O   O17       1.0  0.04770  0.68036  0.48465  1.0000
  O   O18       1.0  0.95230  0.31964  0.51535  1.0000
  N   N1        1.0  0.17240  0.53030  0.15255  1.0000
  N   N2        1.0  0.82760  0.46970  0.84745  1.0000
  N   N3        1.0  0.11450  0.45660  0.24137  1.0000
  N   N4        1.0  0.88550  0.54340  0.75863  1.0000
  N   N5        1.0  0.07640  0.52530  0.32725  1.0000
  N   N6        1.0  0.92360  0.47470  0.67275  1.0000
  C   C1        1.0  0.33440  0.50910  0.84730  1.0000
  C   C2        1.0  0.66560  0.49090  0.15270  1.0000
  C   C3        1.0  0.34330  0.38260  0.83730  1.0000
  C   C4        1.0  0.65670  0.61740  0.16270  1.0000
  H   H13       1.0  0.38800  0.34810  0.76840  1.0000
  H   H14       1.0  0.61200  0.65190  0.23160  1.0000
  C   C5        1.0  0.28540  0.30750  0.93000  1.0000
  C   C6        1.0  0.71460  0.69250  0.07000  1.0000
  C   C7        1.0  0.22800  0.35640  0.03470  1.0000
  C   C8        1.0  0.77200  0.64360  0.96530  1.0000
  H   H15       1.0  0.19060  0.30640  0.09710  1.0000
  H   H16       1.0  0.80940  0.69360  0.90290  1.0000
  C   C9        1.0  0.22770  0.48050  0.04430  1.0000
  C   C10       1.0  0.77230  0.51950  0.95570  1.0000
  C   C11       1.0  0.27650  0.55800  0.95170  1.0000
  C   C12       1.0  0.72350  0.44200  0.04830  1.0000
  H   H17       1.0  0.27050  0.64230  0.95940  1.0000
  H   H18       1.0  0.72950  0.35770  0.04060  1.0000
  C   C13       1.0  0.39020  0.59340  0.74630  1.0000
  C   C14       1.0  0.60980  0.40660  0.25370  1.0000
  C   C15       1.0  0.26770  0.17660  0.91800  1.0000
  C   C16       1.0  0.73230  0.82340  0.08200  1.0000
  C   C17       1.0  0.17090  0.64480  0.18210  1.0000
  C   C18       1.0  0.82910  0.35520  0.81790  1.0000
  H   H19       1.0  0.20400  0.71150  0.13620  1.0000
  H   H20       1.0  0.79600  0.28850  0.86380  1.0000
  C   C19       1.0  0.10930  0.64060  0.29530  1.0000
  C   C20       1.0  0.89070  0.35940  0.70470  1.0000
  C   C21       1.0  0.08930  0.72660  0.38570  1.0000
  C   C22       1.0  0.91070  0.27340  0.61430  1.0000
