data_image0
_chemical_formula_structural       P4Mo10O46Cu3N4H2N4H2N4H2N4H2N4H2N4H2C2H2C2H2C2H2C2H2C2H2C2H2C2H2C2H2C2H2C2H2C2H2C2H2C2H2C2H2C2H2C2H2C2H2C2H2
_chemical_formula_sum              "P4 Mo10 O46 Cu3 N24 H48 C36"
_cell_length_a       12.302
_cell_length_b       14.192
_cell_length_c       19.351
_cell_angle_alpha    97.761
_cell_angle_beta     97.555
_cell_angle_gamma    98.569

_space_group_name_H-M_alt    "P 1"
_space_group_IT_number       1

loop_
  _space_group_symop_operation_xyz
  'x, y, z'

loop_
  _atom_site_type_symbol
  _atom_site_label
  _atom_site_symmetry_multiplicity
  _atom_site_fract_x
  _atom_site_fract_y
  _atom_site_fract_z
  _atom_site_occupancy
  P   P1        1.0  0.43631  0.78670  0.21491  1.0000
  P   P2        1.0  0.56369  0.21330  0.78509  1.0000
  P   P3        1.0  0.24365  0.56827  0.25430  1.0000
  P   P4        1.0  0.75635  0.43173  0.74570  1.0000
  Mo  Mo1       1.0  0.54153  0.62312  0.30236  1.0000
  Mo  Mo2       1.0  0.45847  0.37688  0.69764  1.0000
  Mo  Mo3       1.0  0.36966  0.74337  0.38655  1.0000
  Mo  Mo4       1.0  0.63034  0.25663  0.61345  1.0000
  Mo  Mo5       1.0  0.18081  0.80074  0.26008  1.0000
  Mo  Mo6       1.0  0.81919  0.19926  0.73992  1.0000
  Mo  Mo7       1.0  0.20358  0.68071  0.09903  1.0000
  Mo  Mo8       1.0  0.79642  0.31929  0.90097  1.0000
  Mo  Mo9       1.0  0.39230  0.53761  0.12277  1.0000
  Mo  Mo10      1.0  0.60770  0.46239  0.87723  1.0000
  O   O1        1.0  0.49960  0.56050  0.20930  1.0000
  O   O2        1.0  0.50040  0.43950  0.79070  1.0000
  O   O3        1.0  0.52650  0.52400  0.34510  1.0000
  O   O4        1.0  0.47350  0.47600  0.65490  1.0000
  O   O5        1.0  0.68360  0.65190  0.30810  1.0000
  O   O6        1.0  0.31640  0.34810  0.69190  1.0000
  O   O7        1.0  0.51890  0.72130  0.37780  1.0000
  O   O8        1.0  0.48110  0.27870  0.62220  1.0000
  O   O9        1.0  0.54260  0.75540  0.24820  1.0000
  O   O10       1.0  0.45740  0.24460  0.75180  1.0000
  O   O11       1.0  0.35280  0.62480  0.30240  1.0000
  O   O12       1.0  0.64720  0.37520  0.69760  1.0000
  O   O13       1.0  0.33870  0.68040  0.45230  1.0000
  O   O14       1.0  0.66130  0.31960  0.54770  1.0000
  O   O15       1.0  0.41560  0.86020  0.43020  1.0000
  O   O16       1.0  0.58440  0.13980  0.56980  1.0000
  O   O17       1.0  0.22220  0.75360  0.34930  1.0000
  O   O18       1.0  0.77780  0.24640  0.65070  1.0000
  O   O19       1.0  0.36690  0.81030  0.27550  1.0000
  O   O20       1.0  0.63310  0.18970  0.72450  1.0000
  O   O21       1.0  0.19670  0.92190  0.28660  1.0000
  O   O22       1.0  0.80330  0.07810  0.71340  1.0000
  O   O23       1.0  0.03940  0.76310  0.26010  1.0000
  O   O24       1.0  0.96060  0.23690  0.73990  1.0000
  O   O25       1.0  0.19350  0.79690  0.16490  1.0000
  O   O26       1.0  0.80650  0.20310  0.83510  1.0000
  O   O27       1.0  0.18100  0.63800  0.21670  1.0000
  O   O28       1.0  0.81900  0.36200  0.78330  1.0000
  O   O29       1.0  0.06410  0.64020  0.07580  1.0000
  O   O30       1.0  0.93590  0.35980  0.92420  1.0000
  O   O31       1.0  0.24100  0.73800  0.03280  1.0000
  O   O32       1.0  0.75900  0.26200  0.96720  1.0000
  O   O33       1.0  0.25370  0.56050  0.07700  1.0000
  O   O34       1.0  0.74630  0.43950  0.92300  1.0000
  O   O35       1.0  0.28140  0.49840  0.20010  1.0000
  O   O36       1.0  0.71860  0.50160  0.79990  1.0000
  O   O37       1.0  0.36980  0.69940  0.16160  1.0000
  O   O38       1.0  0.63020  0.30060  0.83840  1.0000
  O   O39       1.0  0.38250  0.41770  0.09640  1.0000
  O   O40       1.0  0.61750  0.58230  0.90360  1.0000
  O   O41       1.0  0.48240  0.58630  0.07210  1.0000
  O   O42       1.0  0.51760  0.41370  0.92790  1.0000
  O   O43       1.0  0.46090  0.87230  0.17830  1.0000
  O   O44       1.0  0.53910  0.12770  0.82170  1.0000
  O   O45       1.0  0.17240  0.51730  0.29980  1.0000
  O   O46       1.0  0.82760  0.48270  0.70020  1.0000
  Cu  Cu1       1.0  0.85837  0.70269  0.27638  1.0000
  Cu  Cu2       1.0  0.14163  0.29731  0.72362  1.0000
  Cu  Cu3       1.0  0.50000  0.00000  0.50000  1.0000
  N   N1        1.0  0.80550  0.73460  0.18010  1.0000
  N   N2        1.0  0.19450  0.26540  0.81990  1.0000
  N   N3        1.0  0.70950  0.70160  0.14180  1.0000
  N   N4        1.0  0.29050  0.29840  0.85820  1.0000
  H   H1        1.0  0.65260  0.67470  0.15780  1.0000
  H   H2        1.0  0.34740  0.32530  0.84220  1.0000
  N   N5        1.0  0.86130  0.57040  0.22480  1.0000
  N   N6        1.0  0.13870  0.42960  0.77520  1.0000
  N   N7        1.0  0.93870  0.55550  0.18570  1.0000
  N   N8        1.0  0.06130  0.44450  0.81430  1.0000
  H   H3        1.0  0.00480  0.58870  0.19300  1.0000
  H   H4        1.0  0.99520  0.41130  0.80700  1.0000
  N   N9        1.0  0.92150  0.66780  0.37060  1.0000
  N   N10       1.0  0.07850  0.33220  0.62940  1.0000
  N   N11       1.0  0.02980  0.67390  0.39400  1.0000
  N   N12       1.0  0.97020  0.32610  0.60600  1.0000
  H   H5        1.0  0.08220  0.69570  0.37210  1.0000
  H   H6        1.0  0.91780  0.30430  0.62790  1.0000
  N   N13       1.0  0.84110  0.83610  0.31880  1.0000
  N   N14       1.0  0.15890  0.16390  0.68120  1.0000
  N   N15       1.0  0.74180  0.86700  0.31020  1.0000
  N   N16       1.0  0.25820  0.13300  0.68980  1.0000
  H   H7        1.0  0.67950  0.83200  0.29040  1.0000
  H   H8        1.0  0.32050  0.16800  0.70960  1.0000
  N   N17       1.0  0.34940  0.04550  0.49600  1.0000
  N   N18       1.0  0.65060  0.95450  0.50400  1.0000
  N   N19       1.0  0.33330  0.13110  0.52950  1.0000
  N   N20       1.0  0.66670  0.86890  0.47050  1.0000
  H   H9        1.0  0.38380  0.17190  0.55790  1.0000
  H   H10       1.0  0.61620  0.82810  0.44210  1.0000
  N   N21       1.0  0.51690  0.05320  0.41070  1.0000
  N   N22       1.0  0.48310  0.94680  0.58930  1.0000
  N   N23       1.0  0.46810  0.01340  0.34670  1.0000
  N   N24       1.0  0.53190  0.98660  0.65330  1.0000
  H   H11       1.0  0.43020  0.95600  0.33660  1.0000
  H   H12       1.0  0.56980  0.04400  0.66340  1.0000
  C   C1        1.0  0.70940  0.71400  0.07520  1.0000
  C   C2        1.0  0.29060  0.28600  0.92480  1.0000
  H   H13       1.0  0.65020  0.69370  0.03840  1.0000
  H   H14       1.0  0.34980  0.30630  0.96160  1.0000
  C   C3        1.0  0.80890  0.76070  0.07070  1.0000
  C   C4        1.0  0.19110  0.23930  0.92930  1.0000
  H   H15       1.0  0.83450  0.78150  0.03130  1.0000
  H   H16       1.0  0.16550  0.21850  0.96870  1.0000
  C   C5        1.0  0.86470  0.77090  0.13730  1.0000
  C   C6        1.0  0.13530  0.22910  0.86270  1.0000
  H   H17       1.0  0.93840  0.80120  0.15050  1.0000
  H   H18       1.0  0.06160  0.19880  0.84950  1.0000
  C   C7        1.0  0.90140  0.48330  0.13400  1.0000
  C   C8        1.0  0.09860  0.51670  0.86600  1.0000
  H   H19       1.0  0.94130  0.46080  0.09940  1.0000
  H   H20       1.0  0.05870  0.53920  0.90060  1.0000
  C   C9        1.0  0.79920  0.44830  0.13930  1.0000
  C   C10       1.0  0.20080  0.55170  0.86070  1.0000
  H   H21       1.0  0.75290  0.39650  0.11000  1.0000
  H   H22       1.0  0.24710  0.60350  0.89000  1.0000
  C   C11       1.0  0.77410  0.50320  0.19650  1.0000
  C   C12       1.0  0.22590  0.49680  0.80350  1.0000
  H   H23       1.0  0.70630  0.49480  0.21310  1.0000
  H   H24       1.0  0.29370  0.50520  0.78690  1.0000
  C   C13       1.0  0.04620  0.64220  0.45510  1.0000
  C   C14       1.0  0.95380  0.35780  0.54490  1.0000
  H   H25       1.0  0.11500  0.63990  0.48070  1.0000
  H   H26       1.0  0.88500  0.36010  0.51930  1.0000
  C   C15       1.0  0.94460  0.61350  0.47410  1.0000
  C   C16       1.0  0.05540  0.38650  0.52590  1.0000
  H   H27       1.0  0.92970  0.58780  0.51430  1.0000
  H   H28       1.0  0.07030  0.41220  0.48570  1.0000
  C   C17       1.0  0.86850  0.63160  0.41920  1.0000
  C   C18       1.0  0.13150  0.36840  0.58080  1.0000
  H   H29       1.0  0.79160  0.62000  0.41710  1.0000
  H   H30       1.0  0.20840  0.38000  0.58290  1.0000
  C   C19       1.0  0.75600  0.95990  0.33710  1.0000
  C   C20       1.0  0.24400  0.04010  0.66290  1.0000
  H   H31       1.0  0.70020  0.99740  0.33780  1.0000
  H   H32       1.0  0.29980  0.00260  0.66220  1.0000
  C   C21       1.0  0.86430  0.99100  0.36340  1.0000
  C   C22       1.0  0.13570  0.00900  0.63660  1.0000
  H   H33       1.0  0.89690  0.05270  0.38600  1.0000
  H   H34       1.0  0.10310  0.94730  0.61400  1.0000
  C   C23       1.0  0.91760  0.91150  0.34960  1.0000
  C   C24       1.0  0.08240  0.08850  0.65040  1.0000
  H   H35       1.0  0.99360  0.91150  0.36030  1.0000
  H   H36       1.0  0.00640  0.08850  0.63970  1.0000
  C   C25       1.0  0.22900  0.14340  0.51270  1.0000
  C   C26       1.0  0.77100  0.85660  0.48730  1.0000
  H   H37       1.0  0.19800  0.19610  0.52970  1.0000
  H   H38       1.0  0.80200  0.80390  0.47030  1.0000
  C   C27       1.0  0.25350  0.00790  0.45780  1.0000
  C   C28       1.0  0.74650  0.99210  0.54220  1.0000
  H   H39       1.0  0.24000  0.94870  0.42830  1.0000
  H   H40       1.0  0.76000  0.05130  0.57170  1.0000
  C   C29       1.0  0.48400  0.07220  0.29880  1.0000
  C   C30       1.0  0.51600  0.92780  0.70120  1.0000
  H   H41       1.0  0.45720  0.05890  0.25070  1.0000
  H   H42       1.0  0.54280  0.94110  0.74930  1.0000
  C   C31       1.0  0.54660  0.15450  0.33470  1.0000
  C   C32       1.0  0.45340  0.84550  0.66530  1.0000
  H   H43       1.0  0.57190  0.20960  0.31640  1.0000
  H   H44       1.0  0.42810  0.79040  0.68360  1.0000
  C   C33       1.0  0.56540  0.14070  0.40350  1.0000
  C   C34       1.0  0.43460  0.85930  0.59650  1.0000
  H   H45       1.0  0.60660  0.18640  0.44020  1.0000
  H   H46       1.0  0.39340  0.81360  0.55980  1.0000
  C   C35       1.0  0.17570  0.06510  0.46610  1.0000
  C   C36       1.0  0.82430  0.93490  0.53390  1.0000
  H   H47       1.0  0.10180  0.05320  0.44450  1.0000
  H   H48       1.0  0.89820  0.94680  0.55550  1.0000
