data_image0
_chemical_formula_structural       P8Mo20O68Ni10N8H4N8H4C4H4C4H4C4H4O24N8H4N8H4N8H4N8H4N8H4N8H4N8H4N8H4C4H4C4H4C4H4C4H4C4H4C4H4C4H4C4H4C4H4C4H4C4H4C4H4C4H4C4H4C4H4C4H4C4H4C4H4C4H4C4H4C4H4C4H4C4H4C4H4C4H4C4H4C4H4
_chemical_formula_sum              "P8 Mo20 O92 Ni10 N80 H160 C120"
_cell_length_a       24.674
_cell_length_b       18.137
_cell_length_c       16.223
_cell_angle_alpha    90
_cell_angle_beta     95.495
_cell_angle_gamma    90

_space_group_name_H-M_alt    "P 1"
_space_group_IT_number       1

loop_
  _space_group_symop_operation_xyz
  'x, y, z'

loop_
  _atom_site_type_symbol
  _atom_site_label
  _atom_site_symmetry_multiplicity
  _atom_site_fract_x
  _atom_site_fract_y
  _atom_site_fract_z
  _atom_site_occupancy
  P   P1        1.0  0.20766  0.48678  0.99113  1.0000
  P   P2        1.0  0.79234  0.98678  0.50887  1.0000
  P   P3        1.0  0.79234  0.51322  0.00887  1.0000
  P   P4        1.0  0.20766  0.01322  0.49113  1.0000
  P   P5        1.0  0.32527  0.48939  0.15901  1.0000
  P   P6        1.0  0.67473  0.98939  0.34099  1.0000
  P   P7        1.0  0.67473  0.51061  0.84099  1.0000
  P   P8        1.0  0.32527  0.01061  0.65901  1.0000
  Mo  Mo1       1.0  0.21473  0.58987  0.17980  1.0000
  Mo  Mo2       1.0  0.78527  0.08987  0.32020  1.0000
  Mo  Mo3       1.0  0.78527  0.41013  0.82020  1.0000
  Mo  Mo4       1.0  0.21473  0.91013  0.67980  1.0000
  Mo  Mo5       1.0  0.19726  0.40784  0.18064  1.0000
  Mo  Mo6       1.0  0.80274  0.90784  0.31936  1.0000
  Mo  Mo7       1.0  0.80274  0.59216  0.81936  1.0000
  Mo  Mo8       1.0  0.19726  0.09216  0.68064  1.0000
  Mo  Mo9       1.0  0.28262  0.33355  0.05503  1.0000
  Mo  Mo10      1.0  0.71738  0.83355  0.44497  1.0000
  Mo  Mo11      1.0  0.71738  0.66645  0.94497  1.0000
  Mo  Mo12      1.0  0.28262  0.16645  0.55503  1.0000
  Mo  Mo13      1.0  0.34815  0.46672  0.95922  1.0000
  Mo  Mo14      1.0  0.65185  0.96672  0.54078  1.0000
  Mo  Mo15      1.0  0.65185  0.53328  0.04078  1.0000
  Mo  Mo16      1.0  0.34815  0.03328  0.45922  1.0000
  Mo  Mo17      1.0  0.29488  0.62606  0.00810  1.0000
  Mo  Mo18      1.0  0.70512  0.12606  0.49190  1.0000
  Mo  Mo19      1.0  0.70512  0.37394  0.99190  1.0000
  Mo  Mo20      1.0  0.29488  0.87394  0.50810  1.0000
  O   O1        1.0  0.22940  0.64850  0.26250  1.0000
  O   O2        1.0  0.77060  0.14850  0.23750  1.0000
  O   O3        1.0  0.77060  0.35150  0.73750  1.0000
  O   O4        1.0  0.22940  0.85150  0.76250  1.0000
  O   O5        1.0  0.20170  0.50010  0.23770  1.0000
  O   O6        1.0  0.79830  0.00010  0.26230  1.0000
  O   O7        1.0  0.79830  0.49990  0.76230  1.0000
  O   O8        1.0  0.20170  0.99990  0.73770  1.0000
  O   O9        1.0  0.20370  0.49340  0.08670  1.0000
  O   O10       1.0  0.79630  0.99340  0.41330  1.0000
  O   O11       1.0  0.79630  0.50660  0.91330  1.0000
  O   O12       1.0  0.20370  0.00660  0.58670  1.0000
  O   O13       1.0  0.29770  0.54630  0.20910  1.0000
  O   O14       1.0  0.70230  0.04630  0.29090  1.0000
  O   O15       1.0  0.70230  0.45370  0.79090  1.0000
  O   O16       1.0  0.29770  0.95370  0.70910  1.0000
  O   O17       1.0  0.25070  0.63860  0.09690  1.0000
  O   O18       1.0  0.74930  0.13860  0.40310  1.0000
  O   O19       1.0  0.74930  0.36140  0.90310  1.0000
  O   O20       1.0  0.25070  0.86140  0.59690  1.0000
  O   O21       1.0  0.12840  0.39660  0.17210  1.0000
  O   O22       1.0  0.87160  0.89660  0.32790  1.0000
  O   O23       1.0  0.87160  0.60340  0.82790  1.0000
  O   O24       1.0  0.12840  0.10340  0.67210  1.0000
  O   O25       1.0  0.21970  0.35350  0.26410  1.0000
  O   O26       1.0  0.78030  0.85350  0.23590  1.0000
  O   O27       1.0  0.78030  0.64650  0.73590  1.0000
  O   O28       1.0  0.21970  0.14650  0.76410  1.0000
  O   O29       1.0  0.21090  0.34440  0.09040  1.0000
  O   O30       1.0  0.78910  0.84440  0.40960  1.0000
  O   O31       1.0  0.78910  0.65560  0.90960  1.0000
  O   O32       1.0  0.21090  0.15560  0.59040  1.0000
  O   O33       1.0  0.29020  0.41800  0.15770  1.0000
  O   O34       1.0  0.70980  0.91800  0.34230  1.0000
  O   O35       1.0  0.70980  0.58200  0.84230  1.0000
  O   O36       1.0  0.29020  0.08200  0.65770  1.0000
  O   O37       1.0  0.26310  0.28260  0.96670  1.0000
  O   O38       1.0  0.73690  0.78260  0.53330  1.0000
  O   O39       1.0  0.73690  0.71740  0.03330  1.0000
  O   O40       1.0  0.26310  0.21740  0.46670  1.0000
  O   O41       1.0  0.34750  0.37940  0.02750  1.0000
  O   O42       1.0  0.65250  0.87940  0.47250  1.0000
  O   O43       1.0  0.65250  0.62060  0.97250  1.0000
  O   O44       1.0  0.34750  0.12060  0.52750  1.0000
  O   O45       1.0  0.25560  0.43510  0.97530  1.0000
  O   O46       1.0  0.74440  0.93510  0.52470  1.0000
  O   O47       1.0  0.74440  0.56490  0.02470  1.0000
  O   O48       1.0  0.25560  0.06490  0.47530  1.0000
  O   O49       1.0  0.41610  0.48460  0.98180  1.0000
  O   O50       1.0  0.58390  0.98460  0.51820  1.0000
  O   O51       1.0  0.58390  0.51540  0.01820  1.0000
  O   O52       1.0  0.41610  0.01540  0.48180  1.0000
  O   O53       1.0  0.32280  0.56240  0.92550  1.0000
  O   O54       1.0  0.67720  0.06240  0.57450  1.0000
  O   O55       1.0  0.67720  0.43760  0.07450  1.0000
  O   O56       1.0  0.32280  0.93760  0.42550  1.0000
  O   O57       1.0  0.32200  0.52080  0.06910  1.0000
  O   O58       1.0  0.67800  0.02080  0.43090  1.0000
  O   O59       1.0  0.67800  0.47920  0.93090  1.0000
  O   O60       1.0  0.32200  0.97920  0.56910  1.0000
  O   O61       1.0  0.35320  0.66530  0.05270  1.0000
  O   O62       1.0  0.64680  0.16530  0.44730  1.0000
  O   O63       1.0  0.64680  0.33470  0.94730  1.0000
  O   O64       1.0  0.35320  0.83470  0.55270  1.0000
  O   O65       1.0  0.22020  0.56310  0.96110  1.0000
  O   O66       1.0  0.77980  0.06310  0.53890  1.0000
  O   O67       1.0  0.77980  0.43690  0.03890  1.0000
  O   O68       1.0  0.22020  0.93690  0.46110  1.0000
  Ni  Ni1       1.0  0.25109  0.72887  0.34936  1.0000
  Ni  Ni2       1.0  0.74891  0.22887  0.15064  1.0000
  Ni  Ni3       1.0  0.74891  0.27113  0.65064  1.0000
  Ni  Ni4       1.0  0.25109  0.77113  0.84936  1.0000
  Ni  Ni5       1.0  0.24167  0.28429  0.36500  1.0000
  Ni  Ni6       1.0  0.75833  0.78429  0.13500  1.0000
  Ni  Ni7       1.0  0.75833  0.71571  0.63500  1.0000
  Ni  Ni8       1.0  0.24167  0.21571  0.86500  1.0000
  Ni  Ni9       1.0  0.50000  0.50000  0.00000  1.0000
  Ni  Ni10      1.0  0.50000  0.00000  0.50000  1.0000
  N   N1        1.0  0.17970  0.78780  0.30900  1.0000
  N   N2        1.0  0.82030  0.28780  0.19100  1.0000
  N   N3        1.0  0.82030  0.21220  0.69100  1.0000
  N   N4        1.0  0.17970  0.71220  0.80900  1.0000
  N   N5        1.0  0.16770  0.85450  0.33510  1.0000
  N   N6        1.0  0.83230  0.35450  0.16490  1.0000
  N   N7        1.0  0.83230  0.14550  0.66490  1.0000
  N   N8        1.0  0.16770  0.64550  0.83510  1.0000
  H   H1        1.0  0.18700  0.87800  0.37350  1.0000
  H   H2        1.0  0.81300  0.37800  0.12650  1.0000
  H   H3        1.0  0.81300  0.12200  0.62650  1.0000
  H   H4        1.0  0.18700  0.62200  0.87350  1.0000
  N   N9        1.0  0.32310  0.67100  0.38770  1.0000
  N   N10       1.0  0.67690  0.17100  0.11230  1.0000
  N   N11       1.0  0.67690  0.32900  0.61230  1.0000
  N   N12       1.0  0.32310  0.82900  0.88770  1.0000
  N   N13       1.0  0.34130  0.61240  0.35050  1.0000
  N   N14       1.0  0.65870  0.11240  0.14950  1.0000
  N   N15       1.0  0.65870  0.38760  0.64950  1.0000
  N   N16       1.0  0.34130  0.88760  0.85050  1.0000
  H   H5        1.0  0.32410  0.59170  0.30800  1.0000
  H   H6        1.0  0.67590  0.09170  0.19200  1.0000
  H   H7        1.0  0.67590  0.40830  0.69200  1.0000
  H   H8        1.0  0.32410  0.90830  0.80800  1.0000
  C   C1        1.0  0.38900  0.58910  0.38590  1.0000
  C   C2        1.0  0.61100  0.08910  0.11410  1.0000
  C   C3        1.0  0.61100  0.41090  0.61410  1.0000
  C   C4        1.0  0.38900  0.91090  0.88590  1.0000
  H   H9        1.0  0.40930  0.54930  0.36970  1.0000
  H   H10       1.0  0.59070  0.04930  0.13030  1.0000
  H   H11       1.0  0.59070  0.45070  0.63030  1.0000
  H   H12       1.0  0.40930  0.95070  0.86970  1.0000
  C   C5        1.0  0.40210  0.63570  0.45100  1.0000
  C   C6        1.0  0.59790  0.13570  0.04900  1.0000
  C   C7        1.0  0.59790  0.36430  0.54900  1.0000
  C   C8        1.0  0.40210  0.86430  0.95100  1.0000
  H   H13       1.0  0.43320  0.63420  0.48830  1.0000
  H   H14       1.0  0.56680  0.13420  0.01170  1.0000
  H   H15       1.0  0.56680  0.36580  0.51170  1.0000
  H   H16       1.0  0.43320  0.86580  0.98830  1.0000
  C   C9        1.0  0.36040  0.68450  0.44980  1.0000
  C   C10       1.0  0.63960  0.18450  0.05020  1.0000
  C   C11       1.0  0.63960  0.31550  0.55020  1.0000
  C   C12       1.0  0.36040  0.81550  0.94980  1.0000
  H   H17       1.0  0.35830  0.72260  0.48780  1.0000
  H   H18       1.0  0.64170  0.22260  0.01220  1.0000
  H   H19       1.0  0.64170  0.27740  0.51220  1.0000
  H   H20       1.0  0.35830  0.77740  0.98780  1.0000
  O   O69       1.0  0.14940  0.61360  0.14690  1.0000
  O   O70       1.0  0.85060  0.11360  0.35310  1.0000
  O   O71       1.0  0.85060  0.38640  0.85310  1.0000
  O   O72       1.0  0.14940  0.88640  0.64690  1.0000
  O   O73       1.0  0.30950  0.26840  0.12100  1.0000
  O   O74       1.0  0.69050  0.76840  0.37900  1.0000
  O   O75       1.0  0.69050  0.73160  0.87900  1.0000
  O   O76       1.0  0.30950  0.23160  0.62100  1.0000
  O   O77       1.0  0.34270  0.42680  0.86460  1.0000
  O   O78       1.0  0.65730  0.92680  0.63540  1.0000
  O   O79       1.0  0.65730  0.57320  0.13540  1.0000
  O   O80       1.0  0.34270  0.07320  0.36460  1.0000
  O   O81       1.0  0.27000  0.69460  0.94020  1.0000
  O   O82       1.0  0.73000  0.19460  0.55980  1.0000
  O   O83       1.0  0.73000  0.30540  0.05980  1.0000
  O   O84       1.0  0.27000  0.80540  0.44020  1.0000
  O   O85       1.0  0.15500  0.45670  0.95060  1.0000
  O   O86       1.0  0.84500  0.95670  0.54940  1.0000
  O   O87       1.0  0.84500  0.54330  0.04940  1.0000
  O   O88       1.0  0.15500  0.04330  0.45060  1.0000
  O   O89       1.0  0.38280  0.47250  0.19040  1.0000
  O   O90       1.0  0.61720  0.97250  0.30960  1.0000
  O   O91       1.0  0.61720  0.52750  0.80960  1.0000
  O   O92       1.0  0.38280  0.02750  0.69040  1.0000
  N   N17       1.0  0.29500  0.78830  0.26880  1.0000
  N   N18       1.0  0.70500  0.28830  0.23120  1.0000
  N   N19       1.0  0.70500  0.21170  0.73120  1.0000
  N   N20       1.0  0.29500  0.71170  0.76880  1.0000
  N   N21       1.0  0.30800  0.85960  0.27630  1.0000
  N   N22       1.0  0.69200  0.35960  0.22370  1.0000
  N   N23       1.0  0.69200  0.14040  0.72370  1.0000
  N   N24       1.0  0.30800  0.64040  0.77630  1.0000
  H   H21       1.0  0.29680  0.88840  0.31330  1.0000
  H   H22       1.0  0.70320  0.38840  0.18670  1.0000
  H   H23       1.0  0.70320  0.11160  0.68670  1.0000
  H   H24       1.0  0.29680  0.61160  0.81330  1.0000
  N   N25       1.0  0.20810  0.67190  0.43510  1.0000
  N   N26       1.0  0.79190  0.17190  0.06490  1.0000
  N   N27       1.0  0.79190  0.32810  0.56490  1.0000
  N   N28       1.0  0.20810  0.82810  0.93510  1.0000
  N   N29       1.0  0.17330  0.61700  0.42400  1.0000
  N   N30       1.0  0.82670  0.11700  0.07600  1.0000
  N   N31       1.0  0.82670  0.38300  0.57600  1.0000
  N   N32       1.0  0.17330  0.88300  0.92400  1.0000
  H   H25       1.0  0.16220  0.59660  0.37750  1.0000
  H   H26       1.0  0.83780  0.09660  0.12250  1.0000
  H   H27       1.0  0.83780  0.40340  0.62250  1.0000
  H   H28       1.0  0.16220  0.90340  0.87750  1.0000
  N   N33       1.0  0.25860  0.37790  0.43810  1.0000
  N   N34       1.0  0.74140  0.87790  0.06190  1.0000
  N   N35       1.0  0.74140  0.62210  0.56190  1.0000
  N   N36       1.0  0.25860  0.12210  0.93810  1.0000
  N   N37       1.0  0.25700  0.44790  0.41460  1.0000
  N   N38       1.0  0.74300  0.94790  0.08540  1.0000
  N   N39       1.0  0.74300  0.55210  0.58540  1.0000
  N   N40       1.0  0.25700  0.05210  0.91460  1.0000
  H   H29       1.0  0.24420  0.46390  0.36680  1.0000
  H   H30       1.0  0.75580  0.96390  0.13320  1.0000
  H   H31       1.0  0.75580  0.53610  0.63320  1.0000
  H   H32       1.0  0.24420  0.03610  0.86680  1.0000
  N   N41       1.0  0.16140  0.27940  0.39580  1.0000
  N   N42       1.0  0.83860  0.77940  0.10420  1.0000
  N   N43       1.0  0.83860  0.72060  0.60420  1.0000
  N   N44       1.0  0.16140  0.22060  0.89580  1.0000
  N   N45       1.0  0.14340  0.23470  0.45040  1.0000
  N   N46       1.0  0.85660  0.73470  0.04960  1.0000
  N   N47       1.0  0.85660  0.76530  0.54960  1.0000
  N   N48       1.0  0.14340  0.26530  0.95040  1.0000
  H   H33       1.0  0.16410  0.20520  0.48070  1.0000
  H   H34       1.0  0.83590  0.70520  0.01930  1.0000
  H   H35       1.0  0.83590  0.79480  0.51930  1.0000
  H   H36       1.0  0.16410  0.29480  0.98070  1.0000
  N   N49       1.0  0.22380  0.19420  0.28640  1.0000
  N   N50       1.0  0.77620  0.69420  0.21360  1.0000
  N   N51       1.0  0.77620  0.80580  0.71360  1.0000
  N   N52       1.0  0.22380  0.30580  0.78640  1.0000
  N   N53       1.0  0.22480  0.12520  0.31350  1.0000
  N   N54       1.0  0.77520  0.62520  0.18650  1.0000
  N   N55       1.0  0.77520  0.87480  0.68650  1.0000
  N   N56       1.0  0.22480  0.37480  0.81350  1.0000
  H   H37       1.0  0.23390  0.11280  0.36410  1.0000
  H   H38       1.0  0.76610  0.61280  0.13590  1.0000
  H   H39       1.0  0.76610  0.88720  0.63590  1.0000
  H   H40       1.0  0.23390  0.38720  0.86410  1.0000
  N   N57       1.0  0.32430  0.28780  0.34660  1.0000
  N   N58       1.0  0.67570  0.78780  0.15340  1.0000
  N   N59       1.0  0.67570  0.71220  0.65340  1.0000
  N   N60       1.0  0.32430  0.21220  0.84660  1.0000
  N   N61       1.0  0.34520  0.34280  0.30430  1.0000
  N   N62       1.0  0.65480  0.84280  0.19570  1.0000
  N   N63       1.0  0.65480  0.65720  0.69570  1.0000
  N   N64       1.0  0.34520  0.15720  0.80430  1.0000
  H   H41       1.0  0.32660  0.36570  0.26460  1.0000
  H   H42       1.0  0.67340  0.86570  0.23540  1.0000
  H   H43       1.0  0.67340  0.63430  0.73540  1.0000
  H   H44       1.0  0.32660  0.13430  0.76460  1.0000
  N   N65       1.0  0.49160  0.57720  0.09250  1.0000
  N   N66       1.0  0.50840  0.07720  0.40750  1.0000
  N   N67       1.0  0.50840  0.42280  0.90750  1.0000
  N   N68       1.0  0.49160  0.92280  0.59250  1.0000
  N   N69       1.0  0.45580  0.57860  0.14750  1.0000
  N   N70       1.0  0.54420  0.07860  0.35250  1.0000
  N   N71       1.0  0.54420  0.42140  0.85250  1.0000
  N   N72       1.0  0.45580  0.92140  0.64750  1.0000
  H   H45       1.0  0.43360  0.54310  0.15430  1.0000
  H   H46       1.0  0.56640  0.04310  0.34570  1.0000
  H   H47       1.0  0.56640  0.45690  0.84570  1.0000
  H   H48       1.0  0.43360  0.95690  0.65430  1.0000
  N   N73       1.0  0.50460  0.41210  0.08430  1.0000
  N   N74       1.0  0.49540  0.91210  0.41570  1.0000
  N   N75       1.0  0.49540  0.58790  0.91570  1.0000
  N   N76       1.0  0.50460  0.08790  0.58430  1.0000
  N   N77       1.0  0.46270  0.37990  0.11690  1.0000
  N   N78       1.0  0.53730  0.87990  0.38310  1.0000
  N   N79       1.0  0.53730  0.62010  0.88310  1.0000
  N   N80       1.0  0.46270  0.12010  0.61690  1.0000
  H   H49       1.0  0.43070  0.39880  0.11620  1.0000
  H   H50       1.0  0.56930  0.89880  0.38380  1.0000
  H   H51       1.0  0.56930  0.60120  0.88380  1.0000
  H   H52       1.0  0.43070  0.10120  0.61620  1.0000
  C   C13       1.0  0.34000  0.88050  0.22020  1.0000
  C   C14       1.0  0.66000  0.38050  0.27980  1.0000
  C   C15       1.0  0.66000  0.11950  0.77980  1.0000
  C   C16       1.0  0.34000  0.61950  0.72020  1.0000
  H   H53       1.0  0.35450  0.92730  0.21490  1.0000
  H   H54       1.0  0.64550  0.42730  0.28510  1.0000
  H   H55       1.0  0.64550  0.07270  0.78510  1.0000
  H   H56       1.0  0.35450  0.57270  0.71490  1.0000
  C   C17       1.0  0.34780  0.82150  0.17150  1.0000
  C   C18       1.0  0.65220  0.32150  0.32850  1.0000
  C   C19       1.0  0.65220  0.17850  0.82850  1.0000
  C   C20       1.0  0.34780  0.67850  0.67150  1.0000
  H   H57       1.0  0.36810  0.81960  0.12610  1.0000
  H   H58       1.0  0.63190  0.31960  0.37390  1.0000
  H   H59       1.0  0.63190  0.18040  0.87390  1.0000
  H   H60       1.0  0.36810  0.68040  0.62610  1.0000
  C   C21       1.0  0.31860  0.76370  0.20460  1.0000
  C   C22       1.0  0.68140  0.26370  0.29540  1.0000
  C   C23       1.0  0.68140  0.23630  0.79540  1.0000
  C   C24       1.0  0.31860  0.73630  0.70460  1.0000
  H   H61       1.0  0.31640  0.71570  0.18430  1.0000
  H   H62       1.0  0.68360  0.21570  0.31570  1.0000
  H   H63       1.0  0.68360  0.28430  0.81570  1.0000
  H   H64       1.0  0.31640  0.78430  0.68430  1.0000
  C   C25       1.0  0.12260  0.88080  0.29510  1.0000
  C   C26       1.0  0.87740  0.38080  0.20490  1.0000
  C   C27       1.0  0.87740  0.11920  0.70490  1.0000
  C   C28       1.0  0.12260  0.61920  0.79510  1.0000
  H   H65       1.0  0.10660  0.92610  0.30410  1.0000
  H   H66       1.0  0.89340  0.42610  0.19590  1.0000
  H   H67       1.0  0.89340  0.07390  0.69590  1.0000
  H   H68       1.0  0.10660  0.57390  0.80410  1.0000
  C   C29       1.0  0.10390  0.82900  0.23840  1.0000
  C   C30       1.0  0.89610  0.32900  0.26160  1.0000
  C   C31       1.0  0.89610  0.17100  0.76160  1.0000
  C   C32       1.0  0.10390  0.67100  0.73840  1.0000
  H   H69       1.0  0.07320  0.83140  0.20050  1.0000
  H   H70       1.0  0.92680  0.33140  0.29950  1.0000
  H   H71       1.0  0.92680  0.16860  0.79950  1.0000
  H   H72       1.0  0.07320  0.66860  0.70050  1.0000
  C   C33       1.0  0.14150  0.77180  0.25030  1.0000
  C   C34       1.0  0.85850  0.27180  0.24970  1.0000
  C   C35       1.0  0.85850  0.22820  0.74970  1.0000
  C   C36       1.0  0.14150  0.72820  0.75030  1.0000
  H   H73       1.0  0.13960  0.72800  0.22040  1.0000
  H   H74       1.0  0.86040  0.22800  0.27960  1.0000
  H   H75       1.0  0.86040  0.27200  0.77960  1.0000
  H   H76       1.0  0.13960  0.77200  0.72040  1.0000
  C   C37       1.0  0.15720  0.59740  0.50340  1.0000
  C   C38       1.0  0.84280  0.09740  0.99660  1.0000
  C   C39       1.0  0.84280  0.40260  0.49660  1.0000
  C   C40       1.0  0.15720  0.90260  0.00340  1.0000
  H   H77       1.0  0.13220  0.56130  0.51460  1.0000
  H   H78       1.0  0.86780  0.06130  0.98540  1.0000
  H   H79       1.0  0.86780  0.43870  0.48540  1.0000
  H   H80       1.0  0.13220  0.93870  0.01460  1.0000
  C   C41       1.0  0.18410  0.63980  0.55640  1.0000
  C   C42       1.0  0.81590  0.13980  0.94360  1.0000
  C   C43       1.0  0.81590  0.36020  0.44360  1.0000
  C   C44       1.0  0.18410  0.86020  0.05640  1.0000
  H   H81       1.0  0.18280  0.63840  0.61350  1.0000
  H   H82       1.0  0.81720  0.13840  0.88650  1.0000
  H   H83       1.0  0.81720  0.36160  0.38650  1.0000
  H   H84       1.0  0.18280  0.86160  0.11350  1.0000
  C   C45       1.0  0.21410  0.68590  0.51590  1.0000
  C   C46       1.0  0.78590  0.18590  0.98410  1.0000
  C   C47       1.0  0.78590  0.31410  0.48410  1.0000
  C   C48       1.0  0.21410  0.81410  0.01590  1.0000
  H   H85       1.0  0.23630  0.72270  0.54070  1.0000
  H   H86       1.0  0.76370  0.22270  0.95930  1.0000
  H   H87       1.0  0.76370  0.27730  0.45930  1.0000
  H   H88       1.0  0.23630  0.77730  0.04070  1.0000
  C   C49       1.0  0.27940  0.49130  0.47940  1.0000
  C   C50       1.0  0.72060  0.99130  0.02060  1.0000
  C   C51       1.0  0.72060  0.50870  0.52060  1.0000
  C   C52       1.0  0.27940  0.00870  0.97940  1.0000
  H   H89       1.0  0.28290  0.54230  0.47900  1.0000
  H   H90       1.0  0.71710  0.04230  0.02100  1.0000
  H   H91       1.0  0.71710  0.45770  0.52100  1.0000
  H   H92       1.0  0.28290  0.95770  0.97900  1.0000
  C   C53       1.0  0.29480  0.44650  0.54250  1.0000
  C   C54       1.0  0.70520  0.94650  0.95750  1.0000
  C   C55       1.0  0.70520  0.55350  0.45750  1.0000
  C   C56       1.0  0.29480  0.05350  0.04250  1.0000
  H   H93       1.0  0.31160  0.45990  0.59420  1.0000
  H   H94       1.0  0.68840  0.95990  0.90580  1.0000
  H   H95       1.0  0.68840  0.54010  0.40580  1.0000
  H   H96       1.0  0.31160  0.04010  0.09420  1.0000
  C   C57       1.0  0.28110  0.37690  0.51580  1.0000
  C   C58       1.0  0.71890  0.87690  0.98420  1.0000
  C   C59       1.0  0.71890  0.62310  0.48420  1.0000
  C   C60       1.0  0.28110  0.12310  0.01580  1.0000
  H   H97       1.0  0.28680  0.33450  0.54770  1.0000
  H   H98       1.0  0.71320  0.83450  0.95230  1.0000
  H   H99       1.0  0.71320  0.66550  0.45230  1.0000
  H   H100      1.0  0.28680  0.16550  0.04770  1.0000
  C   C61       1.0  0.09040  0.23940  0.45430  1.0000
  C   C62       1.0  0.90960  0.73940  0.04570  1.0000
  C   C63       1.0  0.90960  0.76060  0.54570  1.0000
  C   C64       1.0  0.09040  0.26060  0.95430  1.0000
  H   H101      1.0  0.06960  0.21220  0.48840  1.0000
  H   H102      1.0  0.93040  0.71220  0.01160  1.0000
  H   H103      1.0  0.93040  0.78780  0.51160  1.0000
  H   H104      1.0  0.06960  0.28780  0.98840  1.0000
  C   C65       1.0  0.07260  0.29040  0.40020  1.0000
  C   C66       1.0  0.92740  0.79040  0.09980  1.0000
  C   C67       1.0  0.92740  0.70960  0.59980  1.0000
  C   C68       1.0  0.07260  0.20960  0.90020  1.0000
  H   H105      1.0  0.03700  0.30690  0.38860  1.0000
  H   H106      1.0  0.96300  0.80690  0.11140  1.0000
  H   H107      1.0  0.96300  0.69310  0.61140  1.0000
  H   H108      1.0  0.03700  0.19310  0.88860  1.0000
  C   C69       1.0  0.11780  0.31380  0.36500  1.0000
  C   C70       1.0  0.88220  0.81380  0.13500  1.0000
  C   C71       1.0  0.88220  0.68620  0.63500  1.0000
  C   C72       1.0  0.11780  0.18620  0.86500  1.0000
  H   H109      1.0  0.11740  0.34980  0.32410  1.0000
  H   H110      1.0  0.88260  0.84980  0.17590  1.0000
  H   H111      1.0  0.88260  0.65020  0.67590  1.0000
  H   H112      1.0  0.11740  0.15020  0.82410  1.0000
  C   C73       1.0  0.21010  0.07800  0.25380  1.0000
  C   C74       1.0  0.78990  0.57800  0.24620  1.0000
  C   C75       1.0  0.78990  0.92200  0.74620  1.0000
  C   C76       1.0  0.21010  0.42200  0.75380  1.0000
  H   H113      1.0  0.20940  0.02690  0.25830  1.0000
  H   H114      1.0  0.79060  0.52690  0.24170  1.0000
  H   H115      1.0  0.79060  0.97310  0.74170  1.0000
  H   H116      1.0  0.20940  0.47310  0.75830  1.0000
  C   C77       1.0  0.19610  0.11830  0.18440  1.0000
  C   C78       1.0  0.80390  0.61830  0.31560  1.0000
  C   C79       1.0  0.80390  0.88170  0.81560  1.0000
  C   C80       1.0  0.19610  0.38170  0.68440  1.0000
  H   H117      1.0  0.18280  0.10120  0.13230  1.0000
  H   H118      1.0  0.81720  0.60120  0.36770  1.0000
  H   H119      1.0  0.81720  0.89880  0.86770  1.0000
  H   H120      1.0  0.18280  0.39880  0.63230  1.0000
  C   C81       1.0  0.20590  0.18970  0.20870  1.0000
  C   C82       1.0  0.79410  0.68970  0.29130  1.0000
  C   C83       1.0  0.79410  0.81030  0.79130  1.0000
  C   C84       1.0  0.20590  0.31030  0.70870  1.0000
  H   H121      1.0  0.20040  0.23020  0.17370  1.0000
  H   H122      1.0  0.79960  0.73020  0.32630  1.0000
  H   H123      1.0  0.79960  0.76980  0.82630  1.0000
  H   H124      1.0  0.20040  0.26980  0.67370  1.0000
  C   C85       1.0  0.39630  0.35900  0.32800  1.0000
  C   C86       1.0  0.60370  0.85900  0.17200  1.0000
  C   C87       1.0  0.60370  0.64100  0.67200  1.0000
  C   C88       1.0  0.39630  0.14100  0.82800  1.0000
  H   H125      1.0  0.41760  0.39490  0.30590  1.0000
  H   H126      1.0  0.58240  0.89490  0.19410  1.0000
  H   H127      1.0  0.58240  0.60510  0.69410  1.0000
  H   H128      1.0  0.41760  0.10510  0.80590  1.0000
  C   C89       1.0  0.41160  0.31230  0.39180  1.0000
  C   C90       1.0  0.58840  0.81230  0.10820  1.0000
  C   C91       1.0  0.58840  0.68770  0.60820  1.0000
  C   C92       1.0  0.41160  0.18770  0.89180  1.0000
  H   H129      1.0  0.44540  0.31010  0.42250  1.0000
  H   H130      1.0  0.55460  0.81010  0.07750  1.0000
  H   H131      1.0  0.55460  0.68990  0.57750  1.0000
  H   H132      1.0  0.44540  0.18990  0.92250  1.0000
  C   C93       1.0  0.36630  0.26850  0.40160  1.0000
  C   C94       1.0  0.63370  0.76850  0.09840  1.0000
  C   C95       1.0  0.63370  0.73150  0.59840  1.0000
  C   C96       1.0  0.36630  0.23150  0.90160  1.0000
  H   H133      1.0  0.36510  0.23110  0.44070  1.0000
  H   H134      1.0  0.63490  0.73110  0.05930  1.0000
  H   H135      1.0  0.63490  0.76890  0.55930  1.0000
  H   H136      1.0  0.36510  0.26890  0.94070  1.0000
  C   C97       1.0  0.45760  0.63960  0.19090  1.0000
  C   C98       1.0  0.54240  0.13960  0.30910  1.0000
  C   C99       1.0  0.54240  0.36040  0.80910  1.0000
  C   C100      1.0  0.45760  0.86040  0.69090  1.0000
  H   H137      1.0  0.43620  0.65070  0.23340  1.0000
  H   H138      1.0  0.56380  0.15070  0.26660  1.0000
  H   H139      1.0  0.56380  0.34930  0.76660  1.0000
  H   H140      1.0  0.43620  0.84930  0.73340  1.0000
  C   C101      1.0  0.49550  0.68280  0.16310  1.0000
  C   C102      1.0  0.50450  0.18280  0.33690  1.0000
  C   C103      1.0  0.50450  0.31720  0.83690  1.0000
  C   C104      1.0  0.49550  0.81720  0.66310  1.0000
  H   H141      1.0  0.50580  0.72980  0.18150  1.0000
  H   H142      1.0  0.49420  0.22980  0.31850  1.0000
  H   H143      1.0  0.49420  0.27020  0.81850  1.0000
  H   H144      1.0  0.50580  0.77020  0.68150  1.0000
  C   C105      1.0  0.51620  0.64270  0.10130  1.0000
  C   C106      1.0  0.48380  0.14270  0.39870  1.0000
  C   C107      1.0  0.48380  0.35730  0.89870  1.0000
  C   C108      1.0  0.51620  0.85730  0.60130  1.0000
  H   H145      1.0  0.54350  0.65900  0.06990  1.0000
  H   H146      1.0  0.45650  0.15900  0.43010  1.0000
  H   H147      1.0  0.45650  0.34100  0.93010  1.0000
  H   H148      1.0  0.54350  0.84100  0.56990  1.0000
  C   C109      1.0  0.47680  0.31510  0.15050  1.0000
  C   C110      1.0  0.52320  0.81510  0.34950  1.0000
  C   C111      1.0  0.52320  0.68490  0.84950  1.0000
  C   C112      1.0  0.47680  0.18490  0.65050  1.0000
  H   H149      1.0  0.45420  0.28330  0.17630  1.0000
  H   H150      1.0  0.54580  0.78330  0.32370  1.0000
  H   H151      1.0  0.54580  0.71670  0.82370  1.0000
  H   H152      1.0  0.45420  0.21670  0.67630  1.0000
  C   C113      1.0  0.52870  0.30410  0.14090  1.0000
  C   C114      1.0  0.47130  0.80410  0.35910  1.0000
  C   C115      1.0  0.47130  0.69590  0.85910  1.0000
  C   C116      1.0  0.52870  0.19590  0.64090  1.0000
  H   H153      1.0  0.54970  0.26340  0.15830  1.0000
  H   H154      1.0  0.45030  0.76340  0.34170  1.0000
  H   H155      1.0  0.45030  0.73660  0.84170  1.0000
  H   H156      1.0  0.54970  0.23660  0.65830  1.0000
  C   C117      1.0  0.54520  0.36550  0.09950  1.0000
  C   C118      1.0  0.45480  0.86550  0.40050  1.0000
  C   C119      1.0  0.45480  0.63450  0.90050  1.0000
  C   C120      1.0  0.54520  0.13450  0.59950  1.0000
  H   H157      1.0  0.58020  0.37280  0.08440  1.0000
  H   H158      1.0  0.41980  0.87280  0.41560  1.0000
  H   H159      1.0  0.41980  0.62720  0.91560  1.0000
  H   H160      1.0  0.58020  0.12720  0.58440  1.0000
