data_image0
_chemical_formula_structural       Bi4O32C16
_chemical_formula_sum              "Bi4 O32 C16"
_cell_length_a       11.6896
_cell_length_b       11.6896
_cell_length_c       9.2357
_cell_angle_alpha    90
_cell_angle_beta     90
_cell_angle_gamma    90

_space_group_name_H-M_alt    "P 1"
_space_group_IT_number       1

loop_
  _space_group_symop_operation_xyz
  'x, y, z'

loop_
  _atom_site_type_symbol
  _atom_site_label
  _atom_site_symmetry_multiplicity
  _atom_site_fract_x
  _atom_site_fract_y
  _atom_site_fract_z
  _atom_site_occupancy
  Bi  Bi1       1.0  0.00000  0.75000  0.12500  1.0000
  Bi  Bi2       1.0  0.50000  0.75000  0.37500  1.0000
  Bi  Bi3       1.0  0.00000  0.25000  0.87500  1.0000
  Bi  Bi4       1.0  0.50000  0.25000  0.62500  1.0000
  O   O1        1.0  0.00000  0.62620  0.90900  1.0000
  O   O2        1.0  0.62380  0.75000  0.15900  1.0000
  O   O3        1.0  0.00000  0.37380  0.09100  1.0000
  O   O4        1.0  0.50000  0.37380  0.40900  1.0000
  O   O5        1.0  0.87620  0.75000  0.34100  1.0000
  O   O6        1.0  0.87620  0.25000  0.65900  1.0000
  O   O7        1.0  0.50000  0.62620  0.59100  1.0000
  O   O8        1.0  0.62380  0.25000  0.84100  1.0000
  O   O9        1.0  0.50000  0.12620  0.40900  1.0000
  O   O10       1.0  0.12380  0.25000  0.65900  1.0000
  O   O11       1.0  0.50000  0.87380  0.59100  1.0000
  O   O12       1.0  0.00000  0.87380  0.90900  1.0000
  O   O13       1.0  0.37620  0.25000  0.84100  1.0000
  O   O14       1.0  0.37620  0.75000  0.15900  1.0000
  O   O15       1.0  0.00000  0.12620  0.09100  1.0000
  O   O16       1.0  0.12380  0.75000  0.34100  1.0000
  O   O17       1.0  0.00000  0.45360  0.82000  1.0000
  O   O18       1.0  0.79640  0.75000  0.07000  1.0000
  O   O19       1.0  0.00000  0.54640  0.18000  1.0000
  O   O20       1.0  0.50000  0.54640  0.32000  1.0000
  O   O21       1.0  0.70360  0.75000  0.43000  1.0000
  O   O22       1.0  0.70360  0.25000  0.57000  1.0000
  O   O23       1.0  0.50000  0.45360  0.68000  1.0000
  O   O24       1.0  0.79640  0.25000  0.93000  1.0000
  O   O25       1.0  0.50000  0.95360  0.32000  1.0000
  O   O26       1.0  0.29640  0.25000  0.57000  1.0000
  O   O27       1.0  0.50000  0.04640  0.68000  1.0000
  O   O28       1.0  0.00000  0.04640  0.82000  1.0000
  O   O29       1.0  0.20360  0.25000  0.93000  1.0000
  O   O30       1.0  0.20360  0.75000  0.07000  1.0000
  O   O31       1.0  0.00000  0.95360  0.18000  1.0000
  O   O32       1.0  0.29640  0.75000  0.43000  1.0000
  C   C1        1.0  0.00000  0.51900  0.92300  1.0000
  C   C2        1.0  0.73100  0.75000  0.17300  1.0000
  C   C3        1.0  0.00000  0.48100  0.07700  1.0000
  C   C4        1.0  0.50000  0.48100  0.42300  1.0000
  C   C5        1.0  0.76900  0.75000  0.32700  1.0000
  C   C6        1.0  0.76900  0.25000  0.67300  1.0000
  C   C7        1.0  0.50000  0.51900  0.57700  1.0000
  C   C8        1.0  0.73100  0.25000  0.82700  1.0000
  C   C9        1.0  0.50000  0.01900  0.42300  1.0000
  C   C10       1.0  0.23100  0.25000  0.67300  1.0000
  C   C11       1.0  0.50000  0.98100  0.57700  1.0000
  C   C12       1.0  0.00000  0.98100  0.92300  1.0000
  C   C13       1.0  0.26900  0.25000  0.82700  1.0000
  C   C14       1.0  0.26900  0.75000  0.17300  1.0000
  C   C15       1.0  0.00000  0.01900  0.07700  1.0000
  C   C16       1.0  0.23100  0.75000  0.32700  1.0000
