data_image0
_chemical_formula_structural       Bi4O32C16
_chemical_formula_sum              "Bi4 O32 C16"
_cell_length_a       11.674
_cell_length_b       11.674
_cell_length_c       9.2545
_cell_angle_alpha    90
_cell_angle_beta     90
_cell_angle_gamma    90

_space_group_name_H-M_alt    "P 1"
_space_group_IT_number       1

loop_
  _space_group_symop_operation_xyz
  'x, y, z'

loop_
  _atom_site_type_symbol
  _atom_site_label
  _atom_site_symmetry_multiplicity
  _atom_site_fract_x
  _atom_site_fract_y
  _atom_site_fract_z
  _atom_site_occupancy
  Bi  Bi1       1.0  0.50000  0.25000  0.62500  1.0000
  Bi  Bi2       1.0  0.50000  0.75000  0.37500  1.0000
  Bi  Bi3       1.0  0.00000  0.25000  0.87500  1.0000
  Bi  Bi4       1.0  0.00000  0.75000  0.12500  1.0000
  O   O1        1.0  0.29660  0.25000  0.57290  1.0000
  O   O2        1.0  0.50000  0.04660  0.67710  1.0000
  O   O3        1.0  0.50000  0.95340  0.32290  1.0000
  O   O4        1.0  0.00000  0.04660  0.82290  1.0000
  O   O5        1.0  0.79660  0.75000  0.07290  1.0000
  O   O6        1.0  0.00000  0.54660  0.17710  1.0000
  O   O7        1.0  0.00000  0.45340  0.82290  1.0000
  O   O8        1.0  0.50000  0.54660  0.32290  1.0000
  O   O9        1.0  0.29660  0.75000  0.42710  1.0000
  O   O10       1.0  0.20340  0.75000  0.07290  1.0000
  O   O11       1.0  0.20340  0.25000  0.92710  1.0000
  O   O12       1.0  0.00000  0.95340  0.17710  1.0000
  O   O13       1.0  0.79660  0.25000  0.92710  1.0000
  O   O14       1.0  0.70340  0.25000  0.57290  1.0000
  O   O15       1.0  0.70340  0.75000  0.42710  1.0000
  O   O16       1.0  0.50000  0.45340  0.67710  1.0000
  O   O17       1.0  0.12020  0.25000  0.66070  1.0000
  O   O18       1.0  0.50000  0.87020  0.58930  1.0000
  O   O19       1.0  0.50000  0.12980  0.41070  1.0000
  O   O20       1.0  0.00000  0.87020  0.91070  1.0000
  O   O21       1.0  0.62020  0.75000  0.16070  1.0000
  O   O22       1.0  0.00000  0.37020  0.08930  1.0000
  O   O23       1.0  0.00000  0.62980  0.91070  1.0000
  O   O24       1.0  0.50000  0.37020  0.41070  1.0000
  O   O25       1.0  0.12020  0.75000  0.33930  1.0000
  O   O26       1.0  0.37980  0.75000  0.16070  1.0000
  O   O27       1.0  0.37980  0.25000  0.83930  1.0000
  O   O28       1.0  0.00000  0.12980  0.08930  1.0000
  O   O29       1.0  0.62020  0.25000  0.83930  1.0000
  O   O30       1.0  0.87980  0.25000  0.66070  1.0000
  O   O31       1.0  0.87980  0.75000  0.33930  1.0000
  O   O32       1.0  0.50000  0.62980  0.58930  1.0000
  C   C1        1.0  0.22600  0.25000  0.67380  1.0000
  C   C2        1.0  0.50000  0.97600  0.57620  1.0000
  C   C3        1.0  0.50000  0.02400  0.42380  1.0000
  C   C4        1.0  0.00000  0.97600  0.92380  1.0000
  C   C5        1.0  0.72600  0.75000  0.17380  1.0000
  C   C6        1.0  0.00000  0.47600  0.07620  1.0000
  C   C7        1.0  0.00000  0.52400  0.92380  1.0000
  C   C8        1.0  0.50000  0.47600  0.42380  1.0000
  C   C9        1.0  0.22600  0.75000  0.32620  1.0000
  C   C10       1.0  0.27400  0.75000  0.17380  1.0000
  C   C11       1.0  0.27400  0.25000  0.82620  1.0000
  C   C12       1.0  0.00000  0.02400  0.07620  1.0000
  C   C13       1.0  0.72600  0.25000  0.82620  1.0000
  C   C14       1.0  0.77400  0.25000  0.67380  1.0000
  C   C15       1.0  0.77400  0.75000  0.32620  1.0000
  C   C16       1.0  0.50000  0.52400  0.57620  1.0000
