data_image0
_chemical_formula_structural       Mn8O52H8O4H8N4C12H4C8H4C4H4C16H4C12H4C12H4C8H4C4H4C16H4C4H4C8H4C12
_chemical_formula_sum              "Mn8 O56 H60 N4 C116"
_cell_length_a       25.504
_cell_length_b       13.0676
_cell_length_c       17.5615
_cell_angle_alpha    90
_cell_angle_beta     90
_cell_angle_gamma    90

_space_group_name_H-M_alt    "P 1"
_space_group_IT_number       1

loop_
  _space_group_symop_operation_xyz
  'x, y, z'

loop_
  _atom_site_type_symbol
  _atom_site_label
  _atom_site_symmetry_multiplicity
  _atom_site_fract_x
  _atom_site_fract_y
  _atom_site_fract_z
  _atom_site_occupancy
  Mn  Mn1       1.0  0.27617  0.28218  0.25160  1.0000
  Mn  Mn2       1.0  0.72383  0.71782  0.25160  1.0000
  Mn  Mn3       1.0  0.22383  0.78218  0.74840  1.0000
  Mn  Mn4       1.0  0.77617  0.21782  0.74840  1.0000
  Mn  Mn5       1.0  0.67362  0.98907  0.23723  1.0000
  Mn  Mn6       1.0  0.32638  0.01093  0.23723  1.0000
  Mn  Mn7       1.0  0.82638  0.48907  0.76277  1.0000
  Mn  Mn8       1.0  0.17362  0.51093  0.76277  1.0000
  O   O1        1.0  0.27823  0.41070  0.17650  1.0000
  O   O2        1.0  0.72177  0.58930  0.17650  1.0000
  O   O3        1.0  0.22177  0.91070  0.82350  1.0000
  O   O4        1.0  0.77823  0.08930  0.82350  1.0000
  O   O5        1.0  0.19374  0.41710  0.14470  1.0000
  O   O6        1.0  0.80626  0.58290  0.14470  1.0000
  O   O7        1.0  0.30626  0.91710  0.85530  1.0000
  O   O8        1.0  0.69374  0.08290  0.85530  1.0000
  O   O9        1.0  0.19340  0.54520  0.87720  1.0000
  O   O10       1.0  0.80660  0.45480  0.87720  1.0000
  O   O11       1.0  0.30660  0.04520  0.12280  1.0000
  O   O12       1.0  0.69340  0.95480  0.12280  1.0000
  O   O13       1.0  0.23120  0.69020  0.85030  1.0000
  O   O14       1.0  0.76880  0.30980  0.85030  1.0000
  O   O15       1.0  0.26880  0.19020  0.14970  1.0000
  O   O16       1.0  0.73120  0.80980  0.14970  1.0000
  O   O17       1.0  0.37952  0.88820  0.24400  1.0000
  O   O18       1.0  0.62048  0.11180  0.24400  1.0000
  O   O19       1.0  0.12048  0.38820  0.75600  1.0000
  O   O20       1.0  0.87952  0.61180  0.75600  1.0000
  O   O21       1.0  0.42277  0.90950  0.13830  1.0000
  O   O22       1.0  0.57723  0.09050  0.13830  1.0000
  O   O23       1.0  0.07723  0.40950  0.86170  1.0000
  O   O24       1.0  0.92277  0.59050  0.86170  1.0000
  O   O25       1.0  0.61412  0.87950  0.23460  1.0000
  O   O26       1.0  0.38588  0.12050  0.23460  1.0000
  O   O27       1.0  0.88588  0.37950  0.76540  1.0000
  O   O28       1.0  0.11412  0.62050  0.76540  1.0000
  O   O29       1.0  0.63825  0.71920  0.25950  1.0000
  O   O30       1.0  0.36175  0.28080  0.25950  1.0000
  O   O31       1.0  0.86175  0.21920  0.74050  1.0000
  O   O32       1.0  0.13825  0.78080  0.74050  1.0000
  O   O33       1.0  0.22853  0.64030  0.67983  1.0000
  O   O34       1.0  0.77147  0.35970  0.67983  1.0000
  O   O35       1.0  0.27147  0.14030  0.32017  1.0000
  O   O36       1.0  0.72853  0.85970  0.32017  1.0000
  O   O37       1.0  0.18106  0.51420  0.63880  1.0000
  O   O38       1.0  0.81894  0.48580  0.63880  1.0000
  O   O39       1.0  0.31894  0.01420  0.36120  1.0000
  O   O40       1.0  0.68106  0.98580  0.36120  1.0000
  O   O41       1.0  0.27383  0.38890  0.34508  1.0000
  O   O42       1.0  0.72617  0.61110  0.34508  1.0000
  O   O43       1.0  0.22617  0.88890  0.65492  1.0000
  O   O44       1.0  0.77383  0.11110  0.65492  1.0000
  O   O45       1.0  0.18987  0.41160  0.36420  1.0000
  O   O46       1.0  0.81013  0.58840  0.36420  1.0000
  O   O47       1.0  0.31013  0.91160  0.63580  1.0000
  O   O48       1.0  0.68987  0.08840  0.63580  1.0000
  O   O49       1.0  0.18790  0.27720  0.25170  1.0000
  O   O50       1.0  0.81210  0.72280  0.25170  1.0000
  O   O51       1.0  0.31210  0.77720  0.74830  1.0000
  O   O52       1.0  0.68790  0.22280  0.74830  1.0000
  H   H1        1.0  0.17574  0.21311  0.25200  1.0000
  H   H2        1.0  0.82426  0.78689  0.25200  1.0000
  H   H3        1.0  0.32426  0.71311  0.74800  1.0000
  H   H4        1.0  0.67574  0.28689  0.74800  1.0000
  H   H5        1.0  0.17472  0.30188  0.20842  1.0000
  H   H6        1.0  0.82528  0.69812  0.20842  1.0000
  H   H7        1.0  0.32528  0.80188  0.79158  1.0000
  H   H8        1.0  0.67472  0.19812  0.79158  1.0000
  O   O53       1.0  0.74453  0.07700  0.23850  1.0000
  O   O54       1.0  0.25547  0.92300  0.23850  1.0000
  O   O55       1.0  0.75547  0.57700  0.76150  1.0000
  O   O56       1.0  0.24453  0.42300  0.76150  1.0000
  H   H9        1.0  0.75447  0.14035  0.27229  1.0000
  H   H10       1.0  0.24553  0.85965  0.27229  1.0000
  H   H11       1.0  0.74553  0.64035  0.72771  1.0000
  H   H12       1.0  0.25447  0.35965  0.72771  1.0000
  H   H13       1.0  0.77863  0.06814  0.20569  1.0000
  H   H14       1.0  0.22137  0.93186  0.20569  1.0000
  H   H15       1.0  0.72137  0.56814  0.79431  1.0000
  H   H16       1.0  0.27863  0.43186  0.79431  1.0000
  N   N1        1.0  0.28239  0.60990  0.26310  1.0000
  N   N2        1.0  0.71761  0.39010  0.26310  1.0000
  N   N3        1.0  0.21761  0.10990  0.73690  1.0000
  N   N4        1.0  0.78239  0.89010  0.73690  1.0000
  C   C1        1.0  0.23970  0.45220  0.14410  1.0000
  C   C2        1.0  0.76030  0.54780  0.14410  1.0000
  C   C3        1.0  0.26030  0.95220  0.85590  1.0000
  C   C4        1.0  0.73970  0.04780  0.85590  1.0000
  C   C5        1.0  0.25090  0.54490  0.09580  1.0000
  C   C6        1.0  0.74910  0.45510  0.09580  1.0000
  C   C7        1.0  0.24910  0.04490  0.90420  1.0000
  C   C8        1.0  0.75090  0.95510  0.90420  1.0000
  C   C9        1.0  0.23090  0.54570  0.02320  1.0000
  C   C10       1.0  0.76910  0.45430  0.02320  1.0000
  C   C11       1.0  0.26910  0.04570  0.97680  1.0000
  C   C12       1.0  0.73090  0.95430  0.97680  1.0000
  H   H17       1.0  0.21067  0.49090  0.00664  1.0000
  H   H18       1.0  0.78933  0.50910  0.00664  1.0000
  H   H19       1.0  0.28933  0.99090  0.99336  1.0000
  H   H20       1.0  0.71067  0.00910  0.99336  1.0000
  C   C13       1.0  0.24030  0.62620  0.97450  1.0000
  C   C14       1.0  0.75970  0.37380  0.97450  1.0000
  C   C15       1.0  0.25970  0.12620  0.02550  1.0000
  C   C16       1.0  0.74030  0.87380  0.02550  1.0000
  C   C17       1.0  0.27010  0.70910  0.99800  1.0000
  C   C18       1.0  0.72990  0.29090  0.99800  1.0000
  C   C19       1.0  0.22990  0.20910  0.00200  1.0000
  C   C20       1.0  0.77010  0.79090  0.00200  1.0000
  H   H21       1.0  0.27608  0.76322  0.96478  1.0000
  H   H22       1.0  0.72392  0.23678  0.96478  1.0000
  H   H23       1.0  0.22392  0.26322  0.03522  1.0000
  H   H24       1.0  0.77608  0.73678  0.03522  1.0000
  C   C21       1.0  0.29050  0.71140  0.06950  1.0000
  C   C22       1.0  0.70950  0.28860  0.06950  1.0000
  C   C23       1.0  0.20950  0.21140  0.93050  1.0000
  C   C24       1.0  0.79050  0.78860  0.93050  1.0000
  H   H25       1.0  0.31017  0.76761  0.08502  1.0000
  H   H26       1.0  0.68983  0.23239  0.08502  1.0000
  H   H27       1.0  0.18983  0.26761  0.91498  1.0000
  H   H28       1.0  0.81017  0.73239  0.91498  1.0000
  C   C25       1.0  0.28220  0.62910  0.12060  1.0000
  C   C26       1.0  0.71780  0.37090  0.12060  1.0000
  C   C27       1.0  0.21780  0.12910  0.87940  1.0000
  C   C28       1.0  0.78220  0.87090  0.87940  1.0000
  C   C29       1.0  0.21980  0.61920  0.89340  1.0000
  C   C30       1.0  0.78020  0.38080  0.89340  1.0000
  C   C31       1.0  0.28020  0.11920  0.10660  1.0000
  C   C32       1.0  0.71980  0.88080  0.10660  1.0000
  C   C33       1.0  0.30856  0.63280  0.19730  1.0000
  C   C34       1.0  0.69144  0.36720  0.19730  1.0000
  C   C35       1.0  0.19144  0.13280  0.80270  1.0000
  C   C36       1.0  0.80856  0.86720  0.80270  1.0000
  C   C37       1.0  0.36006  0.66320  0.19800  1.0000
  C   C38       1.0  0.63994  0.33680  0.19800  1.0000
  C   C39       1.0  0.13994  0.16320  0.80200  1.0000
  C   C40       1.0  0.86006  0.83680  0.80200  1.0000
  H   H29       1.0  0.37675  0.68049  0.15272  1.0000
  H   H30       1.0  0.62325  0.31951  0.15272  1.0000
  H   H31       1.0  0.12325  0.18049  0.84728  1.0000
  H   H32       1.0  0.87675  0.81951  0.84728  1.0000
  C   C41       1.0  0.38625  0.66810  0.26410  1.0000
  C   C42       1.0  0.61375  0.33190  0.26410  1.0000
  C   C43       1.0  0.11375  0.16810  0.73590  1.0000
  C   C44       1.0  0.88625  0.83190  0.73590  1.0000
  C   C45       1.0  0.31031  0.61880  0.33130  1.0000
  C   C46       1.0  0.68969  0.38120  0.33130  1.0000
  C   C47       1.0  0.18969  0.11880  0.66870  1.0000
  C   C48       1.0  0.81031  0.88120  0.66870  1.0000
  C   C49       1.0  0.36218  0.64660  0.33190  1.0000
  C   C50       1.0  0.63782  0.35340  0.33190  1.0000
  C   C51       1.0  0.13782  0.14660  0.66810  1.0000
  C   C52       1.0  0.86218  0.85340  0.66810  1.0000
  H   H33       1.0  0.38063  0.65071  0.37749  1.0000
  H   H34       1.0  0.61937  0.34929  0.37749  1.0000
  H   H35       1.0  0.11937  0.15071  0.62251  1.0000
  H   H36       1.0  0.88063  0.84929  0.62251  1.0000
  C   C53       1.0  0.44221  0.70280  0.26120  1.0000
  C   C54       1.0  0.55779  0.29720  0.26120  1.0000
  C   C55       1.0  0.05779  0.20280  0.73880  1.0000
  C   C56       1.0  0.94221  0.79720  0.73880  1.0000
  C   C57       1.0  0.45756  0.79430  0.22830  1.0000
  C   C58       1.0  0.54244  0.20570  0.22830  1.0000
  C   C59       1.0  0.04244  0.29430  0.77170  1.0000
  C   C60       1.0  0.95756  0.70570  0.77170  1.0000
  C   C61       1.0  0.50969  0.82010  0.22450  1.0000
  C   C62       1.0  0.49031  0.17990  0.22450  1.0000
  C   C63       1.0  0.99031  0.32010  0.77550  1.0000
  C   C64       1.0  0.00969  0.67990  0.77550  1.0000
  H   H37       1.0  0.51943  0.88073  0.20069  1.0000
  H   H38       1.0  0.48057  0.11927  0.20069  1.0000
  H   H39       1.0  0.98057  0.38073  0.79931  1.0000
  H   H40       1.0  0.01943  0.61927  0.79931  1.0000
  C   C65       1.0  0.54852  0.75680  0.25560  1.0000
  C   C66       1.0  0.45148  0.24320  0.25560  1.0000
  C   C67       1.0  0.95148  0.25680  0.74440  1.0000
  C   C68       1.0  0.04852  0.74320  0.74440  1.0000
  C   C69       1.0  0.53340  0.66480  0.28960  1.0000
  C   C70       1.0  0.46660  0.33520  0.28960  1.0000
  C   C71       1.0  0.96660  0.16480  0.71040  1.0000
  C   C72       1.0  0.03340  0.83520  0.71040  1.0000
  H   H41       1.0  0.55874  0.62160  0.31001  1.0000
  H   H42       1.0  0.44126  0.37840  0.31001  1.0000
  H   H43       1.0  0.94126  0.12160  0.68999  1.0000
  H   H44       1.0  0.05874  0.87840  0.68999  1.0000
  C   C73       1.0  0.48127  0.63760  0.29310  1.0000
  C   C74       1.0  0.51873  0.36240  0.29310  1.0000
  C   C75       1.0  0.01873  0.13760  0.70690  1.0000
  C   C76       1.0  0.98127  0.86240  0.70690  1.0000
  H   H45       1.0  0.47154  0.57650  0.31626  1.0000
  H   H46       1.0  0.52846  0.42350  0.31626  1.0000
  H   H47       1.0  0.02846  0.07650  0.68374  1.0000
  H   H48       1.0  0.97154  0.92350  0.68374  1.0000
  C   C77       1.0  0.41700  0.87010  0.19920  1.0000
  C   C78       1.0  0.58300  0.12990  0.19920  1.0000
  C   C79       1.0  0.08300  0.37010  0.80080  1.0000
  C   C80       1.0  0.91700  0.62990  0.80080  1.0000
  C   C81       1.0  0.60495  0.78780  0.25000  1.0000
  C   C82       1.0  0.39505  0.21220  0.25000  1.0000
  C   C83       1.0  0.89505  0.28780  0.75000  1.0000
  C   C84       1.0  0.10495  0.71220  0.75000  1.0000
  C   C85       1.0  0.28375  0.60510  0.40590  1.0000
  C   C86       1.0  0.71625  0.39490  0.40590  1.0000
  C   C87       1.0  0.21625  0.10510  0.59410  1.0000
  C   C88       1.0  0.78375  0.89490  0.59410  1.0000
  C   C89       1.0  0.29330  0.68010  0.46210  1.0000
  C   C90       1.0  0.70670  0.31990  0.46210  1.0000
  C   C91       1.0  0.20670  0.18010  0.53790  1.0000
  C   C92       1.0  0.79330  0.81990  0.53790  1.0000
  H   H49       1.0  0.31558  0.73428  0.45080  1.0000
  H   H50       1.0  0.68442  0.26572  0.45080  1.0000
  H   H51       1.0  0.18442  0.23428  0.54920  1.0000
  H   H52       1.0  0.81558  0.76572  0.54920  1.0000
  C   C93       1.0  0.27040  0.67540  0.53340  1.0000
  C   C94       1.0  0.72960  0.32460  0.53340  1.0000
  C   C95       1.0  0.22960  0.17540  0.46660  1.0000
  C   C96       1.0  0.77040  0.82460  0.46660  1.0000
  H   H53       1.0  0.27715  0.72572  0.56957  1.0000
  H   H54       1.0  0.72285  0.27428  0.56957  1.0000
  H   H55       1.0  0.22285  0.22572  0.43043  1.0000
  H   H56       1.0  0.77715  0.77428  0.43043  1.0000
  C   C97       1.0  0.23740  0.59470  0.55000  1.0000
  C   C98       1.0  0.76260  0.40530  0.55000  1.0000
  C   C99       1.0  0.26260  0.09470  0.45000  1.0000
  C   C100      1.0  0.73740  0.90530  0.45000  1.0000
  C   C101      1.0  0.22630  0.51990  0.49490  1.0000
  C   C102      1.0  0.77370  0.48010  0.49490  1.0000
  C   C103      1.0  0.27370  0.01990  0.50510  1.0000
  C   C104      1.0  0.72630  0.98010  0.50510  1.0000
  H   H57       1.0  0.20315  0.46715  0.50660  1.0000
  H   H58       1.0  0.79685  0.53285  0.50660  1.0000
  H   H59       1.0  0.29685  0.96715  0.49340  1.0000
  H   H60       1.0  0.70315  0.03285  0.49340  1.0000
  C   C105      1.0  0.24920  0.52340  0.42330  1.0000
  C   C106      1.0  0.75080  0.47660  0.42330  1.0000
  C   C107      1.0  0.25080  0.02340  0.57670  1.0000
  C   C108      1.0  0.74920  0.97660  0.57670  1.0000
  C   C109      1.0  0.21280  0.58350  0.62770  1.0000
  C   C110      1.0  0.78720  0.41650  0.62770  1.0000
  C   C111      1.0  0.28720  0.08350  0.37230  1.0000
  C   C112      1.0  0.71280  0.91650  0.37230  1.0000
  C   C113      1.0  0.23700  0.43470  0.37110  1.0000
  C   C114      1.0  0.76300  0.56530  0.37110  1.0000
  C   C115      1.0  0.26300  0.93470  0.62890  1.0000
  C   C116      1.0  0.73700  0.06530  0.62890  1.0000
