data_image0
_chemical_formula_structural       Co6O16H8O20N4C12H4C20H4C12H4C4H4C12H4C4H4C12H4C4H4C4H4
_chemical_formula_sum              "Co6 O36 H44 N4 C84"
_cell_length_a       13.979
_cell_length_b       12.436
_cell_length_c       16.164
_cell_angle_alpha    90
_cell_angle_beta     90.613
_cell_angle_gamma    90

_space_group_name_H-M_alt    "P 1"
_space_group_IT_number       1

loop_
  _space_group_symop_operation_xyz
  'x, y, z'

loop_
  _atom_site_type_symbol
  _atom_site_label
  _atom_site_symmetry_multiplicity
  _atom_site_fract_x
  _atom_site_fract_y
  _atom_site_fract_z
  _atom_site_occupancy
  Co  Co1       1.0  0.50000  1.00000  0.00000  1.0000
  Co  Co2       1.0  0.00000  0.50000  0.50000  1.0000
  Co  Co3       1.0  0.74688  0.48768  0.50503  1.0000
  Co  Co4       1.0  0.75312  0.98768  0.99497  1.0000
  Co  Co5       1.0  0.25312  0.51232  0.49497  1.0000
  Co  Co6       1.0  0.24688  0.01232  0.00503  1.0000
  O   O1        1.0  0.54578  0.97090  0.88374  1.0000
  O   O2        1.0  0.95422  0.47090  0.61626  1.0000
  O   O3        1.0  0.45422  0.02910  0.11626  1.0000
  O   O4        1.0  0.04578  0.52910  0.38374  1.0000
  O   O5        1.0  0.69666  0.91010  0.88672  1.0000
  O   O6        1.0  0.80334  0.41010  0.61328  1.0000
  O   O7        1.0  0.30334  0.08990  0.11328  1.0000
  O   O8        1.0  0.19666  0.58990  0.38672  1.0000
  O   O9        1.0  0.68682  0.59940  0.58417  1.0000
  O   O10       1.0  0.81318  0.09940  0.91583  1.0000
  O   O11       1.0  0.31318  0.40060  0.41583  1.0000
  O   O12       1.0  0.18682  0.90060  0.08417  1.0000
  O   O13       1.0  0.86934  0.59057  0.48658  1.0000
  O   O14       1.0  0.63066  0.09057  0.01342  1.0000
  O   O15       1.0  0.13066  0.40943  0.51342  1.0000
  O   O16       1.0  0.36934  0.90943  0.98658  1.0000
  H   H1        1.0  0.86100  0.61900  0.44180  1.0000
  H   H2        1.0  0.63900  0.11900  0.05820  1.0000
  H   H3        1.0  0.13900  0.38100  0.55820  1.0000
  H   H4        1.0  0.36100  0.88100  0.94180  1.0000
  H   H5        1.0  0.86000  0.63400  0.52450  1.0000
  H   H6        1.0  0.64000  0.13400  0.97550  1.0000
  H   H7        1.0  0.14000  0.36600  0.47550  1.0000
  H   H8        1.0  0.36000  0.86600  0.02450  1.0000
  O   O17       1.0  0.68773  0.57080  0.39871  1.0000
  O   O18       1.0  0.81227  0.07080  0.10129  1.0000
  O   O19       1.0  0.31227  0.42920  0.60129  1.0000
  O   O20       1.0  0.18773  0.92920  0.89871  1.0000
  O   O21       1.0  0.79803  0.68490  0.35465  1.0000
  O   O22       1.0  0.70197  0.18490  0.14535  1.0000
  O   O23       1.0  0.20197  0.31510  0.64535  1.0000
  O   O24       1.0  0.29803  0.81510  0.85465  1.0000
  O   O25       1.0  0.71156  0.87500  0.08338  1.0000
  O   O26       1.0  0.78844  0.37500  0.41662  1.0000
  O   O27       1.0  0.28844  0.12500  0.91662  1.0000
  O   O28       1.0  0.21156  0.62500  0.58338  1.0000
  O   O29       1.0  0.56112  0.85730  0.03850  1.0000
  O   O30       1.0  0.93888  0.35730  0.46150  1.0000
  O   O31       1.0  0.43888  0.14270  0.96150  1.0000
  O   O32       1.0  0.06112  0.64270  0.53850  1.0000
  O   O33       1.0  0.79308  0.73020  0.59990  1.0000
  O   O34       1.0  0.70692  0.23020  0.90010  1.0000
  O   O35       1.0  0.20692  0.26980  0.40010  1.0000
  O   O36       1.0  0.29308  0.76980  0.09990  1.0000
  N   N1        1.0  0.38403  0.59410  0.48643  1.0000
  N   N2        1.0  0.11597  0.09410  0.01357  1.0000
  N   N3        1.0  0.61597  0.40590  0.51357  1.0000
  N   N4        1.0  0.88403  0.90590  0.98643  1.0000
  C   C1        1.0  0.61470  0.91960  0.85470  1.0000
  C   C2        1.0  0.88530  0.41960  0.64530  1.0000
  C   C3        1.0  0.38530  0.08040  0.14530  1.0000
  C   C4        1.0  0.11470  0.58040  0.35470  1.0000
  C   C5        1.0  0.59290  0.86370  0.77390  1.0000
  C   C6        1.0  0.90710  0.36370  0.72610  1.0000
  C   C7        1.0  0.40710  0.13630  0.22610  1.0000
  C   C8        1.0  0.09290  0.63630  0.27390  1.0000
  C   C9        1.0  0.66140  0.80960  0.72720  1.0000
  C   C10       1.0  0.83860  0.30960  0.77280  1.0000
  C   C11       1.0  0.33860  0.19040  0.27280  1.0000
  C   C12       1.0  0.16140  0.69040  0.22720  1.0000
  H   H9        1.0  0.72630  0.81070  0.74520  1.0000
  H   H10       1.0  0.77370  0.31070  0.75480  1.0000
  H   H11       1.0  0.27370  0.18930  0.25480  1.0000
  H   H12       1.0  0.22630  0.68930  0.24520  1.0000
  C   C13       1.0  0.63730  0.75400  0.65520  1.0000
  C   C14       1.0  0.86270  0.25400  0.84480  1.0000
  C   C15       1.0  0.36270  0.24600  0.34480  1.0000
  C   C16       1.0  0.13730  0.74600  0.15520  1.0000
  C   C17       1.0  0.71310  0.69000  0.60920  1.0000
  C   C18       1.0  0.78690  0.19000  0.89080  1.0000
  C   C19       1.0  0.28690  0.31000  0.39080  1.0000
  C   C20       1.0  0.21310  0.81000  0.10920  1.0000
  C   C21       1.0  0.71440  0.64790  0.35560  1.0000
  C   C22       1.0  0.78560  0.14790  0.14440  1.0000
  C   C23       1.0  0.28560  0.35210  0.64440  1.0000
  C   C24       1.0  0.21440  0.85210  0.85560  1.0000
  C   C25       1.0  0.63980  0.69970  0.29970  1.0000
  C   C26       1.0  0.86020  0.19970  0.20030  1.0000
  C   C27       1.0  0.36020  0.30030  0.70030  1.0000
  C   C28       1.0  0.13980  0.80030  0.79970  1.0000
  C   C29       1.0  0.66850  0.74470  0.22460  1.0000
  C   C30       1.0  0.83150  0.24470  0.27540  1.0000
  C   C31       1.0  0.33150  0.25530  0.77540  1.0000
  C   C32       1.0  0.16850  0.75530  0.72460  1.0000
  H   H13       1.0  0.73460  0.74900  0.21190  1.0000
  H   H14       1.0  0.76540  0.24900  0.28810  1.0000
  H   H15       1.0  0.26540  0.25100  0.78810  1.0000
  H   H16       1.0  0.23460  0.75100  0.71190  1.0000
  C   C33       1.0  0.60030  0.78330  0.16820  1.0000
  C   C34       1.0  0.89970  0.28330  0.33180  1.0000
  C   C35       1.0  0.39970  0.21670  0.83180  1.0000
  C   C36       1.0  0.10030  0.71670  0.66820  1.0000
  C   C37       1.0  0.62710  0.84210  0.09020  1.0000
  C   C38       1.0  0.87290  0.34210  0.40980  1.0000
  C   C39       1.0  0.37290  0.15790  0.90980  1.0000
  C   C40       1.0  0.12710  0.65790  0.59020  1.0000
  C   C41       1.0  0.50410  0.77410  0.18650  1.0000
  C   C42       1.0  0.99590  0.27410  0.31350  1.0000
  C   C43       1.0  0.49590  0.22590  0.81350  1.0000
  C   C44       1.0  0.00410  0.72590  0.68650  1.0000
  H   H17       1.0  0.45730  0.79630  0.14710  1.0000
  H   H18       1.0  0.04270  0.29630  0.35290  1.0000
  H   H19       1.0  0.54270  0.20370  0.85290  1.0000
  H   H20       1.0  0.95730  0.70370  0.64710  1.0000
  C   C45       1.0  0.47600  0.73310  0.26150  1.0000
  C   C46       1.0  0.02400  0.23310  0.23850  1.0000
  C   C47       1.0  0.52400  0.26690  0.73850  1.0000
  C   C48       1.0  0.97600  0.76690  0.76150  1.0000
  H   H21       1.0  0.40980  0.72860  0.27360  1.0000
  H   H22       1.0  0.09020  0.22860  0.22640  1.0000
  H   H23       1.0  0.59020  0.27140  0.72640  1.0000
  H   H24       1.0  0.90980  0.77140  0.77360  1.0000
  C   C49       1.0  0.54310  0.69800  0.32000  1.0000
  C   C50       1.0  0.95690  0.19800  0.18000  1.0000
  C   C51       1.0  0.45690  0.30200  0.68000  1.0000
  C   C52       1.0  0.04310  0.80200  0.82000  1.0000
  C   C53       1.0  0.50710  0.67180  0.40390  1.0000
  C   C54       1.0  0.99290  0.17180  0.09610  1.0000
  C   C55       1.0  0.49290  0.32820  0.59610  1.0000
  C   C56       1.0  0.00710  0.82820  0.90390  1.0000
  C   C57       1.0  0.42580  0.61000  0.41306  1.0000
  C   C58       1.0  0.07420  0.11000  0.08694  1.0000
  C   C59       1.0  0.57420  0.39000  0.58694  1.0000
  C   C60       1.0  0.92580  0.89000  0.91306  1.0000
  H   H25       1.0  0.39830  0.57720  0.36530  1.0000
  H   H26       1.0  0.10170  0.07720  0.13470  1.0000
  H   H27       1.0  0.60170  0.42280  0.63470  1.0000
  H   H28       1.0  0.89830  0.92280  0.86530  1.0000
  C   C61       1.0  0.42460  0.63900  0.55340  1.0000
  C   C62       1.0  0.07540  0.13900  0.94660  1.0000
  C   C63       1.0  0.57540  0.36100  0.44660  1.0000
  C   C64       1.0  0.92460  0.86100  0.05340  1.0000
  H   H29       1.0  0.39560  0.62730  0.60550  1.0000
  H   H30       1.0  0.10440  0.12730  0.89450  1.0000
  H   H31       1.0  0.60440  0.37270  0.39450  1.0000
  H   H32       1.0  0.89560  0.87270  0.10550  1.0000
  C   C65       1.0  0.50630  0.70140  0.55090  1.0000
  C   C66       1.0  0.99370  0.20140  0.94910  1.0000
  C   C67       1.0  0.49370  0.29860  0.44910  1.0000
  C   C68       1.0  0.00630  0.79860  0.05090  1.0000
  C   C69       1.0  0.54120  0.75550  0.62760  1.0000
  C   C70       1.0  0.95880  0.25550  0.87240  1.0000
  C   C71       1.0  0.45880  0.24450  0.37240  1.0000
  C   C72       1.0  0.04120  0.74450  0.12760  1.0000
  C   C73       1.0  0.47440  0.81260  0.67250  1.0000
  C   C74       1.0  0.02560  0.31260  0.82750  1.0000
  C   C75       1.0  0.52560  0.18740  0.32750  1.0000
  C   C76       1.0  0.97440  0.68740  0.17250  1.0000
  H   H33       1.0  0.41000  0.81540  0.65320  1.0000
  H   H34       1.0  0.09000  0.31540  0.84680  1.0000
  H   H35       1.0  0.59000  0.18460  0.34680  1.0000
  H   H36       1.0  0.91000  0.68460  0.15320  1.0000
  C   C77       1.0  0.49910  0.86620  0.74540  1.0000
  C   C78       1.0  0.00090  0.36620  0.75460  1.0000
  C   C79       1.0  0.50090  0.13380  0.25460  1.0000
  C   C80       1.0  0.99910  0.63380  0.24540  1.0000
  H   H37       1.0  0.45190  0.90430  0.77540  1.0000
  H   H38       1.0  0.04810  0.40430  0.72460  1.0000
  H   H39       1.0  0.54810  0.09570  0.22460  1.0000
  H   H40       1.0  0.95190  0.59570  0.27540  1.0000
  C   C81       1.0  0.54770  0.71810  0.47410  1.0000
  C   C82       1.0  0.95230  0.21810  0.02590  1.0000
  C   C83       1.0  0.45230  0.28190  0.52590  1.0000
  C   C84       1.0  0.04770  0.78190  0.97410  1.0000
  H   H41       1.0  0.60360  0.76100  0.46960  1.0000
  H   H42       1.0  0.89640  0.26100  0.03040  1.0000
  H   H43       1.0  0.39640  0.23900  0.53040  1.0000
  H   H44       1.0  0.10360  0.73900  0.96960  1.0000
