data_image0
_chemical_formula_structural       CoBr4N4O10H4C2H2C4H2C4H2C4H2C4H2C4H2C2
_chemical_formula_sum              "Co1 Br4 N4 O10 H16 C24"
_cell_length_a       8.6021
_cell_length_b       11.4771
_cell_length_c       14.707
_cell_angle_alpha    112.501
_cell_angle_beta     102.893
_cell_angle_gamma    90.282

_space_group_name_H-M_alt    "P 1"
_space_group_IT_number       1

loop_
  _space_group_symop_operation_xyz
  'x, y, z'

loop_
  _atom_site_type_symbol
  _atom_site_label
  _atom_site_symmetry_multiplicity
  _atom_site_fract_x
  _atom_site_fract_y
  _atom_site_fract_z
  _atom_site_occupancy
  Co  Co1       1.0  0.00000  0.50000  0.50000  1.0000
  Br  Br1       1.0  0.28642  0.89416  0.36238  1.0000
  Br  Br2       1.0  0.71358  0.10584  0.63762  1.0000
  Br  Br3       1.0  0.47855  0.57711  0.29562  1.0000
  Br  Br4       1.0  0.52145  0.42289  0.70438  1.0000
  N   N1        1.0  0.22480  0.03000  0.65100  1.0000
  N   N2        1.0  0.77520  0.97000  0.34900  1.0000
  N   N3        1.0  0.23690  0.58630  0.50821  1.0000
  N   N4        1.0  0.76310  0.41370  0.49179  1.0000
  O   O1        1.0  0.09990  0.35767  0.53422  1.0000
  O   O2        1.0  0.90010  0.64233  0.46578  1.0000
  O   O3        1.0  0.07840  0.39040  0.69118  1.0000
  O   O4        1.0  0.92160  0.60960  0.30882  1.0000
  O   O5        1.0  0.76810  0.75400  0.70028  1.0000
  O   O6        1.0  0.23190  0.24600  0.29972  1.0000
  O   O7        1.0  0.56960  0.80440  0.77901  1.0000
  O   O8        1.0  0.43040  0.19560  0.22099  1.0000
  O   O9        1.0  0.03070  0.61280  0.65698  1.0000
  O   O10       1.0  0.96930  0.38720  0.34302  1.0000
  H   H1        1.0  0.04300  0.57000  0.69100  1.0000
  H   H2        1.0  0.95700  0.43000  0.30900  1.0000
  H   H3        1.0  0.95400  0.65300  0.66800  1.0000
  H   H4        1.0  0.04600  0.34700  0.33200  1.0000
  C   C1        1.0  0.17490  0.14420  0.66350  1.0000
  C   C2        1.0  0.82510  0.85580  0.33650  1.0000
  H   H5        1.0  0.15420  0.19425  0.72545  1.0000
  H   H6        1.0  0.84580  0.80575  0.27455  1.0000
  C   C3        1.0  0.15260  0.19130  0.58800  1.0000
  C   C4        1.0  0.84740  0.80870  0.41200  1.0000
  C   C5        1.0  0.18000  0.11550  0.49540  1.0000
  C   C6        1.0  0.82000  0.88450  0.50460  1.0000
  H   H7        1.0  0.16215  0.14238  0.44213  1.0000
  H   H8        1.0  0.83785  0.85762  0.55787  1.0000
  C   C7        1.0  0.23440  0.99890  0.48370  1.0000
  C   C8        1.0  0.76560  0.00110  0.51630  1.0000
  C   C9        1.0  0.25470  0.95980  0.56250  1.0000
  C   C10       1.0  0.74530  0.04020  0.43750  1.0000
  H   H9        1.0  0.29093  0.88088  0.55342  1.0000
  H   H10       1.0  0.70907  0.11912  0.44658  1.0000
  C   C11       1.0  0.10440  0.32450  0.60790  1.0000
  C   C12       1.0  0.89560  0.67550  0.39210  1.0000
  C   C13       1.0  0.34720  0.64500  0.59628  1.0000
  C   C14       1.0  0.65280  0.35500  0.40372  1.0000
  H   H11       1.0  0.31834  0.65843  0.65655  1.0000
  H   H12       1.0  0.68166  0.34157  0.34345  1.0000
  C   C15       1.0  0.50220  0.68660  0.60147  1.0000
  C   C16       1.0  0.49780  0.31340  0.39853  1.0000
  C   C17       1.0  0.54610  0.66460  0.51140  1.0000
  C   C18       1.0  0.45390  0.33540  0.48860  1.0000
  H   H13       1.0  0.65052  0.68616  0.51151  1.0000
  H   H14       1.0  0.34948  0.31384  0.48849  1.0000
  C   C19       1.0  0.43070  0.61020  0.42242  1.0000
  C   C20       1.0  0.56930  0.38980  0.57758  1.0000
  C   C21       1.0  0.27860  0.57290  0.42232  1.0000
  C   C22       1.0  0.72140  0.42710  0.57768  1.0000
  H   H15       1.0  0.20230  0.53723  0.36088  1.0000
  H   H16       1.0  0.79770  0.46277  0.63912  1.0000
  C   C23       1.0  0.62280  0.75390  0.70220  1.0000
  C   C24       1.0  0.37720  0.24610  0.29780  1.0000
