data_image0
_chemical_formula_structural       W48Zn4Cu8O116H8O20H8O4N4O8N4O4C4N8C4H4C12H4C4H4C4H4C4H4C12H4C4H4C4H4C8H4C8H4C8H4C4H4C4H4C4H4C4H4C4H4O16
_chemical_formula_sum              "W48 Zn4 Cu8 O168 H80 N16 C96"
_cell_length_a       13.13
_cell_length_b       22.0259
_cell_length_c       21.7744
_cell_angle_alpha    90
_cell_angle_beta     90.14
_cell_angle_gamma    90

_space_group_name_H-M_alt    "P 1"
_space_group_IT_number       1

loop_
  _space_group_symop_operation_xyz
  'x, y, z'

loop_
  _atom_site_type_symbol
  _atom_site_label
  _atom_site_symmetry_multiplicity
  _atom_site_fract_x
  _atom_site_fract_y
  _atom_site_fract_z
  _atom_site_occupancy
  W   W1        1.0  0.29053  0.35163  0.67081  1.0000
  W   W2        1.0  0.20947  0.85163  0.82919  1.0000
  W   W3        1.0  0.70947  0.64837  0.32919  1.0000
  W   W4        1.0  0.79053  0.14837  0.17081  1.0000
  W   W5        1.0  0.32192  0.25840  0.93119  1.0000
  W   W6        1.0  0.17808  0.75840  0.56881  1.0000
  W   W7        1.0  0.67808  0.74160  0.06881  1.0000
  W   W8        1.0  0.82192  0.24160  0.43119  1.0000
  W   W9        1.0  0.27163  0.43054  0.80029  1.0000
  W   W10       1.0  0.22837  0.93054  0.69971  1.0000
  W   W11       1.0  0.72837  0.56946  0.19971  1.0000
  W   W12       1.0  0.77163  0.06946  0.30029  1.0000
  W   W13       1.0  0.34822  0.16326  0.79237  1.0000
  W   W14       1.0  0.15178  0.66326  0.70763  1.0000
  W   W15       1.0  0.65178  0.83674  0.20763  1.0000
  W   W16       1.0  0.84822  0.33674  0.29237  1.0000
  W   W17       1.0  0.46067  0.21687  0.66817  1.0000
  W   W18       1.0  0.03933  0.71687  0.83183  1.0000
  W   W19       1.0  0.53933  0.78313  0.33183  1.0000
  W   W20       1.0  0.96067  0.28313  0.16817  1.0000
  W   W21       1.0  0.17122  0.29548  0.78953  1.0000
  W   W22       1.0  0.32878  0.79548  0.71047  1.0000
  W   W23       1.0  0.82878  0.70452  0.21047  1.0000
  W   W24       1.0  0.67122  0.20452  0.28953  1.0000
  W   W25       1.0  0.59431  0.17930  0.78829  1.0000
  W   W26       1.0  0.90569  0.67930  0.71171  1.0000
  W   W27       1.0  0.40569  0.82070  0.21171  1.0000
  W   W28       1.0  0.09431  0.32070  0.28829  1.0000
  W   W29       1.0  0.55071  0.45543  0.79573  1.0000
  W   W30       1.0  0.94929  0.95543  0.70427  1.0000
  W   W31       1.0  0.44929  0.54457  0.20427  1.0000
  W   W32       1.0  0.05071  0.04457  0.29573  1.0000
  W   W33       1.0  0.57230  0.37284  0.67122  1.0000
  W   W34       1.0  0.92770  0.87284  0.82878  1.0000
  W   W35       1.0  0.42770  0.62716  0.32878  1.0000
  W   W36       1.0  0.07230  0.12716  0.17122  1.0000
  W   W37       1.0  0.56943  0.27037  0.93153  1.0000
  W   W38       1.0  0.93057  0.77037  0.56847  1.0000
  W   W39       1.0  0.43057  0.72963  0.06847  1.0000
  W   W40       1.0  0.06943  0.22963  0.43153  1.0000
  W   W41       1.0  0.69799  0.33634  0.79523  1.0000
  W   W42       1.0  0.80201  0.83634  0.70477  1.0000
  W   W43       1.0  0.30201  0.66366  0.20477  1.0000
  W   W44       1.0  0.19799  0.16366  0.29523  1.0000
  W   W45       1.0  0.42902  0.39191  0.93680  1.0000
  W   W46       1.0  0.07098  0.89191  0.56320  1.0000
  W   W47       1.0  0.57098  0.60809  0.06320  1.0000
  W   W48       1.0  0.92902  0.10809  0.43680  1.0000
  Zn  Zn1       1.0  0.43867  0.31046  0.79688  1.0000
  Zn  Zn2       1.0  0.06133  0.81046  0.70312  1.0000
  Zn  Zn3       1.0  0.56133  0.68954  0.20312  1.0000
  Zn  Zn4       1.0  0.93867  0.18954  0.29688  1.0000
  Cu  Cu1       1.0  0.21176  0.49530  0.65220  1.0000
  Cu  Cu2       1.0  0.28824  0.99530  0.84780  1.0000
  Cu  Cu3       1.0  0.78824  0.50470  0.34780  1.0000
  Cu  Cu4       1.0  0.71176  0.00470  0.15220  1.0000
  Cu  Cu5       1.0  0.16588  0.57627  0.85274  1.0000
  Cu  Cu6       1.0  0.33412  0.07627  0.64726  1.0000
  Cu  Cu7       1.0  0.83412  0.42373  0.14726  1.0000
  Cu  Cu8       1.0  0.66588  0.92373  0.35274  1.0000
  O   O1        1.0  0.54410  0.36100  0.76780  1.0000
  O   O2        1.0  0.95590  0.86100  0.73220  1.0000
  O   O3        1.0  0.45590  0.63900  0.23220  1.0000
  O   O4        1.0  0.04410  0.13900  0.26780  1.0000
  O   O5        1.0  0.44000  0.30820  0.88290  1.0000
  O   O6        1.0  0.06000  0.80820  0.61710  1.0000
  O   O7        1.0  0.56000  0.69180  0.11710  1.0000
  O   O8        1.0  0.94000  0.19180  0.38290  1.0000
  O   O9        1.0  0.14870  0.37880  0.81040  1.0000
  O   O10       1.0  0.35130  0.87880  0.68960  1.0000
  O   O11       1.0  0.85130  0.62120  0.18960  1.0000
  O   O12       1.0  0.64870  0.12120  0.31040  1.0000
  O   O13       1.0  0.48460  0.12610  0.80240  1.0000
  O   O14       1.0  0.01540  0.62610  0.69760  1.0000
  O   O15       1.0  0.51540  0.87390  0.19760  1.0000
  O   O16       1.0  0.98460  0.37390  0.30240  1.0000
  O   O17       1.0  0.42240  0.38280  0.66350  1.0000
  O   O18       1.0  0.07760  0.88280  0.83650  1.0000
  O   O19       1.0  0.57760  0.61720  0.33650  1.0000
  O   O20       1.0  0.92240  0.11720  0.16350  1.0000
  O   O21       1.0  0.64980  0.31900  0.87450  1.0000
  O   O22       1.0  0.85020  0.81900  0.62550  1.0000
  O   O23       1.0  0.35020  0.68100  0.12550  1.0000
  O   O24       1.0  0.14980  0.18100  0.37450  1.0000
  O   O25       1.0  0.16790  0.31200  0.70430  1.0000
  O   O26       1.0  0.33210  0.81200  0.79570  1.0000
  O   O27       1.0  0.83210  0.68800  0.29570  1.0000
  O   O28       1.0  0.66790  0.18800  0.20430  1.0000
  O   O29       1.0  0.37260  0.15390  0.70010  1.0000
  O   O30       1.0  0.12740  0.65390  0.79990  1.0000
  O   O31       1.0  0.62740  0.84610  0.29990  1.0000
  O   O32       1.0  0.87260  0.34610  0.20010  1.0000
  O   O33       1.0  0.24450  0.42850  0.70810  1.0000
  O   O34       1.0  0.25550  0.92850  0.79190  1.0000
  O   O35       1.0  0.75550  0.57150  0.29190  1.0000
  O   O36       1.0  0.74450  0.07150  0.20810  1.0000
  O   O37       1.0  0.24320  0.21960  0.77470  1.0000
  O   O38       1.0  0.25680  0.71960  0.72530  1.0000
  O   O39       1.0  0.75680  0.78040  0.22530  1.0000
  O   O40       1.0  0.74320  0.28040  0.27470  1.0000
  O   O41       1.0  0.53700  0.34940  0.97160  1.0000
  O   O42       1.0  0.96300  0.84940  0.52840  1.0000
  O   O43       1.0  0.46300  0.65060  0.02840  1.0000
  O   O44       1.0  0.03700  0.15060  0.47160  1.0000
  O   O45       1.0  0.57570  0.17380  0.70090  1.0000
  O   O46       1.0  0.92430  0.67380  0.79910  1.0000
  O   O47       1.0  0.42430  0.82620  0.29910  1.0000
  O   O48       1.0  0.07570  0.32620  0.20090  1.0000
  O   O49       1.0  0.70020  0.35520  0.70480  1.0000
  O   O50       1.0  0.79980  0.85520  0.79520  1.0000
  O   O51       1.0  0.29980  0.64480  0.29520  1.0000
  O   O52       1.0  0.20020  0.14480  0.20480  1.0000
  O   O53       1.0  0.66680  0.25540  0.77420  1.0000
  O   O54       1.0  0.83320  0.75540  0.72580  1.0000
  O   O55       1.0  0.33320  0.74460  0.22580  1.0000
  O   O56       1.0  0.16680  0.24460  0.27420  1.0000
  O   O57       1.0  0.22790  0.28490  0.87160  1.0000
  O   O58       1.0  0.27210  0.78490  0.62840  1.0000
  O   O59       1.0  0.77210  0.71510  0.12840  1.0000
  O   O60       1.0  0.72790  0.21510  0.37160  1.0000
  O   O61       1.0  0.40460  0.45790  0.78070  1.0000
  O   O62       1.0  0.09540  0.95790  0.71930  1.0000
  O   O63       1.0  0.59540  0.54210  0.21930  1.0000
  O   O64       1.0  0.90460  0.04210  0.28070  1.0000
  O   O65       1.0  0.34670  0.27250  0.66130  1.0000
  O   O66       1.0  0.15330  0.77250  0.83870  1.0000
  O   O67       1.0  0.65330  0.72750  0.33870  1.0000
  O   O68       1.0  0.84670  0.22750  0.16130  1.0000
  O   O69       1.0  0.34950  0.19190  0.87250  1.0000
  O   O70       1.0  0.15050  0.69190  0.62750  1.0000
  O   O71       1.0  0.65050  0.80810  0.12750  1.0000
  O   O72       1.0  0.84950  0.30810  0.37250  1.0000
  O   O73       1.0  0.32870  0.33520  0.97090  1.0000
  O   O74       1.0  0.17130  0.83520  0.52910  1.0000
  O   O75       1.0  0.67130  0.66480  0.02910  1.0000
  O   O76       1.0  0.82870  0.16480  0.47090  1.0000
  O   O77       1.0  0.23970  0.36810  0.60020  1.0000
  O   O78       1.0  0.26030  0.86810  0.89980  1.0000
  O   O79       1.0  0.76030  0.63190  0.39980  1.0000
  O   O80       1.0  0.73970  0.13190  0.10020  1.0000
  O   O81       1.0  0.45280  0.23610  0.96920  1.0000
  O   O82       1.0  0.04720  0.73610  0.53080  1.0000
  O   O83       1.0  0.54720  0.76390  0.03080  1.0000
  O   O84       1.0  0.95280  0.26390  0.46920  1.0000
  O   O85       1.0  0.57170  0.45470  0.70720  1.0000
  O   O86       1.0  0.92830  0.95470  0.79280  1.0000
  O   O87       1.0  0.42830  0.54530  0.29280  1.0000
  O   O88       1.0  0.07170  0.04530  0.20720  1.0000
  O   O89       1.0  0.51010  0.43100  0.87650  1.0000
  O   O90       1.0  0.98990  0.93100  0.62350  1.0000
  O   O91       1.0  0.48990  0.56900  0.12350  1.0000
  O   O92       1.0  0.01010  0.06900  0.37650  1.0000
  O   O93       1.0  0.58240  0.21020  0.87170  1.0000
  O   O94       1.0  0.91760  0.71020  0.62830  1.0000
  O   O95       1.0  0.41760  0.78980  0.12830  1.0000
  O   O96       1.0  0.08240  0.28980  0.37170  1.0000
  O   O97       1.0  0.31600  0.41370  0.87780  1.0000
  O   O98       1.0  0.18400  0.91370  0.62220  1.0000
  O   O99       1.0  0.68400  0.58630  0.12220  1.0000
  O   O100      1.0  0.81600  0.08630  0.37780  1.0000
  O   O101      1.0  0.68350  0.42390  0.81120  1.0000
  O   O102      1.0  0.81650  0.92390  0.68880  1.0000
  O   O103      1.0  0.31650  0.57610  0.18880  1.0000
  O   O104      1.0  0.18350  0.07610  0.31120  1.0000
  O   O105      1.0  0.82750  0.33360  0.80300  1.0000
  O   O106      1.0  0.67250  0.83360  0.69700  1.0000
  O   O107      1.0  0.17250  0.66640  0.19700  1.0000
  O   O108      1.0  0.32750  0.16640  0.30300  1.0000
  O   O109      1.0  0.54230  0.28890  0.66160  1.0000
  O   O110      1.0  0.95770  0.78890  0.83840  1.0000
  O   O111      1.0  0.45770  0.71110  0.33840  1.0000
  O   O112      1.0  0.04230  0.21110  0.16160  1.0000
  O   O113      1.0  0.35940  0.51040  0.64480  1.0000
  O   O114      1.0  0.14060  0.01040  0.85520  1.0000
  O   O115      1.0  0.64060  0.48960  0.35520  1.0000
  O   O116      1.0  0.85940  0.98960  0.14480  1.0000
  H   H1        1.0  0.38080  0.53390  0.67530  1.0000
  H   H2        1.0  0.11920  0.03390  0.82470  1.0000
  H   H3        1.0  0.61920  0.46610  0.32470  1.0000
  H   H4        1.0  0.88080  0.96610  0.17530  1.0000
  H   H5        1.0  0.37330  0.53220  0.61150  1.0000
  H   H6        1.0  0.12670  0.03220  0.88850  1.0000
  H   H7        1.0  0.62670  0.46780  0.38850  1.0000
  H   H8        1.0  0.87330  0.96780  0.11150  1.0000
  O   O117      1.0  0.41000  0.44800  0.98990  1.0000
  O   O118      1.0  0.09000  0.94800  0.51010  1.0000
  O   O119      1.0  0.59000  0.55200  0.01010  1.0000
  O   O120      1.0  0.91000  0.05200  0.48990  1.0000
  O   O121      1.0  0.57600  0.53070  0.80610  1.0000
  O   O122      1.0  0.92400  0.03070  0.69390  1.0000
  O   O123      1.0  0.42400  0.46930  0.19390  1.0000
  O   O124      1.0  0.07600  0.96930  0.30610  1.0000
  O   O125      1.0  0.05220  0.26820  0.80030  1.0000
  O   O126      1.0  0.44780  0.76820  0.69970  1.0000
  O   O127      1.0  0.94780  0.73180  0.19970  1.0000
  O   O128      1.0  0.55220  0.23180  0.30030  1.0000
  O   O129      1.0  0.24630  0.22230  0.98360  1.0000
  O   O130      1.0  0.25370  0.72230  0.51640  1.0000
  O   O131      1.0  0.75370  0.77770  0.01640  1.0000
  O   O132      1.0  0.74630  0.27770  0.48360  1.0000
  O   O133      1.0  0.30920  0.59940  0.84890  1.0000
  O   O134      1.0  0.19080  0.09940  0.65110  1.0000
  O   O135      1.0  0.69080  0.40060  0.15110  1.0000
  O   O136      1.0  0.80920  0.90060  0.34890  1.0000
  H   H9        1.0  0.31920  0.63960  0.85850  1.0000
  H   H10       1.0  0.18080  0.13960  0.64150  1.0000
  H   H11       1.0  0.68080  0.36040  0.14150  1.0000
  H   H12       1.0  0.81920  0.86040  0.35850  1.0000
  H   H13       1.0  0.33510  0.59780  0.80960  1.0000
  H   H14       1.0  0.16490  0.09780  0.69040  1.0000
  H   H15       1.0  0.66490  0.40220  0.19040  1.0000
  H   H16       1.0  0.83510  0.90220  0.30960  1.0000
  O   O137      1.0  0.20570  0.49860  0.80750  1.0000
  O   O138      1.0  0.29430  0.99860  0.69250  1.0000
  O   O139      1.0  0.79430  0.50140  0.19250  1.0000
  O   O140      1.0  0.70570  0.00140  0.30750  1.0000
  N   N1        1.0  0.06510  0.48040  0.65930  1.0000
  N   N2        1.0  0.43490  0.98040  0.84070  1.0000
  N   N3        1.0  0.93490  0.51960  0.34070  1.0000
  N   N4        1.0  0.56510  0.01960  0.15930  1.0000
  O   O141      1.0  0.45590  0.23120  0.76640  1.0000
  O   O142      1.0  0.04410  0.73120  0.73360  1.0000
  O   O143      1.0  0.54410  0.76880  0.23360  1.0000
  O   O144      1.0  0.95590  0.26880  0.26640  1.0000
  O   O145      1.0  0.46650  0.19120  0.59420  1.0000
  O   O146      1.0  0.03350  0.69120  0.90580  1.0000
  O   O147      1.0  0.53350  0.80880  0.40580  1.0000
  O   O148      1.0  0.96650  0.30880  0.09420  1.0000
  N   N5        1.0  0.02070  0.55630  0.86180  1.0000
  N   N6        1.0  0.47930  0.05630  0.63820  1.0000
  N   N7        1.0  0.97930  0.44370  0.13820  1.0000
  N   N8        1.0  0.52070  0.94370  0.36180  1.0000
  O   O149      1.0  0.60710  0.39540  0.59810  1.0000
  O   O150      1.0  0.89290  0.89540  0.90190  1.0000
  O   O151      1.0  0.39290  0.60460  0.40190  1.0000
  O   O152      1.0  0.10710  0.10460  0.09810  1.0000
  C   C1        1.0  0.00880  0.51260  0.61850  1.0000
  C   C2        1.0  0.49120  0.01260  0.88150  1.0000
  C   C3        1.0  0.99120  0.48740  0.38150  1.0000
  C   C4        1.0  0.50880  0.98740  0.11850  1.0000
  N   N9        1.0  0.16870  0.54210  0.57810  1.0000
  N   N10       1.0  0.33130  0.04210  0.92190  1.0000
  N   N11       1.0  0.83130  0.45790  0.42190  1.0000
  N   N12       1.0  0.66870  0.95790  0.07810  1.0000
  N   N13       1.0  0.16130  0.57800  0.94710  1.0000
  N   N14       1.0  0.33870  0.07800  0.55290  1.0000
  N   N15       1.0  0.83870  0.42200  0.05290  1.0000
  N   N16       1.0  0.66130  0.92200  0.44710  1.0000
  C   C5        1.0  0.85380  0.54870  0.56930  1.0000
  C   C6        1.0  0.64620  0.04870  0.93070  1.0000
  C   C7        1.0  0.14620  0.45130  0.43070  1.0000
  C   C8        1.0  0.35380  0.95130  0.06930  1.0000
  H   H17       1.0  0.78150  0.55070  0.56840  1.0000
  H   H18       1.0  0.71850  0.05070  0.93160  1.0000
  H   H19       1.0  0.21850  0.44930  0.43160  1.0000
  H   H20       1.0  0.28150  0.94930  0.06840  1.0000
  C   C9        1.0  0.06480  0.54620  0.57460  1.0000
  C   C10       1.0  0.43520  0.04620  0.92540  1.0000
  C   C11       1.0  0.93520  0.45380  0.42540  1.0000
  C   C12       1.0  0.56480  0.95380  0.07460  1.0000
  C   C13       1.0  0.01600  0.57760  0.52810  1.0000
  C   C14       1.0  0.48400  0.07760  0.97190  1.0000
  C   C15       1.0  0.98400  0.42240  0.47190  1.0000
  C   C16       1.0  0.51600  0.92240  0.02810  1.0000
  C   C17       1.0  0.22350  0.57010  0.53510  1.0000
  C   C18       1.0  0.27650  0.07010  0.96490  1.0000
  C   C19       1.0  0.77650  0.42990  0.46490  1.0000
  C   C20       1.0  0.72350  0.92990  0.03510  1.0000
  H   H21       1.0  0.29570  0.56900  0.53810  1.0000
  H   H22       1.0  0.20430  0.06900  0.96190  1.0000
  H   H23       1.0  0.70430  0.43100  0.46190  1.0000
  H   H24       1.0  0.79570  0.93100  0.03810  1.0000
  C   C21       1.0  0.07770  0.60640  0.48270  1.0000
  C   C22       1.0  0.42230  0.10640  0.01730  1.0000
  C   C23       1.0  0.92230  0.39360  0.51730  1.0000
  C   C24       1.0  0.57770  0.89360  0.98270  1.0000
  H   H25       1.0  0.04760  0.62920  0.45040  1.0000
  H   H26       1.0  0.45240  0.12920  0.04960  1.0000
  H   H27       1.0  0.95240  0.37080  0.54960  1.0000
  H   H28       1.0  0.54760  0.87080  0.95040  1.0000
  C   C25       1.0  0.90730  0.44060  0.69880  1.0000
  C   C26       1.0  0.59270  0.94060  0.80120  1.0000
  C   C27       1.0  0.09270  0.55940  0.30120  1.0000
  C   C28       1.0  0.40730  0.05940  0.19880  1.0000
  H   H29       1.0  0.87410  0.41330  0.72600  1.0000
  H   H30       1.0  0.62590  0.91330  0.77400  1.0000
  H   H31       1.0  0.12590  0.58670  0.27400  1.0000
  H   H32       1.0  0.37410  0.08670  0.22600  1.0000
  C   C29       1.0  0.01340  0.44490  0.69970  1.0000
  C   C30       1.0  0.48660  0.94490  0.80030  1.0000
  C   C31       1.0  0.98660  0.55510  0.30030  1.0000
  C   C32       1.0  0.51340  0.05510  0.19970  1.0000
  H   H33       1.0  0.05060  0.42240  0.72940  1.0000
  H   H34       1.0  0.44940  0.92240  0.77060  1.0000
  H   H35       1.0  0.94940  0.57760  0.27060  1.0000
  H   H36       1.0  0.55060  0.07760  0.22940  1.0000
  C   C33       1.0  0.90370  0.51240  0.61630  1.0000
  C   C34       1.0  0.59630  0.01240  0.88370  1.0000
  C   C35       1.0  0.09630  0.48760  0.38370  1.0000
  C   C36       1.0  0.40370  0.98760  0.11630  1.0000
  C   C37       1.0  0.06510  0.57440  0.96550  1.0000
  C   C38       1.0  0.43490  0.07440  0.53450  1.0000
  C   C39       1.0  0.93490  0.42560  0.03450  1.0000
  C   C40       1.0  0.56510  0.92560  0.46550  1.0000
  C   C41       1.0  0.17980  0.60040  0.48700  1.0000
  C   C42       1.0  0.32020  0.10040  0.01300  1.0000
  C   C43       1.0  0.82020  0.39960  0.51300  1.0000
  C   C44       1.0  0.67980  0.89960  0.98700  1.0000
  H   H37       1.0  0.22190  0.61750  0.45600  1.0000
  H   H38       1.0  0.27810  0.11750  0.04400  1.0000
  H   H39       1.0  0.77810  0.38250  0.54400  1.0000
  H   H40       1.0  0.72190  0.88250  0.95600  1.0000
  C   C45       1.0  0.90690  0.57920  0.52780  1.0000
  C   C46       1.0  0.59310  0.07920  0.97220  1.0000
  C   C47       1.0  0.09310  0.42080  0.47220  1.0000
  C   C48       1.0  0.40690  0.92080  0.02780  1.0000
  H   H41       1.0  0.87220  0.60240  0.49750  1.0000
  H   H42       1.0  0.62780  0.10240  0.00250  1.0000
  H   H43       1.0  0.12780  0.39760  0.50250  1.0000
  H   H44       1.0  0.37220  0.89760  0.99750  1.0000
  C   C49       1.0  0.85120  0.47490  0.65950  1.0000
  C   C50       1.0  0.64880  0.97490  0.84050  1.0000
  C   C51       1.0  0.14880  0.52510  0.34050  1.0000
  C   C52       1.0  0.35120  0.02510  0.15950  1.0000
  H   H45       1.0  0.77890  0.47400  0.66070  1.0000
  H   H46       1.0  0.72110  0.97400  0.83930  1.0000
  H   H47       1.0  0.22110  0.52600  0.33930  1.0000
  H   H48       1.0  0.27890  0.02600  0.16070  1.0000
  C   C53       1.0  0.98710  0.56330  0.92120  1.0000
  C   C54       1.0  0.51290  0.06330  0.57880  1.0000
  C   C55       1.0  0.01290  0.43670  0.07880  1.0000
  C   C56       1.0  0.48710  0.93670  0.42120  1.0000
  C   C57       1.0  0.95150  0.54490  0.81970  1.0000
  C   C58       1.0  0.54850  0.04490  0.68030  1.0000
  C   C59       1.0  0.04850  0.45510  0.18030  1.0000
  C   C60       1.0  0.45150  0.95510  0.31970  1.0000
  H   H49       1.0  0.97270  0.54050  0.77820  1.0000
  H   H50       1.0  0.52730  0.04050  0.72180  1.0000
  H   H51       1.0  0.02730  0.45950  0.22180  1.0000
  H   H52       1.0  0.47270  0.95950  0.27820  1.0000
  C   C61       1.0  0.88440  0.56050  0.93670  1.0000
  C   C62       1.0  0.61560  0.06050  0.56330  1.0000
  C   C63       1.0  0.11560  0.43950  0.06330  1.0000
  C   C64       1.0  0.38440  0.93950  0.43670  1.0000
  C   C65       1.0  0.92910  0.58090  0.04260  1.0000
  C   C66       1.0  0.57090  0.08090  0.45740  1.0000
  C   C67       1.0  0.07090  0.41910  0.95740  1.0000
  C   C68       1.0  0.42910  0.91910  0.54260  1.0000
  H   H53       1.0  0.90880  0.58680  0.08400  1.0000
  H   H54       1.0  0.59120  0.08680  0.41600  1.0000
  H   H55       1.0  0.09120  0.41320  0.91600  1.0000
  H   H56       1.0  0.40880  0.91320  0.58400  1.0000
  C   C69       1.0  0.03740  0.58310  0.02870  1.0000
  C   C70       1.0  0.46260  0.08310  0.47130  1.0000
  C   C71       1.0  0.96260  0.41690  0.97130  1.0000
  C   C72       1.0  0.53740  0.91690  0.52870  1.0000
  C   C73       1.0  0.84710  0.53900  0.83340  1.0000
  C   C74       1.0  0.65290  0.03900  0.66660  1.0000
  C   C75       1.0  0.15290  0.46100  0.16660  1.0000
  C   C76       1.0  0.34710  0.96100  0.33340  1.0000
  H   H57       1.0  0.80010  0.52960  0.80160  1.0000
  H   H58       1.0  0.69990  0.02960  0.69840  1.0000
  H   H59       1.0  0.19990  0.47040  0.19840  1.0000
  H   H60       1.0  0.30010  0.97040  0.30160  1.0000
  C   C77       1.0  0.23830  0.58320  0.98810  1.0000
  C   C78       1.0  0.26170  0.08320  0.51190  1.0000
  C   C79       1.0  0.76170  0.41680  0.01190  1.0000
  C   C80       1.0  0.73830  0.91680  0.48810  1.0000
  H   H61       1.0  0.30660  0.58170  0.97400  1.0000
  H   H62       1.0  0.19340  0.08170  0.52600  1.0000
  H   H63       1.0  0.69340  0.41830  0.02600  1.0000
  H   H64       1.0  0.80660  0.91830  0.47400  1.0000
  C   C81       1.0  0.81310  0.54670  0.89230  1.0000
  C   C82       1.0  0.68690  0.04670  0.60770  1.0000
  C   C83       1.0  0.18690  0.45330  0.10770  1.0000
  C   C84       1.0  0.31310  0.95330  0.39230  1.0000
  H   H65       1.0  0.74300  0.54260  0.90220  1.0000
  H   H66       1.0  0.75700  0.04260  0.59780  1.0000
  H   H67       1.0  0.25700  0.45740  0.09780  1.0000
  H   H68       1.0  0.24300  0.95740  0.40220  1.0000
  C   C85       1.0  0.86030  0.57170  0.00270  1.0000
  C   C86       1.0  0.63970  0.07170  0.49730  1.0000
  C   C87       1.0  0.13970  0.42830  0.99730  1.0000
  C   C88       1.0  0.36030  0.92830  0.50270  1.0000
  H   H69       1.0  0.79110  0.57180  0.01530  1.0000
  H   H70       1.0  0.70890  0.07180  0.48470  1.0000
  H   H71       1.0  0.20890  0.42820  0.98470  1.0000
  H   H72       1.0  0.29110  0.92820  0.51530  1.0000
  C   C89       1.0  0.12160  0.59120  0.06880  1.0000
  C   C90       1.0  0.37840  0.09120  0.43120  1.0000
  C   C91       1.0  0.87840  0.40880  0.93120  1.0000
  C   C92       1.0  0.62160  0.90880  0.56880  1.0000
  H   H73       1.0  0.10990  0.59740  0.11140  1.0000
  H   H74       1.0  0.39010  0.09740  0.38860  1.0000
  H   H75       1.0  0.89010  0.40260  0.88860  1.0000
  H   H76       1.0  0.60990  0.90260  0.61140  1.0000
  C   C93       1.0  0.22060  0.59030  0.04690  1.0000
  C   C94       1.0  0.27940  0.09030  0.45310  1.0000
  C   C95       1.0  0.77940  0.40970  0.95310  1.0000
  C   C96       1.0  0.72060  0.90970  0.54690  1.0000
  H   H77       1.0  0.27600  0.59490  0.07460  1.0000
  H   H78       1.0  0.22400  0.09490  0.42540  1.0000
  H   H79       1.0  0.72400  0.40510  0.92540  1.0000
  H   H80       1.0  0.77600  0.90510  0.57460  1.0000
  O   O153      1.0  0.31430  0.34460  0.76870  1.0000
  O   O154      1.0  0.18570  0.84460  0.73130  1.0000
  O   O155      1.0  0.68570  0.65540  0.23130  1.0000
  O   O156      1.0  0.81430  0.15540  0.26870  1.0000
  O   O157      1.0  0.28590  0.09400  0.79780  1.0000
  O   O158      1.0  0.21410  0.59400  0.70220  1.0000
  O   O159      1.0  0.71410  0.90600  0.20220  1.0000
  O   O160      1.0  0.78590  0.40600  0.29780  1.0000
  O   O161      1.0  0.69460  0.13000  0.79650  1.0000
  O   O162      1.0  0.80540  0.63000  0.70350  1.0000
  O   O163      1.0  0.30540  0.87000  0.20350  1.0000
  O   O164      1.0  0.19460  0.37000  0.29650  1.0000
  O   O165      1.0  0.66180  0.25000  0.98400  1.0000
  O   O166      1.0  0.83820  0.75000  0.51600  1.0000
  O   O167      1.0  0.33820  0.75000  0.01600  1.0000
  O   O168      1.0  0.16180  0.25000  0.48400  1.0000
