data_image0
_chemical_formula_structural       Cr2Co2O26H4O2H2C14H6
_chemical_formula_sum              "Cr2 Co2 O28 H12 C14"
_cell_length_a       9.085
_cell_length_b       13.921
_cell_length_c       10.159
_cell_angle_alpha    90
_cell_angle_beta     115.178
_cell_angle_gamma    90

_space_group_name_H-M_alt    "P 1"
_space_group_IT_number       1

loop_
  _space_group_symop_operation_xyz
  'x, y, z'

loop_
  _atom_site_type_symbol
  _atom_site_label
  _atom_site_symmetry_multiplicity
  _atom_site_fract_x
  _atom_site_fract_y
  _atom_site_fract_z
  _atom_site_occupancy
  Cr  Cr1       1.0  0.07854  0.29428  0.72375  1.0000
  Cr  Cr2       1.0  0.92146  0.79428  0.27625  1.0000
  Co  Co1       1.0  0.54765  0.09805  0.66253  1.0000
  Co  Co2       1.0  0.45235  0.59805  0.33747  1.0000
  O   O1        1.0  0.20170  0.30100  0.60450  1.0000
  O   O2        1.0  0.79830  0.80100  0.39550  1.0000
  O   O3        1.0  0.22540  0.18490  0.81680  1.0000
  O   O4        1.0  0.77460  0.68490  0.18320  1.0000
  O   O5        1.0  0.38980  0.21580  0.56620  1.0000
  O   O6        1.0  0.61020  0.71580  0.43380  1.0000
  O   O7        1.0  0.41290  0.09620  0.78570  1.0000
  O   O8        1.0  0.58710  0.59620  0.21430  1.0000
  O   O9        1.0  0.92250  0.20290  0.58450  1.0000
  O   O10       1.0  0.07750  0.70290  0.41550  1.0000
  O   O11       1.0  0.94150  0.27390  0.83080  1.0000
  O   O12       1.0  0.05850  0.77390  0.16920  1.0000
  O   O13       1.0  0.70450  0.11630  0.56150  1.0000
  O   O14       1.0  0.29550  0.61630  0.43850  1.0000
  O   O15       1.0  0.71080  0.20210  0.80240  1.0000
  O   O16       1.0  0.28920  0.70210  0.19760  1.0000
  O   O17       1.0  0.94830  0.40590  0.62920  1.0000
  O   O18       1.0  0.05170  0.90590  0.37080  1.0000
  O   O19       1.0  0.21260  0.38820  0.86780  1.0000
  O   O20       1.0  0.78740  0.88820  0.13220  1.0000
  O   O21       1.0  0.91680  0.55950  0.67050  1.0000
  O   O22       1.0  0.08320  0.05950  0.32950  1.0000
  O   O23       1.0  0.20220  0.54070  0.93010  1.0000
  O   O24       1.0  0.79780  0.04070  0.06990  1.0000
  O   O25       1.0  0.68550  0.98730  0.78590  1.0000
  O   O26       1.0  0.31450  0.48730  0.21410  1.0000
  H   H1        1.0  0.71600  0.00000  0.87400  1.0000
  H   H2        1.0  0.28400  0.50000  0.12600  1.0000
  H   H3        1.0  0.77100  0.98600  0.77500  1.0000
  H   H4        1.0  0.22900  0.48600  0.22500  1.0000
  O   O27       1.0  0.39500  0.01280  0.50170  1.0000
  O   O28       1.0  0.60500  0.51280  0.49830  1.0000
  H   H5        1.0  0.28470  0.03270  0.45350  1.0000
  H   H6        1.0  0.71530  0.53270  0.54650  1.0000
  C   C1        1.0  0.30320  0.23210  0.63060  1.0000
  C   C2        1.0  0.69680  0.73210  0.36940  1.0000
  C   C3        1.0  0.31770  0.16480  0.75640  1.0000
  C   C4        1.0  0.68230  0.66480  0.24360  1.0000
  C   C5        1.0  0.81700  0.17430  0.62440  1.0000
  C   C6        1.0  0.18300  0.67430  0.37560  1.0000
  C   C7        1.0  0.82120  0.22110  0.76490  1.0000
  C   C8        1.0  0.17880  0.72110  0.23510  1.0000
  C   C9        1.0  0.99170  0.48350  0.70160  1.0000
  C   C10       1.0  0.00830  0.98350  0.29840  1.0000
  C   C11       1.0  0.14940  0.47340  0.84450  1.0000
  C   C12       1.0  0.85060  0.97340  0.15550  1.0000
  C   C13       1.0  0.43890  0.92450  0.45390  1.0000
  C   C14       1.0  0.56110  0.42450  0.54610  1.0000
  H   H7        1.0  0.55740  0.92130  0.48940  1.0000
  H   H8        1.0  0.44260  0.42130  0.51060  1.0000
  H   H9        1.0  0.38800  0.92220  0.34740  1.0000
  H   H10       1.0  0.61200  0.42220  0.65260  1.0000
  H   H11       1.0  0.40120  0.87000  0.49230  1.0000
  H   H12       1.0  0.59880  0.37000  0.50770  1.0000
