data_image0
_chemical_formula_structural       Cr2Zn2O26H4O2H2C14H6
_chemical_formula_sum              "Cr2 Zn2 O28 H12 C14"
_cell_length_a       8.75
_cell_length_b       13.866
_cell_length_c       10.267
_cell_angle_alpha    90
_cell_angle_beta     113.271
_cell_angle_gamma    90

_space_group_name_H-M_alt    "P 1"
_space_group_IT_number       1

loop_
  _space_group_symop_operation_xyz
  'x, y, z'

loop_
  _atom_site_type_symbol
  _atom_site_label
  _atom_site_symmetry_multiplicity
  _atom_site_fract_x
  _atom_site_fract_y
  _atom_site_fract_z
  _atom_site_occupancy
  Cr  Cr1       1.0  0.03183  0.26682  0.20044  1.0000
  Cr  Cr2       1.0  0.96817  0.76682  0.79956  1.0000
  Zn  Zn1       1.0  0.51394  0.48502  0.16482  1.0000
  Zn  Zn2       1.0  0.48606  0.98502  0.83518  1.0000
  O   O1        1.0  0.15640  0.38600  0.28800  1.0000
  O   O2        1.0  0.84360  0.88600  0.71200  1.0000
  O   O3        1.0  0.17010  0.27150  0.08880  1.0000
  O   O4        1.0  0.82990  0.77150  0.91120  1.0000
  O   O5        1.0  0.35310  0.48140  0.26930  1.0000
  O   O6        1.0  0.64690  0.98140  0.73070  1.0000
  O   O7        1.0  0.35820  0.36720  0.05670  1.0000
  O   O8        1.0  0.64180  0.86720  0.94330  1.0000
  O   O9        1.0  0.86120  0.35050  0.06110  1.0000
  O   O10       1.0  0.13880  0.85050  0.93890  1.0000
  O   O11       1.0  0.88570  0.28170  0.30550  1.0000
  O   O12       1.0  0.11430  0.78170  0.69450  1.0000
  O   O13       1.0  0.67000  0.45780  0.06060  1.0000
  O   O14       1.0  0.33000  0.95780  0.93940  1.0000
  O   O15       1.0  0.67110  0.37110  0.29900  1.0000
  O   O16       1.0  0.32890  0.87110  0.70100  1.0000
  O   O17       1.0  0.93190  0.14420  0.11560  1.0000
  O   O18       1.0  0.06810  0.64420  0.88440  1.0000
  O   O19       1.0  0.18670  0.18460  0.34720  1.0000
  O   O20       1.0  0.81330  0.68460  0.65280  1.0000
  O   O21       1.0  0.98440  0.98610  0.13990  1.0000
  O   O22       1.0  0.01560  0.48610  0.86010  1.0000
  O   O23       1.0  0.23200  0.03000  0.40990  1.0000
  O   O24       1.0  0.76800  0.53000  0.59010  1.0000
  O   O25       1.0  0.65340  0.58600  0.30590  1.0000
  O   O26       1.0  0.34660  0.08600  0.69410  1.0000
  H   H1        1.0  0.73900  0.60200  0.29300  1.0000
  H   H2        1.0  0.26100  0.10200  0.70700  1.0000
  H   H3        1.0  0.68300  0.56900  0.39000  1.0000
  H   H4        1.0  0.31700  0.06900  0.61000  1.0000
  O   O27       1.0  0.39360  0.59050  0.02110  1.0000
  O   O28       1.0  0.60640  0.09050  0.97890  1.0000
  H   H5        1.0  0.27570  0.58820  0.97560  1.0000
  H   H6        1.0  0.72430  0.08820  0.02440  1.0000
  C   C1        1.0  0.25870  0.41040  0.23390  1.0000
  C   C2        1.0  0.74130  0.91040  0.76610  1.0000
  C   C3        1.0  0.26510  0.34490  0.11590  1.0000
  C   C4        1.0  0.73490  0.84490  0.88410  1.0000
  C   C5        1.0  0.76640  0.38880  0.11230  1.0000
  C   C6        1.0  0.23360  0.88880  0.88770  1.0000
  C   C7        1.0  0.77270  0.34410  0.25080  1.0000
  C   C8        1.0  0.22730  0.84410  0.74920  1.0000
  C   C9        1.0  0.01600  0.06820  0.18130  1.0000
  C   C10       1.0  0.98400  0.56820  0.81870  1.0000
  C   C11       1.0  0.15930  0.09240  0.32700  1.0000
  C   C12       1.0  0.84070  0.59240  0.67300  1.0000
  C   C13       1.0  0.47950  0.66730  0.98650  1.0000
  C   C14       1.0  0.52050  0.16730  0.01350  1.0000
  H   H7        1.0  0.48050  0.72420  0.04360  1.0000
  H   H8        1.0  0.51950  0.22420  0.95640  1.0000
  H   H9        1.0  0.42280  0.68310  0.88570  1.0000
  H   H10       1.0  0.57720  0.18310  0.11430  1.0000
  H   H11       1.0  0.59400  0.64740  0.00660  1.0000
  H   H12       1.0  0.40600  0.14740  0.99340  1.0000
