data_image0
_chemical_formula_structural       Cr2Zn2O26H4O2H2C14H6
_chemical_formula_sum              "Cr2 Zn2 O28 H12 C14"
_cell_length_a       9.039
_cell_length_b       13.961
_cell_length_c       10.216
_cell_angle_alpha    90
_cell_angle_beta     114.888
_cell_angle_gamma    90

_space_group_name_H-M_alt    "P 1"
_space_group_IT_number       1

loop_
  _space_group_symop_operation_xyz
  'x, y, z'

loop_
  _atom_site_type_symbol
  _atom_site_label
  _atom_site_symmetry_multiplicity
  _atom_site_fract_x
  _atom_site_fract_y
  _atom_site_fract_z
  _atom_site_occupancy
  Cr  Cr1       1.0  0.08064  0.05175  0.22452  1.0000
  Cr  Cr2       1.0  0.91936  0.55175  0.77548  1.0000
  Zn  Zn1       1.0  0.54863  0.25185  0.16200  1.0000
  Zn  Zn2       1.0  0.45137  0.75185  0.83800  1.0000
  O   O1        1.0  0.22610  0.16060  0.31740  1.0000
  O   O2        1.0  0.77390  0.66060  0.68260  1.0000
  O   O3        1.0  0.20630  0.04670  0.10540  1.0000
  O   O4        1.0  0.79370  0.54670  0.89460  1.0000
  O   O5        1.0  0.41320  0.25140  0.28580  1.0000
  O   O6        1.0  0.58680  0.75140  0.71420  1.0000
  O   O7        1.0  0.39220  0.13380  0.06680  1.0000
  O   O8        1.0  0.60780  0.63380  0.93320  1.0000
  O   O9        1.0  0.92330  0.14230  0.08680  1.0000
  O   O10       1.0  0.07670  0.64230  0.91320  1.0000
  O   O11       1.0  0.94470  0.07170  0.33300  1.0000
  O   O12       1.0  0.05530  0.57170  0.66700  1.0000
  O   O13       1.0  0.70490  0.22940  0.06300  1.0000
  O   O14       1.0  0.29510  0.72940  0.93700  1.0000
  O   O15       1.0  0.71550  0.14640  0.30750  1.0000
  O   O16       1.0  0.28450  0.64640  0.69250  1.0000
  O   O17       1.0  0.95050  0.94060  0.13020  1.0000
  O   O18       1.0  0.04950  0.44060  0.86980  1.0000
  O   O19       1.0  0.21540  0.95730  0.36680  1.0000
  O   O20       1.0  0.78460  0.45730  0.63320  1.0000
  O   O21       1.0  0.91750  0.78850  0.17460  1.0000
  O   O22       1.0  0.08250  0.28850  0.82540  1.0000
  O   O23       1.0  0.20470  0.80660  0.43130  1.0000
  O   O24       1.0  0.79530  0.30660  0.56870  1.0000
  O   O25       1.0  0.68100  0.36010  0.28630  1.0000
  O   O26       1.0  0.31900  0.86010  0.71370  1.0000
  H   H1        1.0  0.76700  0.37400  0.27900  1.0000
  H   H2        1.0  0.23300  0.87400  0.72100  1.0000
  H   H3        1.0  0.69900  0.34000  0.36700  1.0000
  H   H4        1.0  0.30100  0.84000  0.63300  1.0000
  O   O27       1.0  0.39800  0.33760  0.00130  1.0000
  O   O28       1.0  0.60200  0.83760  0.99870  1.0000
  H   H5        1.0  0.28810  0.31720  0.95130  1.0000
  H   H6        1.0  0.71190  0.81720  0.04870  1.0000
  C   C1        1.0  0.31830  0.18390  0.25610  1.0000
  C   C2        1.0  0.68170  0.68390  0.74390  1.0000
  C   C3        1.0  0.30630  0.11580  0.13110  1.0000
  C   C4        1.0  0.69370  0.61580  0.86890  1.0000
  C   C5        1.0  0.81510  0.17080  0.12610  1.0000
  C   C6        1.0  0.18490  0.67080  0.87390  1.0000
  C   C7        1.0  0.82570  0.12710  0.26900  1.0000
  C   C8        1.0  0.17430  0.62710  0.73100  1.0000
  C   C9        1.0  0.99220  0.86270  0.20260  1.0000
  C   C10       1.0  0.00780  0.36270  0.79740  1.0000
  C   C11       1.0  0.15170  0.87410  0.34690  1.0000
  C   C12       1.0  0.84830  0.37410  0.65310  1.0000
  C   C13       1.0  0.44140  0.42500  0.95670  1.0000
  C   C14       1.0  0.55860  0.92500  0.04330  1.0000
  H   H7        1.0  0.40370  0.47870  0.99660  1.0000
  H   H8        1.0  0.59630  0.97870  0.00340  1.0000
  H   H9        1.0  0.39030  0.42860  0.85110  1.0000
  H   H10       1.0  0.60970  0.92860  0.14890  1.0000
  H   H11       1.0  0.56020  0.42830  0.99150  1.0000
  H   H12       1.0  0.43980  0.92830  0.00850  1.0000
