data_image0
_chemical_formula_structural       C16Cu16I16N16Ni4S24
_chemical_formula_sum              "C16 Cu16 I16 N16 Ni4 S24"
_cell_length_a       12.8054
_cell_length_b       25.129
_cell_length_c       17.3174
_cell_angle_alpha    90
_cell_angle_beta     94.65
_cell_angle_gamma    90

_space_group_name_H-M_alt    "P 1"
_space_group_IT_number       1

loop_
  _space_group_symop_operation_xyz
  'x, y, z'

loop_
  _atom_site_type_symbol
  _atom_site_label
  _atom_site_symmetry_multiplicity
  _atom_site_fract_x
  _atom_site_fract_y
  _atom_site_fract_z
  _atom_site_occupancy
  C   C1        1.0  0.86970  0.79620  0.05660  1.0000
  C   C2        1.0  0.13030  0.29620  0.44340  1.0000
  C   C3        1.0  0.13030  0.20380  0.94340  1.0000
  C   C4        1.0  0.86970  0.70380  0.55660  1.0000
  C   C5        1.0  0.77950  0.79280  0.09960  1.0000
  C   C6        1.0  0.22050  0.29280  0.40040  1.0000
  C   C7        1.0  0.22050  0.20720  0.90040  1.0000
  C   C8        1.0  0.77950  0.70720  0.59960  1.0000
  C   C9        1.0  0.14330  0.79090  0.34570  1.0000
  C   C10       1.0  0.85670  0.29090  0.15430  1.0000
  C   C11       1.0  0.85670  0.20910  0.65430  1.0000
  C   C12       1.0  0.14330  0.70910  0.84570  1.0000
  C   C13       1.0  0.05190  0.79290  0.38950  1.0000
  C   C14       1.0  0.94810  0.29290  0.11050  1.0000
  C   C15       1.0  0.94810  0.20710  0.61050  1.0000
  C   C16       1.0  0.05190  0.70710  0.88950  1.0000
  Cu  Cu1       1.0  0.09196  0.67957  0.27457  1.0000
  Cu  Cu2       1.0  0.90804  0.17957  0.22543  1.0000
  Cu  Cu3       1.0  0.90804  0.32043  0.72543  1.0000
  Cu  Cu4       1.0  0.09196  0.82043  0.77457  1.0000
  Cu  Cu5       1.0  0.93096  0.68486  0.38647  1.0000
  Cu  Cu6       1.0  0.06904  0.18486  0.11353  1.0000
  Cu  Cu7       1.0  0.06904  0.31514  0.61353  1.0000
  Cu  Cu8       1.0  0.93096  0.81514  0.88647  1.0000
  Cu  Cu9       1.0  0.82846  0.68211  0.17262  1.0000
  Cu  Cu10      1.0  0.17154  0.18211  0.32738  1.0000
  Cu  Cu11      1.0  0.17154  0.31789  0.82738  1.0000
  Cu  Cu12      1.0  0.82846  0.81789  0.67262  1.0000
  Cu  Cu13      1.0  0.98963  0.68907  0.05922  1.0000
  Cu  Cu14      1.0  0.01037  0.18907  0.44078  1.0000
  Cu  Cu15      1.0  0.01037  0.31093  0.94078  1.0000
  Cu  Cu16      1.0  0.98963  0.81093  0.55922  1.0000
  I   I1        1.0  0.10693  0.62447  0.15287  1.0000
  I   I2        1.0  0.89307  0.12447  0.34713  1.0000
  I   I3        1.0  0.89307  0.37553  0.84713  1.0000
  I   I4        1.0  0.10693  0.87553  0.65287  1.0000
  I   I5        1.0  0.11709  0.64461  0.41208  1.0000
  I   I6        1.0  0.88291  0.14461  0.08792  1.0000
  I   I7        1.0  0.88291  0.35539  0.58792  1.0000
  I   I8        1.0  0.11709  0.85539  0.91208  1.0000
  I   I9        1.0  0.81274  0.62237  0.28952  1.0000
  I   I10       1.0  0.18726  0.12237  0.21048  1.0000
  I   I11       1.0  0.18726  0.37763  0.71048  1.0000
  I   I12       1.0  0.81274  0.87763  0.78952  1.0000
  I   I13       1.0  0.79835  0.65531  0.03091  1.0000
  I   I14       1.0  0.20165  0.15531  0.46909  1.0000
  I   I15       1.0  0.20165  0.34469  0.96909  1.0000
  I   I16       1.0  0.79835  0.84469  0.53091  1.0000
  N   N1        1.0  0.84790  0.81250  0.98450  1.0000
  N   N2        1.0  0.15210  0.31250  0.51550  1.0000
  N   N3        1.0  0.15210  0.18750  0.01550  1.0000
  N   N4        1.0  0.84790  0.68750  0.48450  1.0000
  N   N5        1.0  0.69150  0.80710  0.06140  1.0000
  N   N6        1.0  0.30850  0.30710  0.43860  1.0000
  N   N7        1.0  0.30850  0.19290  0.93860  1.0000
  N   N8        1.0  0.69150  0.69290  0.56140  1.0000
  N   N9        1.0  0.22860  0.80830  0.38340  1.0000
  N   N10       1.0  0.77140  0.30830  0.11660  1.0000
  N   N11       1.0  0.77140  0.19170  0.61660  1.0000
  N   N12       1.0  0.22860  0.69170  0.88340  1.0000
  N   N13       1.0  0.07250  0.81120  0.46020  1.0000
  N   N14       1.0  0.92750  0.31120  0.03980  1.0000
  N   N15       1.0  0.92750  0.18880  0.53980  1.0000
  N   N16       1.0  0.07250  0.68880  0.96020  1.0000
  Ni  Ni1       1.0  0.96197  0.77028  0.22246  1.0000
  Ni  Ni2       1.0  0.03803  0.27028  0.27754  1.0000
  Ni  Ni3       1.0  0.03803  0.22972  0.77754  1.0000
  Ni  Ni4       1.0  0.96197  0.72972  0.72246  1.0000
  S   S1        1.0  0.99365  0.77929  0.09893  1.0000
  S   S2        1.0  0.00635  0.27929  0.40107  1.0000
  S   S3        1.0  0.00635  0.22071  0.90107  1.0000
  S   S4        1.0  0.99365  0.72071  0.59893  1.0000
  S   S5        1.0  0.79117  0.77119  0.19605  1.0000
  S   S6        1.0  0.20883  0.27119  0.30395  1.0000
  S   S7        1.0  0.20883  0.22881  0.80395  1.0000
  S   S8        1.0  0.79117  0.72881  0.69605  1.0000
  S   S9        1.0  0.13362  0.76752  0.25061  1.0000
  S   S10       1.0  0.86638  0.26752  0.24939  1.0000
  S   S11       1.0  0.86638  0.23248  0.74939  1.0000
  S   S12       1.0  0.13362  0.73248  0.75061  1.0000
  S   S13       1.0  0.92993  0.77436  0.34670  1.0000
  S   S14       1.0  0.07007  0.27436  0.15330  1.0000
  S   S15       1.0  0.07007  0.22564  0.65330  1.0000
  S   S16       1.0  0.92993  0.72564  0.84670  1.0000
  S   S17       1.0  0.71967  0.82320  0.97352  1.0000
  S   S18       1.0  0.28033  0.32320  0.52648  1.0000
  S   S19       1.0  0.28033  0.17680  0.02648  1.0000
  S   S20       1.0  0.71967  0.67680  0.47352  1.0000
  S   S21       1.0  0.19956  0.82532  0.47088  1.0000
  S   S22       1.0  0.80044  0.32532  0.02912  1.0000
  S   S23       1.0  0.80044  0.17468  0.52912  1.0000
  S   S24       1.0  0.19956  0.67468  0.97088  1.0000
