data_image0
_chemical_formula_structural       C16Cu16I16N16Pt4S24
_chemical_formula_sum              "C16 Cu16 I16 N16 Pt4 S24"
_cell_length_a       12.786
_cell_length_b       24.984
_cell_length_c       17.538
_cell_angle_alpha    90
_cell_angle_beta     94.467
_cell_angle_gamma    90

_space_group_name_H-M_alt    "P 1"
_space_group_IT_number       1

loop_
  _space_group_symop_operation_xyz
  'x, y, z'

loop_
  _atom_site_type_symbol
  _atom_site_label
  _atom_site_symmetry_multiplicity
  _atom_site_fract_x
  _atom_site_fract_y
  _atom_site_fract_z
  _atom_site_occupancy
  C   C1        1.0  0.35820  0.20200  0.15360  1.0000
  C   C2        1.0  0.64180  0.70200  0.34640  1.0000
  C   C3        1.0  0.64180  0.79800  0.84640  1.0000
  C   C4        1.0  0.35820  0.29800  0.65360  1.0000
  C   C5        1.0  0.44970  0.20490  0.11230  1.0000
  C   C6        1.0  0.55030  0.70490  0.38770  1.0000
  C   C7        1.0  0.55030  0.79510  0.88770  1.0000
  C   C8        1.0  0.44970  0.29510  0.61230  1.0000
  C   C9        1.0  0.63840  0.20140  0.44900  1.0000
  C   C10       1.0  0.36160  0.70140  0.05100  1.0000
  C   C11       1.0  0.36160  0.79860  0.55100  1.0000
  C   C12       1.0  0.63840  0.29860  0.94900  1.0000
  C   C13       1.0  0.72730  0.20690  0.40580  1.0000
  C   C14       1.0  0.27270  0.70690  0.09420  1.0000
  C   C15       1.0  0.27270  0.79310  0.59420  1.0000
  C   C16       1.0  0.72730  0.29310  0.90580  1.0000
  Cu  Cu1       1.0  0.51700  0.31073  0.44601  1.0000
  Cu  Cu2       1.0  0.48300  0.81073  0.05399  1.0000
  Cu  Cu3       1.0  0.48300  0.68927  0.55399  1.0000
  Cu  Cu4       1.0  0.51700  0.18927  0.94601  1.0000
  Cu  Cu5       1.0  0.67640  0.31562  0.32954  1.0000
  Cu  Cu6       1.0  0.32360  0.81562  0.17046  1.0000
  Cu  Cu7       1.0  0.32360  0.68438  0.67046  1.0000
  Cu  Cu8       1.0  0.67640  0.18438  0.82954  1.0000
  Cu  Cu9       1.0  0.57390  0.31481  0.11526  1.0000
  Cu  Cu10      1.0  0.42610  0.81481  0.38474  1.0000
  Cu  Cu11      1.0  0.42610  0.68519  0.88474  1.0000
  Cu  Cu12      1.0  0.57390  0.18519  0.61526  1.0000
  Cu  Cu13      1.0  0.41280  0.31832  0.22991  1.0000
  Cu  Cu14      1.0  0.58720  0.81832  0.27009  1.0000
  Cu  Cu15      1.0  0.58720  0.68168  0.77009  1.0000
  Cu  Cu16      1.0  0.41280  0.18168  0.72991  1.0000
  I   I1        1.0  0.39667  0.37240  0.35053  1.0000
  I   I2        1.0  0.60333  0.87240  0.14947  1.0000
  I   I3        1.0  0.60333  0.62760  0.64947  1.0000
  I   I4        1.0  0.39667  0.12760  0.85053  1.0000
  I   I5        1.0  0.70876  0.34339  0.46850  1.0000
  I   I6        1.0  0.29124  0.84339  0.03150  1.0000
  I   I7        1.0  0.29124  0.65661  0.53150  1.0000
  I   I8        1.0  0.70876  0.15661  0.96850  1.0000
  I   I9        1.0  0.69320  0.37478  0.21402  1.0000
  I   I10       1.0  0.30680  0.87478  0.28598  1.0000
  I   I11       1.0  0.30680  0.62522  0.78598  1.0000
  I   I12       1.0  0.69320  0.12522  0.71402  1.0000
  I   I13       1.0  0.38775  0.35446  0.09500  1.0000
  I   I14       1.0  0.61225  0.85446  0.40500  1.0000
  I   I15       1.0  0.61225  0.64554  0.90500  1.0000
  I   I16       1.0  0.38775  0.14554  0.59500  1.0000
  N   N1        1.0  0.27590  0.18900  0.11740  1.0000
  N   N2        1.0  0.72410  0.68900  0.38260  1.0000
  N   N3        1.0  0.72410  0.81100  0.88260  1.0000
  N   N4        1.0  0.27590  0.31100  0.61740  1.0000
  N   N5        1.0  0.43110  0.18690  0.04150  1.0000
  N   N6        1.0  0.56890  0.68690  0.45850  1.0000
  N   N7        1.0  0.56890  0.81310  0.95850  1.0000
  N   N8        1.0  0.43110  0.31310  0.54150  1.0000
  N   N9        1.0  0.66000  0.18540  0.51940  1.0000
  N   N10       1.0  0.34000  0.68540  0.98060  1.0000
  N   N11       1.0  0.34000  0.81460  0.48060  1.0000
  N   N12       1.0  0.66000  0.31460  0.01940  1.0000
  N   N13       1.0  0.81430  0.18830  0.44400  1.0000
  N   N14       1.0  0.18570  0.68830  0.05600  1.0000
  N   N15       1.0  0.18570  0.81170  0.55600  1.0000
  N   N16       1.0  0.81430  0.31170  0.94400  1.0000
  Pt  Pt1       1.0  0.54383  0.22690  0.28091  1.0000
  Pt  Pt2       1.0  0.45617  0.72690  0.21909  1.0000
  Pt  Pt3       1.0  0.45617  0.77310  0.71909  1.0000
  Pt  Pt4       1.0  0.54383  0.27310  0.78091  1.0000
  S   S1        1.0  0.36510  0.22890  0.24960  1.0000
  S   S2        1.0  0.63490  0.72890  0.25040  1.0000
  S   S3        1.0  0.63490  0.77110  0.75040  1.0000
  S   S4        1.0  0.36510  0.27110  0.74960  1.0000
  S   S5        1.0  0.57520  0.22430  0.15250  1.0000
  S   S6        1.0  0.42480  0.72430  0.34750  1.0000
  S   S7        1.0  0.42480  0.77570  0.84750  1.0000
  S   S8        1.0  0.57520  0.27570  0.65250  1.0000
  S   S9        1.0  0.51370  0.21914  0.40900  1.0000
  S   S10       1.0  0.48630  0.71914  0.09100  1.0000
  S   S11       1.0  0.48630  0.78086  0.59100  1.0000
  S   S12       1.0  0.51370  0.28086  0.90900  1.0000
  S   S13       1.0  0.72250  0.22400  0.31090  1.0000
  S   S14       1.0  0.27750  0.72400  0.18910  1.0000
  S   S15       1.0  0.27750  0.77600  0.68910  1.0000
  S   S16       1.0  0.72250  0.27600  0.81090  1.0000
  S   S17       1.0  0.78750  0.17470  0.53160  1.0000
  S   S18       1.0  0.21250  0.67470  0.96840  1.0000
  S   S19       1.0  0.21250  0.82530  0.46840  1.0000
  S   S20       1.0  0.78750  0.32530  0.03160  1.0000
  S   S21       1.0  0.30570  0.17270  0.03090  1.0000
  S   S22       1.0  0.69430  0.67270  0.46910  1.0000
  S   S23       1.0  0.69430  0.82730  0.96910  1.0000
  S   S24       1.0  0.30570  0.32730  0.53090  1.0000
