data_image0
_chemical_formula_structural       Co4P8O12H4O16H4C8H12
_chemical_formula_sum              "Co4 P8 O28 H20 C8"
_cell_length_a       5.4868
_cell_length_b       12.9116
_cell_length_c       15.251
_cell_angle_alpha    90
_cell_angle_beta     98.843
_cell_angle_gamma    90

_space_group_name_H-M_alt    "P 1"
_space_group_IT_number       1

loop_
  _space_group_symop_operation_xyz
  'x, y, z'

loop_
  _atom_site_type_symbol
  _atom_site_label
  _atom_site_symmetry_multiplicity
  _atom_site_fract_x
  _atom_site_fract_y
  _atom_site_fract_z
  _atom_site_occupancy
  Co  Co1       1.0  0.10328  0.46809  0.40845  1.0000
  Co  Co2       1.0  0.89672  0.96809  0.09155  1.0000
  Co  Co3       1.0  0.89672  0.53191  0.59155  1.0000
  Co  Co4       1.0  0.10328  0.03191  0.90845  1.0000
  P   P1        1.0  0.59522  0.38220  0.32365  1.0000
  P   P2        1.0  0.40478  0.88220  0.17635  1.0000
  P   P3        1.0  0.40478  0.61780  0.67635  1.0000
  P   P4        1.0  0.59522  0.11780  0.82365  1.0000
  P   P5        1.0  0.60240  0.60141  0.38878  1.0000
  P   P6        1.0  0.39760  0.10141  0.11122  1.0000
  P   P7        1.0  0.39760  0.39859  0.61122  1.0000
  P   P8        1.0  0.60240  0.89859  0.88878  1.0000
  O   O1        1.0  0.82120  0.35888  0.39142  1.0000
  O   O2        1.0  0.17880  0.85888  0.10858  1.0000
  O   O3        1.0  0.17880  0.64112  0.60858  1.0000
  O   O4        1.0  0.82120  0.14112  0.89142  1.0000
  O   O5        1.0  0.34700  0.36847  0.35300  1.0000
  O   O6        1.0  0.65300  0.86847  0.14700  1.0000
  O   O7        1.0  0.65300  0.63153  0.64700  1.0000
  O   O8        1.0  0.34700  0.13153  0.85300  1.0000
  O   O9        1.0  0.61950  0.31924  0.23983  1.0000
  O   O10       1.0  0.38050  0.81924  0.26017  1.0000
  O   O11       1.0  0.38050  0.68076  0.76017  1.0000
  O   O12       1.0  0.61950  0.18076  0.73983  1.0000
  H   H1        1.0  0.52800  0.29000  0.20500  1.0000
  H   H2        1.0  0.47200  0.79000  0.29500  1.0000
  H   H3        1.0  0.47200  0.71000  0.79500  1.0000
  H   H4        1.0  0.52800  0.21000  0.70500  1.0000
  O   O13       1.0  0.81370  0.56672  0.45943  1.0000
  O   O14       1.0  0.18630  0.06672  0.04057  1.0000
  O   O15       1.0  0.18630  0.43328  0.54057  1.0000
  O   O16       1.0  0.81370  0.93328  0.95943  1.0000
  O   O17       1.0  0.34400  0.58914  0.40936  1.0000
  O   O18       1.0  0.65600  0.08914  0.09064  1.0000
  O   O19       1.0  0.65600  0.41086  0.59064  1.0000
  O   O20       1.0  0.34400  0.91086  0.90936  1.0000
  O   O21       1.0  0.65270  0.71453  0.36535  1.0000
  O   O22       1.0  0.34730  0.21453  0.13465  1.0000
  O   O23       1.0  0.34730  0.28547  0.63465  1.0000
  O   O24       1.0  0.65270  0.78547  0.86535  1.0000
  O   O25       1.0  0.89400  0.52337  0.28239  1.0000
  O   O26       1.0  0.10600  0.02337  0.21761  1.0000
  O   O27       1.0  0.10600  0.47663  0.71761  1.0000
  O   O28       1.0  0.89400  0.97663  0.78239  1.0000
  H   H5        1.0  0.89900  0.58200  0.25800  1.0000
  H   H6        1.0  0.10100  0.08200  0.24200  1.0000
  H   H7        1.0  0.10100  0.41800  0.74200  1.0000
  H   H8        1.0  0.89900  0.91800  0.75800  1.0000
  C   C1        1.0  0.63550  0.51830  0.29361  1.0000
  C   C2        1.0  0.36450  0.01830  0.20639  1.0000
  C   C3        1.0  0.36450  0.48170  0.70639  1.0000
  C   C4        1.0  0.63550  0.98170  0.79361  1.0000
  C   C5        1.0  0.46580  0.54750  0.20846  1.0000
  C   C6        1.0  0.53420  0.04750  0.29154  1.0000
  C   C7        1.0  0.53420  0.45250  0.79154  1.0000
  C   C8        1.0  0.46580  0.95250  0.70846  1.0000
  H   H9        1.0  0.49150  0.61880  0.19470  1.0000
  H   H10       1.0  0.50850  0.11880  0.30530  1.0000
  H   H11       1.0  0.50850  0.38120  0.80530  1.0000
  H   H12       1.0  0.49150  0.88120  0.69470  1.0000
  H   H13       1.0  0.29720  0.53750  0.21640  1.0000
  H   H14       1.0  0.70280  0.03750  0.28360  1.0000
  H   H15       1.0  0.70280  0.46250  0.78360  1.0000
  H   H16       1.0  0.29720  0.96250  0.71640  1.0000
  H   H17       1.0  0.50180  0.50460  0.16070  1.0000
  H   H18       1.0  0.49820  0.00460  0.33930  1.0000
  H   H19       1.0  0.49820  0.49540  0.83930  1.0000
  H   H20       1.0  0.50180  0.99540  0.66070  1.0000
