data_image0
_chemical_formula_structural       Co4P8O12H4O16H4C8H12
_chemical_formula_sum              "Co4 P8 O28 H20 C8"
_cell_length_a       5.4757
_cell_length_b       12.774
_cell_length_c       15.794
_cell_angle_alpha    90
_cell_angle_beta     98.797
_cell_angle_gamma    90

_space_group_name_H-M_alt    "P 1"
_space_group_IT_number       1

loop_
  _space_group_symop_operation_xyz
  'x, y, z'

loop_
  _atom_site_type_symbol
  _atom_site_label
  _atom_site_symmetry_multiplicity
  _atom_site_fract_x
  _atom_site_fract_y
  _atom_site_fract_z
  _atom_site_occupancy
  Co  Co1       1.0  0.10755  0.45236  0.41472  1.0000
  Co  Co2       1.0  0.89245  0.95236  0.08528  1.0000
  Co  Co3       1.0  0.89245  0.54764  0.58528  1.0000
  Co  Co4       1.0  0.10755  0.04764  0.91472  1.0000
  P   P1        1.0  0.60267  0.35752  0.33972  1.0000
  P   P2        1.0  0.39733  0.85752  0.16028  1.0000
  P   P3        1.0  0.39733  0.64248  0.66028  1.0000
  P   P4        1.0  0.60267  0.14248  0.83972  1.0000
  P   P5        1.0  0.60002  0.58524  0.38461  1.0000
  P   P6        1.0  0.39998  0.08524  0.11539  1.0000
  P   P7        1.0  0.39998  0.41476  0.61539  1.0000
  P   P8        1.0  0.60002  0.91476  0.88461  1.0000
  O   O1        1.0  0.82970  0.34220  0.40627  1.0000
  O   O2        1.0  0.17030  0.84220  0.09373  1.0000
  O   O3        1.0  0.17030  0.65780  0.59373  1.0000
  O   O4        1.0  0.82970  0.15780  0.90627  1.0000
  O   O5        1.0  0.35620  0.34740  0.36990  1.0000
  O   O6        1.0  0.64380  0.84740  0.13010  1.0000
  O   O7        1.0  0.64380  0.65260  0.63010  1.0000
  O   O8        1.0  0.35620  0.15260  0.86990  1.0000
  O   O9        1.0  0.62620  0.28360  0.26470  1.0000
  O   O10       1.0  0.37380  0.78360  0.23530  1.0000
  O   O11       1.0  0.37380  0.71640  0.73530  1.0000
  O   O12       1.0  0.62620  0.21640  0.76470  1.0000
  H   H1        1.0  0.50800  0.25400  0.22600  1.0000
  H   H2        1.0  0.49200  0.75400  0.27400  1.0000
  H   H3        1.0  0.49200  0.74600  0.77400  1.0000
  H   H4        1.0  0.50800  0.24600  0.72600  1.0000
  O   O13       1.0  0.81530  0.56120  0.45443  1.0000
  O   O14       1.0  0.18470  0.06120  0.04557  1.0000
  O   O15       1.0  0.18470  0.43880  0.54557  1.0000
  O   O16       1.0  0.81530  0.93880  0.95443  1.0000
  O   O17       1.0  0.34490  0.57340  0.40701  1.0000
  O   O18       1.0  0.65510  0.07340  0.09299  1.0000
  O   O19       1.0  0.65510  0.42660  0.59299  1.0000
  O   O20       1.0  0.34490  0.92660  0.90701  1.0000
  O   O21       1.0  0.63940  0.69640  0.35178  1.0000
  O   O22       1.0  0.36060  0.19640  0.14822  1.0000
  O   O23       1.0  0.36060  0.30360  0.64822  1.0000
  O   O24       1.0  0.63940  0.80360  0.85178  1.0000
  O   O25       1.0  0.89260  0.49650  0.28754  1.0000
  O   O26       1.0  0.10740  0.99650  0.21246  1.0000
  O   O27       1.0  0.10740  0.50350  0.71246  1.0000
  O   O28       1.0  0.89260  0.00350  0.78754  1.0000
  H   H5        1.0  0.87900  0.54600  0.26200  1.0000
  H   H6        1.0  0.12100  0.04600  0.23800  1.0000
  H   H7        1.0  0.12100  0.45400  0.73800  1.0000
  H   H8        1.0  0.87900  0.95400  0.76200  1.0000
  C   C1        1.0  0.63620  0.49110  0.30040  1.0000
  C   C2        1.0  0.36380  0.99110  0.19960  1.0000
  C   C3        1.0  0.36380  0.50890  0.69960  1.0000
  C   C4        1.0  0.63620  0.00890  0.80040  1.0000
  C   C5        1.0  0.46150  0.51170  0.21690  1.0000
  C   C6        1.0  0.53850  0.01170  0.28310  1.0000
  C   C7        1.0  0.53850  0.48830  0.78310  1.0000
  C   C8        1.0  0.46150  0.98830  0.71690  1.0000
  H   H9        1.0  0.47890  0.58290  0.19950  1.0000
  H   H10       1.0  0.52110  0.08290  0.30050  1.0000
  H   H11       1.0  0.52110  0.41710  0.80050  1.0000
  H   H12       1.0  0.47890  0.91710  0.69950  1.0000
  H   H13       1.0  0.29420  0.49950  0.22570  1.0000
  H   H14       1.0  0.70580  0.99950  0.27430  1.0000
  H   H15       1.0  0.70580  0.50050  0.77430  1.0000
  H   H16       1.0  0.29420  0.00050  0.72570  1.0000
  H   H17       1.0  0.50180  0.46550  0.17320  1.0000
  H   H18       1.0  0.49820  0.96550  0.32680  1.0000
  H   H19       1.0  0.49820  0.53450  0.82680  1.0000
  H   H20       1.0  0.50180  0.03450  0.67320  1.0000
