data_image0
_chemical_formula_structural       Sm2O18H4N4C6H2C2H2C2H2C10H2C2H2C2H2C4
_chemical_formula_sum              "Sm2 O18 H16 N4 C28"
_cell_length_a       6.9138
_cell_length_b       10.8451
_cell_length_c       12.2155
_cell_angle_alpha    112.505
_cell_angle_beta     95.6993
_cell_angle_gamma    94.7594

_space_group_name_H-M_alt    "P 1"
_space_group_IT_number       1

loop_
  _space_group_symop_operation_xyz
  'x, y, z'

loop_
  _atom_site_type_symbol
  _atom_site_label
  _atom_site_symmetry_multiplicity
  _atom_site_fract_x
  _atom_site_fract_y
  _atom_site_fract_z
  _atom_site_occupancy
  Sm  Sm1       1.0  0.64745  0.17815  0.63861  1.0000
  Sm  Sm2       1.0  0.35255  0.82185  0.36139  1.0000
  O   O1        1.0  0.78478  0.20335  0.83887  1.0000
  O   O2        1.0  0.21522  0.79665  0.16113  1.0000
  O   O3        1.0  0.76440  0.25453  0.03318  1.0000
  O   O4        1.0  0.23560  0.74547  0.96682  1.0000
  O   O5        1.0  0.30968  0.21865  0.57780  1.0000
  O   O6        1.0  0.69032  0.78135  0.42220  1.0000
  O   O7        1.0  0.99908  0.22978  0.61333  1.0000
  O   O8        1.0  0.00092  0.77022  0.38667  1.0000
  O   O9        1.0  0.57606  0.04059  0.41828  1.0000
  O   O10       1.0  0.42394  0.95941  0.58172  1.0000
  O   O11       1.0  0.55351  0.02547  0.22878  1.0000
  O   O12       1.0  0.44649  0.97453  0.77122  1.0000
  O   O13       1.0  0.71369  0.41944  0.73716  1.0000
  O   O14       1.0  0.28631  0.58056  0.26284  1.0000
  O   O15       1.0  0.77993  0.62662  0.73919  1.0000
  O   O16       1.0  0.22007  0.37338  0.26081  1.0000
  O   O17       1.0  0.84170  0.98748  0.62100  1.0000
  O   O18       1.0  0.15830  0.01252  0.37900  1.0000
  H   H1        1.0  0.79300  0.91700  0.56200  1.0000
  H   H2        1.0  0.20700  0.08300  0.43800  1.0000
  H   H3        1.0  0.94800  0.99500  0.61700  1.0000
  H   H4        1.0  0.05200  0.00500  0.38300  1.0000
  N   N1        1.0  0.43052  0.26345  0.80164  1.0000
  N   N2        1.0  0.56948  0.73655  0.19836  1.0000
  N   N3        1.0  0.67289  0.30550  0.50380  1.0000
  N   N4        1.0  0.32711  0.69450  0.49620  1.0000
  C   C1        1.0  0.70090  0.24681  0.93074  1.0000
  C   C2        1.0  0.29910  0.75319  0.06926  1.0000
  C   C3        1.0  0.50440  0.29351  0.91576  1.0000
  C   C4        1.0  0.49560  0.70649  0.08424  1.0000
  C   C5        1.0  0.40720  0.36252  0.01065  1.0000
  C   C6        1.0  0.59280  0.63748  0.98935  1.0000
  H   H5        1.0  0.46180  0.38150  0.09080  1.0000
  H   H6        1.0  0.53820  0.61850  0.90920  1.0000
  C   C7        1.0  0.22870  0.40324  0.98612  1.0000
  C   C8        1.0  0.77130  0.59676  0.01388  1.0000
  H   H7        1.0  0.16140  0.45330  0.04950  1.0000
  H   H8        1.0  0.83860  0.54670  0.95050  1.0000
  C   C9        1.0  0.14950  0.36992  0.86767  1.0000
  C   C10       1.0  0.85050  0.63008  0.13233  1.0000
  H   H9        1.0  0.02710  0.39590  0.84840  1.0000
  H   H10       1.0  0.97290  0.60410  0.15160  1.0000
  C   C11       1.0  0.25450  0.29757  0.77845  1.0000
  C   C12       1.0  0.74550  0.70243  0.22155  1.0000
  C   C13       1.0  0.17920  0.24617  0.64667  1.0000
  C   C14       1.0  0.82080  0.75383  0.35333  1.0000
  C   C15       1.0  0.58850  0.09026  0.33706  1.0000
  C   C16       1.0  0.41150  0.90974  0.66294  1.0000
  C   C17       1.0  0.65090  0.24037  0.38468  1.0000
  C   C18       1.0  0.34910  0.75963  0.61532  1.0000
  C   C19       1.0  0.68150  0.30589  0.30858  1.0000
  C   C20       1.0  0.31850  0.69411  0.69142  1.0000
  H   H11       1.0  0.66390  0.25750  0.22420  1.0000
  H   H12       1.0  0.33610  0.74250  0.77580  1.0000
  C   C21       1.0  0.73870  0.44426  0.35936  1.0000
  C   C22       1.0  0.26130  0.55574  0.64064  1.0000
  H   H13       1.0  0.76380  0.49170  0.31000  1.0000
  H   H14       1.0  0.23620  0.50830  0.69000  1.0000
  C   C23       1.0  0.75870  0.51272  0.48303  1.0000
  C   C24       1.0  0.24130  0.48728  0.51697  1.0000
  H   H15       1.0  0.79510  0.60750  0.51930  1.0000
  H   H16       1.0  0.20490  0.39250  0.48070  1.0000
  C   C25       1.0  0.72430  0.43935  0.55226  1.0000
  C   C26       1.0  0.27570  0.56065  0.44774  1.0000
  C   C27       1.0  0.74200  0.50268  0.68784  1.0000
  C   C28       1.0  0.25800  0.49732  0.31216  1.0000
