data_image0
_chemical_formula_structural       In12S16C16S16C8S24C16S16C8S24C16S16C8S8
_chemical_formula_sum              "In12 S120 C72"
_cell_length_a       37.348
_cell_length_b       10.63
_cell_length_c       25.202
_cell_angle_alpha    90
_cell_angle_beta     104.083
_cell_angle_gamma    90

_space_group_name_H-M_alt    "P 1"
_space_group_IT_number       1

loop_
  _space_group_symop_operation_xyz
  'x, y, z'

loop_
  _atom_site_type_symbol
  _atom_site_label
  _atom_site_symmetry_multiplicity
  _atom_site_fract_x
  _atom_site_fract_y
  _atom_site_fract_z
  _atom_site_occupancy
  In  In1       1.0  0.73045  0.40086  0.52636  1.0000
  In  In2       1.0  0.23045  0.90086  0.52636  1.0000
  In  In3       1.0  0.73045  0.59914  0.02636  1.0000
  In  In4       1.0  0.23045  0.09914  0.02636  1.0000
  In  In5       1.0  0.26955  0.59914  0.47364  1.0000
  In  In6       1.0  0.76955  0.09914  0.47364  1.0000
  In  In7       1.0  0.26955  0.40086  0.97364  1.0000
  In  In8       1.0  0.76955  0.90086  0.97364  1.0000
  In  In9       1.0  0.75000  0.75000  0.50000  1.0000
  In  In10      1.0  0.25000  0.25000  0.50000  1.0000
  In  In11      1.0  0.75000  0.25000  0.00000  1.0000
  In  In12      1.0  0.25000  0.75000  0.00000  1.0000
  S   S1        1.0  0.73569  0.26911  0.61162  1.0000
  S   S2        1.0  0.23569  0.76911  0.61162  1.0000
  S   S3        1.0  0.73569  0.73089  0.11162  1.0000
  S   S4        1.0  0.23569  0.23089  0.11162  1.0000
  S   S5        1.0  0.26431  0.73089  0.38838  1.0000
  S   S6        1.0  0.76431  0.23089  0.38838  1.0000
  S   S7        1.0  0.26431  0.26911  0.88838  1.0000
  S   S8        1.0  0.76431  0.76911  0.88838  1.0000
  S   S9        1.0  0.79645  0.31391  0.52915  1.0000
  S   S10       1.0  0.29645  0.81391  0.52915  1.0000
  S   S11       1.0  0.79645  0.68609  0.02915  1.0000
  S   S12       1.0  0.29645  0.18609  0.02915  1.0000
  S   S13       1.0  0.20355  0.68609  0.47085  1.0000
  S   S14       1.0  0.70355  0.18609  0.47085  1.0000
  S   S15       1.0  0.20355  0.31391  0.97085  1.0000
  S   S16       1.0  0.70355  0.81391  0.97085  1.0000
  C   C1        1.0  0.78361  0.26060  0.63040  1.0000
  C   C2        1.0  0.28361  0.76060  0.63040  1.0000
  C   C3        1.0  0.78361  0.73940  0.13040  1.0000
  C   C4        1.0  0.28361  0.23940  0.13040  1.0000
  C   C5        1.0  0.21639  0.73940  0.36960  1.0000
  C   C6        1.0  0.71639  0.23940  0.36960  1.0000
  C   C7        1.0  0.21639  0.26060  0.86960  1.0000
  C   C8        1.0  0.71639  0.76060  0.86960  1.0000
  C   C9        1.0  0.80748  0.27700  0.59880  1.0000
  C   C10       1.0  0.30748  0.77700  0.59880  1.0000
  C   C11       1.0  0.80748  0.72300  0.09880  1.0000
  C   C12       1.0  0.30748  0.22300  0.09880  1.0000
  C   C13       1.0  0.19252  0.72300  0.40120  1.0000
  C   C14       1.0  0.69252  0.22300  0.40120  1.0000
  C   C15       1.0  0.19252  0.27700  0.90120  1.0000
  C   C16       1.0  0.69252  0.77700  0.90120  1.0000
  S   S17       1.0  0.80302  0.23107  0.69942  1.0000
  S   S18       1.0  0.30302  0.73107  0.69942  1.0000
  S   S19       1.0  0.80302  0.76893  0.19942  1.0000
  S   S20       1.0  0.30302  0.26893  0.19942  1.0000
  S   S21       1.0  0.19698  0.76893  0.30058  1.0000
  S   S22       1.0  0.69698  0.26893  0.30058  1.0000
  S   S23       1.0  0.19698  0.23107  0.80058  1.0000
  S   S24       1.0  0.69698  0.73107  0.80058  1.0000
  S   S25       1.0  0.85423  0.26999  0.63252  1.0000
  S   S26       1.0  0.35423  0.76999  0.63252  1.0000
  S   S27       1.0  0.85423  0.73001  0.13252  1.0000
  S   S28       1.0  0.35423  0.23001  0.13252  1.0000
  S   S29       1.0  0.14577  0.73001  0.36748  1.0000
  S   S30       1.0  0.64577  0.23001  0.36748  1.0000
  S   S31       1.0  0.14577  0.26999  0.86748  1.0000
  S   S32       1.0  0.64577  0.76999  0.86748  1.0000
  C   C17       1.0  0.84877  0.24260  0.69780  1.0000
  C   C18       1.0  0.34877  0.74260  0.69780  1.0000
  C   C19       1.0  0.84877  0.75740  0.19780  1.0000
  C   C20       1.0  0.34877  0.25740  0.19780  1.0000
  C   C21       1.0  0.15123  0.75740  0.30220  1.0000
  C   C22       1.0  0.65123  0.25740  0.30220  1.0000
  C   C23       1.0  0.15123  0.24260  0.80220  1.0000
  C   C24       1.0  0.65123  0.74260  0.80220  1.0000
  S   S33       1.0  0.88285  0.22930  0.75246  1.0000
  S   S34       1.0  0.38285  0.72930  0.75246  1.0000
  S   S35       1.0  0.88285  0.77070  0.25246  1.0000
  S   S36       1.0  0.38285  0.27070  0.25246  1.0000
  S   S37       1.0  0.11715  0.77070  0.24754  1.0000
  S   S38       1.0  0.61715  0.27070  0.24754  1.0000
  S   S39       1.0  0.11715  0.22930  0.74754  1.0000
  S   S40       1.0  0.61715  0.72930  0.74754  1.0000
  S   S41       1.0  0.66600  0.48148  0.52358  1.0000
  S   S42       1.0  0.16600  0.98148  0.52358  1.0000
  S   S43       1.0  0.66600  0.51852  0.02358  1.0000
  S   S44       1.0  0.16600  0.01852  0.02358  1.0000
  S   S45       1.0  0.33400  0.51852  0.47642  1.0000
  S   S46       1.0  0.83400  0.01852  0.47642  1.0000
  S   S47       1.0  0.33400  0.48148  0.97642  1.0000
  S   S48       1.0  0.83400  0.98148  0.97642  1.0000
  S   S49       1.0  0.72586  0.53656  0.43958  1.0000
  S   S50       1.0  0.22586  0.03656  0.43958  1.0000
  S   S51       1.0  0.72586  0.46344  0.93958  1.0000
  S   S52       1.0  0.22586  0.96344  0.93958  1.0000
  S   S53       1.0  0.27414  0.46344  0.56042  1.0000
  S   S54       1.0  0.77414  0.96344  0.56042  1.0000
  S   S55       1.0  0.27414  0.53656  0.06042  1.0000
  S   S56       1.0  0.77414  0.03656  0.06042  1.0000
  C   C25       1.0  0.65511  0.52120  0.45440  1.0000
  C   C26       1.0  0.15511  0.02120  0.45440  1.0000
  C   C27       1.0  0.65511  0.47880  0.95440  1.0000
  C   C28       1.0  0.15511  0.97880  0.95440  1.0000
  C   C29       1.0  0.34489  0.47880  0.54560  1.0000
  C   C30       1.0  0.84489  0.97880  0.54560  1.0000
  C   C31       1.0  0.34489  0.52120  0.04560  1.0000
  C   C32       1.0  0.84489  0.02120  0.04560  1.0000
  C   C33       1.0  0.67766  0.54290  0.42080  1.0000
  C   C34       1.0  0.17766  0.04290  0.42080  1.0000
  C   C35       1.0  0.67766  0.45710  0.92080  1.0000
  C   C36       1.0  0.17766  0.95710  0.92080  1.0000
  C   C37       1.0  0.32234  0.45710  0.57920  1.0000
  C   C38       1.0  0.82234  0.95710  0.57920  1.0000
  C   C39       1.0  0.32234  0.54290  0.07920  1.0000
  C   C40       1.0  0.82234  0.04290  0.07920  1.0000
  S   S57       1.0  0.60797  0.53543  0.42241  1.0000
  S   S58       1.0  0.10797  0.03543  0.42241  1.0000
  S   S59       1.0  0.60797  0.46457  0.92241  1.0000
  S   S60       1.0  0.10797  0.96457  0.92241  1.0000
  S   S61       1.0  0.39203  0.46457  0.57759  1.0000
  S   S62       1.0  0.89203  0.96457  0.57759  1.0000
  S   S63       1.0  0.39203  0.53543  0.07759  1.0000
  S   S64       1.0  0.89203  0.03543  0.07759  1.0000
  S   S65       1.0  0.65717  0.57681  0.35265  1.0000
  S   S66       1.0  0.15717  0.07681  0.35265  1.0000
  S   S67       1.0  0.65717  0.42319  0.85265  1.0000
  S   S68       1.0  0.15717  0.92319  0.85265  1.0000
  S   S69       1.0  0.34283  0.42319  0.64735  1.0000
  S   S70       1.0  0.84283  0.92319  0.64735  1.0000
  S   S71       1.0  0.34283  0.57681  0.14735  1.0000
  S   S72       1.0  0.84283  0.07681  0.14735  1.0000
  C   C41       1.0  0.61240  0.57350  0.35730  1.0000
  C   C42       1.0  0.11240  0.07350  0.35730  1.0000
  C   C43       1.0  0.61240  0.42650  0.85730  1.0000
  C   C44       1.0  0.11240  0.92650  0.85730  1.0000
  C   C45       1.0  0.38760  0.42650  0.64270  1.0000
  C   C46       1.0  0.88760  0.92650  0.64270  1.0000
  C   C47       1.0  0.38760  0.57350  0.14270  1.0000
  C   C48       1.0  0.88760  0.07350  0.14270  1.0000
  S   S73       1.0  0.57682  0.60670  0.30591  1.0000
  S   S74       1.0  0.07682  0.10670  0.30591  1.0000
  S   S75       1.0  0.57682  0.39330  0.80591  1.0000
  S   S76       1.0  0.07682  0.89330  0.80591  1.0000
  S   S77       1.0  0.42318  0.39330  0.69409  1.0000
  S   S78       1.0  0.92318  0.89330  0.69409  1.0000
  S   S79       1.0  0.42318  0.60670  0.19409  1.0000
  S   S80       1.0  0.92318  0.10670  0.19409  1.0000
  S   S81       1.0  0.81437  0.66925  0.50426  1.0000
  S   S82       1.0  0.31437  0.16925  0.50426  1.0000
  S   S83       1.0  0.81437  0.33075  0.00426  1.0000
  S   S84       1.0  0.31437  0.83075  0.00426  1.0000
  S   S85       1.0  0.18563  0.33075  0.49574  1.0000
  S   S86       1.0  0.68563  0.83075  0.49574  1.0000
  S   S87       1.0  0.18563  0.66925  0.99574  1.0000
  S   S88       1.0  0.68563  0.16925  0.99574  1.0000
  S   S89       1.0  0.75439  0.61054  0.58669  1.0000
  S   S90       1.0  0.25439  0.11054  0.58669  1.0000
  S   S91       1.0  0.75439  0.38946  0.08669  1.0000
  S   S92       1.0  0.25439  0.88946  0.08669  1.0000
  S   S93       1.0  0.24561  0.38946  0.41331  1.0000
  S   S94       1.0  0.74561  0.88946  0.41331  1.0000
  S   S95       1.0  0.24561  0.61054  0.91331  1.0000
  S   S96       1.0  0.74561  0.11054  0.91331  1.0000
  C   C49       1.0  0.82585  0.62690  0.57300  1.0000
  C   C50       1.0  0.32585  0.12690  0.57300  1.0000
  C   C51       1.0  0.82585  0.37310  0.07300  1.0000
  C   C52       1.0  0.32585  0.87310  0.07300  1.0000
  C   C53       1.0  0.17415  0.37310  0.42700  1.0000
  C   C54       1.0  0.67415  0.87310  0.42700  1.0000
  C   C55       1.0  0.17415  0.62690  0.92700  1.0000
  C   C56       1.0  0.67415  0.12690  0.92700  1.0000
  C   C57       1.0  0.80219  0.60480  0.60560  1.0000
  C   C58       1.0  0.30219  0.10480  0.60560  1.0000
  C   C59       1.0  0.80219  0.39520  0.10560  1.0000
  C   C60       1.0  0.30219  0.89520  0.10560  1.0000
  C   C61       1.0  0.19781  0.39520  0.39440  1.0000
  C   C62       1.0  0.69781  0.89520  0.39440  1.0000
  C   C63       1.0  0.19781  0.60480  0.89440  1.0000
  C   C64       1.0  0.69781  0.10480  0.89440  1.0000
  S   S97       1.0  0.87262  0.61922  0.60547  1.0000
  S   S98       1.0  0.37262  0.11922  0.60547  1.0000
  S   S99       1.0  0.87262  0.38078  0.10547  1.0000
  S   S100      1.0  0.37262  0.88078  0.10547  1.0000
  S   S101      1.0  0.12738  0.38078  0.39453  1.0000
  S   S102      1.0  0.62738  0.88078  0.39453  1.0000
  S   S103      1.0  0.12738  0.61922  0.89453  1.0000
  S   S104      1.0  0.62738  0.11922  0.89453  1.0000
  S   S105      1.0  0.82309  0.57445  0.67441  1.0000
  S   S106      1.0  0.32309  0.07445  0.67441  1.0000
  S   S107      1.0  0.82309  0.42555  0.17441  1.0000
  S   S108      1.0  0.32309  0.92555  0.17441  1.0000
  S   S109      1.0  0.17691  0.42555  0.32559  1.0000
  S   S110      1.0  0.67691  0.92555  0.32559  1.0000
  S   S111      1.0  0.17691  0.57445  0.82559  1.0000
  S   S112      1.0  0.67691  0.07445  0.82559  1.0000
  C   C65       1.0  0.86830  0.58400  0.67080  1.0000
  C   C66       1.0  0.36830  0.08400  0.67080  1.0000
  C   C67       1.0  0.86830  0.41600  0.17080  1.0000
  C   C68       1.0  0.36830  0.91600  0.17080  1.0000
  C   C69       1.0  0.13170  0.41600  0.32920  1.0000
  C   C70       1.0  0.63170  0.91600  0.32920  1.0000
  C   C71       1.0  0.13170  0.58400  0.82920  1.0000
  C   C72       1.0  0.63170  0.08400  0.82920  1.0000
  S   S113      1.0  0.90360  0.56282  0.72385  1.0000
  S   S114      1.0  0.40360  0.06282  0.72385  1.0000
  S   S115      1.0  0.90360  0.43718  0.22385  1.0000
  S   S116      1.0  0.40360  0.93718  0.22385  1.0000
  S   S117      1.0  0.09640  0.43718  0.27615  1.0000
  S   S118      1.0  0.59640  0.93718  0.27615  1.0000
  S   S119      1.0  0.09640  0.56282  0.77615  1.0000
  S   S120      1.0  0.59640  0.06282  0.77615  1.0000
