data_image0
_chemical_formula_structural       Np4O36H4O4C12H4C8H4C4H4C4H4C16H4C8H4C4H4C4H4C4
_chemical_formula_sum              "Np4 O40 H36 C64"
_cell_length_a       9.8801
_cell_length_b       13.3522
_cell_length_c       14.3161
_cell_angle_alpha    90
_cell_angle_beta     100.011
_cell_angle_gamma    90

_space_group_name_H-M_alt    "P 1"
_space_group_IT_number       1

loop_
  _space_group_symop_operation_xyz
  'x, y, z'

loop_
  _atom_site_type_symbol
  _atom_site_label
  _atom_site_symmetry_multiplicity
  _atom_site_fract_x
  _atom_site_fract_y
  _atom_site_fract_z
  _atom_site_occupancy
  Np  Np1       1.0  0.71534  0.12702  0.12999  1.0000
  Np  Np2       1.0  0.78466  0.62702  0.37001  1.0000
  Np  Np3       1.0  0.28466  0.87298  0.87001  1.0000
  Np  Np4       1.0  0.21534  0.37298  0.62999  1.0000
  O   O1        1.0  0.71510  0.99640  0.14572  1.0000
  O   O2        1.0  0.78490  0.49640  0.35428  1.0000
  O   O3        1.0  0.28490  0.00360  0.85428  1.0000
  O   O4        1.0  0.21510  0.50360  0.64572  1.0000
  O   O5        1.0  0.71390  0.25757  0.11561  1.0000
  O   O6        1.0  0.78610  0.75757  0.38439  1.0000
  O   O7        1.0  0.28610  0.74243  0.88439  1.0000
  O   O8        1.0  0.21390  0.24243  0.61561  1.0000
  O   O9        1.0  0.88740  0.15376  0.27495  1.0000
  O   O10       1.0  0.61260  0.65376  0.22505  1.0000
  O   O11       1.0  0.11260  0.84624  0.72505  1.0000
  O   O12       1.0  0.38740  0.34624  0.77495  1.0000
  O   O13       1.0  0.96430  0.12660  0.14281  1.0000
  O   O14       1.0  0.53570  0.62660  0.35719  1.0000
  O   O15       1.0  0.03570  0.87340  0.85719  1.0000
  O   O16       1.0  0.46430  0.37340  0.64281  1.0000
  O   O17       1.0  0.61450  0.14276  0.27414  1.0000
  O   O18       1.0  0.88550  0.64276  0.22586  1.0000
  O   O19       1.0  0.38550  0.85724  0.72586  1.0000
  O   O20       1.0  0.11450  0.35724  0.77414  1.0000
  O   O21       1.0  0.47010  0.14010  0.13876  1.0000
  O   O22       1.0  0.02990  0.64010  0.36124  1.0000
  O   O23       1.0  0.52990  0.85990  0.86124  1.0000
  O   O24       1.0  0.97010  0.35990  0.63876  1.0000
  O   O25       1.0  0.79890  0.09112  0.98220  1.0000
  O   O26       1.0  0.70110  0.59112  0.51780  1.0000
  O   O27       1.0  0.20110  0.90888  0.01780  1.0000
  O   O28       1.0  0.29890  0.40888  0.48220  1.0000
  O   O29       1.0  0.57710  0.11770  0.96666  1.0000
  O   O30       1.0  0.92290  0.61770  0.53334  1.0000
  O   O31       1.0  0.42290  0.88230  0.03334  1.0000
  O   O32       1.0  0.07710  0.38230  0.46666  1.0000
  O   O33       1.0  0.02330  0.07920  0.70001  1.0000
  O   O34       1.0  0.47670  0.57920  0.79999  1.0000
  O   O35       1.0  0.97670  0.92080  0.29999  1.0000
  O   O36       1.0  0.52330  0.42080  0.20001  1.0000
  H   H1        1.0  0.08400  0.06400  0.67100  1.0000
  H   H2        1.0  0.41600  0.56400  0.82900  1.0000
  H   H3        1.0  0.91600  0.93600  0.32900  1.0000
  H   H4        1.0  0.58400  0.43600  0.17100  1.0000
  O   O37       1.0  0.90190  0.10285  0.55456  1.0000
  O   O38       1.0  0.59810  0.60285  0.94544  1.0000
  O   O39       1.0  0.09810  0.89715  0.44544  1.0000
  O   O40       1.0  0.40190  0.39715  0.05456  1.0000
  C   C1        1.0  0.98860  0.14190  0.23130  1.0000
  C   C2        1.0  0.51140  0.64190  0.26870  1.0000
  C   C3        1.0  0.01140  0.85810  0.76870  1.0000
  C   C4        1.0  0.48860  0.35810  0.73130  1.0000
  C   C5        1.0  0.13190  0.14630  0.28340  1.0000
  C   C6        1.0  0.36810  0.64630  0.21660  1.0000
  C   C7        1.0  0.86810  0.85370  0.71660  1.0000
  C   C8        1.0  0.63190  0.35370  0.78340  1.0000
  C   C9        1.0  0.24090  0.14460  0.23300  1.0000
  C   C10       1.0  0.25910  0.64460  0.26700  1.0000
  C   C11       1.0  0.75910  0.85540  0.76700  1.0000
  C   C12       1.0  0.74090  0.35540  0.73300  1.0000
  H   H5        1.0  0.22320  0.14140  0.16570  1.0000
  H   H6        1.0  0.27680  0.64140  0.33430  1.0000
  H   H7        1.0  0.77680  0.85860  0.83430  1.0000
  H   H8        1.0  0.72320  0.35860  0.66570  1.0000
  C   C13       1.0  0.37460  0.14760  0.28140  1.0000
  C   C14       1.0  0.12540  0.64760  0.21860  1.0000
  C   C15       1.0  0.62540  0.85240  0.71860  1.0000
  C   C16       1.0  0.87460  0.35240  0.78140  1.0000
  C   C17       1.0  0.40200  0.15400  0.38040  1.0000
  C   C18       1.0  0.09800  0.65400  0.11960  1.0000
  C   C19       1.0  0.59800  0.84600  0.61960  1.0000
  C   C20       1.0  0.90200  0.34600  0.88040  1.0000
  H   H9        1.0  0.49400  0.15830  0.41330  1.0000
  H   H10       1.0  0.00600  0.65830  0.08670  1.0000
  H   H11       1.0  0.50600  0.84170  0.58670  1.0000
  H   H12       1.0  0.99400  0.34170  0.91330  1.0000
  C   C21       1.0  0.29280  0.15400  0.43020  1.0000
  C   C22       1.0  0.20720  0.65400  0.06980  1.0000
  C   C23       1.0  0.70720  0.84600  0.56980  1.0000
  C   C24       1.0  0.79280  0.34600  0.93020  1.0000
  H   H13       1.0  0.31050  0.15650  0.49750  1.0000
  H   H14       1.0  0.18950  0.65650  0.00250  1.0000
  H   H15       1.0  0.68950  0.84350  0.50250  1.0000
  H   H16       1.0  0.81050  0.34350  0.99750  1.0000
  C   C25       1.0  0.15790  0.15020  0.38200  1.0000
  C   C26       1.0  0.34210  0.65020  0.11800  1.0000
  C   C27       1.0  0.84210  0.84980  0.61800  1.0000
  C   C28       1.0  0.65790  0.34980  0.88200  1.0000
  H   H17       1.0  0.08380  0.15020  0.41630  1.0000
  H   H18       1.0  0.41620  0.65020  0.08370  1.0000
  H   H19       1.0  0.91620  0.84980  0.58370  1.0000
  H   H20       1.0  0.58380  0.34980  0.91630  1.0000
  C   C29       1.0  0.49190  0.14330  0.22850  1.0000
  C   C30       1.0  0.00810  0.64330  0.27150  1.0000
  C   C31       1.0  0.50810  0.85670  0.77150  1.0000
  C   C32       1.0  0.99190  0.35670  0.72850  1.0000
  C   C33       1.0  0.68300  0.10340  0.92830  1.0000
  C   C34       1.0  0.81700  0.60340  0.57170  1.0000
  C   C35       1.0  0.31700  0.89660  0.07170  1.0000
  C   C36       1.0  0.18300  0.39660  0.42830  1.0000
  C   C37       1.0  0.67420  0.10350  0.82370  1.0000
  C   C38       1.0  0.82580  0.60350  0.67630  1.0000
  C   C39       1.0  0.32580  0.89650  0.17630  1.0000
  C   C40       1.0  0.17420  0.39650  0.32370  1.0000
  C   C41       1.0  0.79360  0.10070  0.78510  1.0000
  C   C42       1.0  0.70640  0.60070  0.71490  1.0000
  C   C43       1.0  0.20640  0.89930  0.21490  1.0000
  C   C44       1.0  0.29360  0.39930  0.28510  1.0000
  H   H21       1.0  0.88090  0.09760  0.82520  1.0000
  H   H22       1.0  0.61910  0.59760  0.67480  1.0000
  H   H23       1.0  0.11910  0.90240  0.17480  1.0000
  H   H24       1.0  0.38090  0.40240  0.32520  1.0000
  C   C45       1.0  0.78420  0.10250  0.68620  1.0000
  C   C46       1.0  0.71580  0.60250  0.81380  1.0000
  C   C47       1.0  0.21580  0.89750  0.31380  1.0000
  C   C48       1.0  0.28420  0.39750  0.18620  1.0000
  C   C49       1.0  0.65590  0.10750  0.62890  1.0000
  C   C50       1.0  0.84410  0.60750  0.87110  1.0000
  C   C51       1.0  0.34410  0.89250  0.37110  1.0000
  C   C52       1.0  0.15590  0.39250  0.12890  1.0000
  H   H25       1.0  0.65000  0.10960  0.56190  1.0000
  H   H26       1.0  0.85000  0.60960  0.93810  1.0000
  H   H27       1.0  0.35000  0.89040  0.43810  1.0000
  H   H28       1.0  0.15000  0.39040  0.06190  1.0000
  C   C53       1.0  0.53740  0.10960  0.66650  1.0000
  C   C54       1.0  0.96260  0.60960  0.83350  1.0000
  C   C55       1.0  0.46260  0.89040  0.33350  1.0000
  C   C56       1.0  0.03740  0.39040  0.16650  1.0000
  H   H29       1.0  0.45040  0.11240  0.62600  1.0000
  H   H30       1.0  0.04960  0.61240  0.87400  1.0000
  H   H31       1.0  0.54960  0.88760  0.37400  1.0000
  H   H32       1.0  0.95040  0.38760  0.12600  1.0000
  C   C57       1.0  0.54570  0.10750  0.76500  1.0000
  C   C58       1.0  0.95430  0.60750  0.73500  1.0000
  C   C59       1.0  0.45430  0.89250  0.23500  1.0000
  C   C60       1.0  0.04570  0.39250  0.26500  1.0000
  H   H33       1.0  0.46430  0.10870  0.79190  1.0000
  H   H34       1.0  0.03570  0.60870  0.70810  1.0000
  H   H35       1.0  0.53570  0.89130  0.20810  1.0000
  H   H36       1.0  0.96430  0.39130  0.29190  1.0000
  C   C61       1.0  0.90940  0.09590  0.64160  1.0000
  C   C62       1.0  0.59060  0.59590  0.85840  1.0000
  C   C63       1.0  0.09060  0.90410  0.35840  1.0000
  C   C64       1.0  0.40940  0.40410  0.14160  1.0000
