data_image0
_chemical_formula_structural       Mn4O20H8O4H8N8C8H8C32H8C16H8C8H8C16H8C8H8C8
_chemical_formula_sum              "Mn4 O24 H64 N8 C96"
_cell_length_a       14.0571
_cell_length_b       17.3975
_cell_length_c       13.7185
_cell_angle_alpha    90
_cell_angle_beta     106.085
_cell_angle_gamma    90

_space_group_name_H-M_alt    "P 1"
_space_group_IT_number       1

loop_
  _space_group_symop_operation_xyz
  'x, y, z'

loop_
  _atom_site_type_symbol
  _atom_site_label
  _atom_site_symmetry_multiplicity
  _atom_site_fract_x
  _atom_site_fract_y
  _atom_site_fract_z
  _atom_site_occupancy
  Mn  Mn1       1.0  0.00000  0.00000  0.50000  1.0000
  Mn  Mn2       1.0  0.50000  0.50000  0.50000  1.0000
  Mn  Mn3       1.0  0.50000  0.50000  0.00000  1.0000
  Mn  Mn4       1.0  0.00000  0.00000  0.00000  1.0000
  O   O1        1.0  0.58318  0.59006  0.09823  1.0000
  O   O2        1.0  0.41682  0.59006  0.90177  1.0000
  O   O3        1.0  0.08318  0.09006  0.09823  1.0000
  O   O4        1.0  0.91682  0.09006  0.90177  1.0000
  O   O5        1.0  0.41682  0.40994  0.90177  1.0000
  O   O6        1.0  0.58318  0.40994  0.09823  1.0000
  O   O7        1.0  0.91682  0.90994  0.90177  1.0000
  O   O8        1.0  0.08318  0.90994  0.09823  1.0000
  O   O9        1.0  0.49367  0.60923  0.20702  1.0000
  O   O10       1.0  0.50633  0.60923  0.79298  1.0000
  O   O11       1.0  0.99367  0.10923  0.20702  1.0000
  O   O12       1.0  0.00633  0.10923  0.79298  1.0000
  O   O13       1.0  0.50633  0.39077  0.79298  1.0000
  O   O14       1.0  0.49367  0.39077  0.20702  1.0000
  O   O15       1.0  0.00633  0.89077  0.79298  1.0000
  O   O16       1.0  0.99367  0.89077  0.20702  1.0000
  O   O17       1.0  0.05692  0.00000  0.36264  1.0000
  O   O18       1.0  0.94308  0.00000  0.63736  1.0000
  O   O19       1.0  0.55692  0.50000  0.36264  1.0000
  O   O20       1.0  0.44308  0.50000  0.63736  1.0000
  H   H1        1.0  0.04400  0.04100  0.32850  1.0000
  H   H2        1.0  0.95600  0.04100  0.67150  1.0000
  H   H3        1.0  0.54400  0.54100  0.32850  1.0000
  H   H4        1.0  0.45600  0.54100  0.67150  1.0000
  H   H5        1.0  0.95600  0.95900  0.67150  1.0000
  H   H6        1.0  0.04400  0.95900  0.32850  1.0000
  H   H7        1.0  0.45600  0.45900  0.67150  1.0000
  H   H8        1.0  0.54400  0.45900  0.32850  1.0000
  O   O21       1.0  0.38566  0.50000  0.08568  1.0000
  O   O22       1.0  0.61434  0.50000  0.91432  1.0000
  O   O23       1.0  0.88566  0.00000  0.08568  1.0000
  O   O24       1.0  0.11434  0.00000  0.91432  1.0000
  H   H9        1.0  0.40320  0.53730  0.12590  1.0000
  H   H10       1.0  0.59680  0.53730  0.87410  1.0000
  H   H11       1.0  0.90320  0.03730  0.12590  1.0000
  H   H12       1.0  0.09680  0.03730  0.87410  1.0000
  H   H13       1.0  0.59680  0.46270  0.87410  1.0000
  H   H14       1.0  0.40320  0.46270  0.12590  1.0000
  H   H15       1.0  0.09680  0.96270  0.87410  1.0000
  H   H16       1.0  0.90320  0.96270  0.12590  1.0000
  N   N1        1.0  0.00000  0.88453  0.50000  1.0000
  N   N2        1.0  0.50000  0.38453  0.50000  1.0000
  N   N3        1.0  0.00000  0.11547  0.50000  1.0000
  N   N4        1.0  0.50000  0.61547  0.50000  1.0000
  N   N5        1.0  0.86312  0.00000  0.40313  1.0000
  N   N6        1.0  0.13688  0.00000  0.59687  1.0000
  N   N7        1.0  0.36312  0.50000  0.40313  1.0000
  N   N8        1.0  0.63688  0.50000  0.59687  1.0000
  C   C1        1.0  0.71879  0.96143  0.28891  1.0000
  C   C2        1.0  0.28121  0.96143  0.71109  1.0000
  C   C3        1.0  0.21879  0.46143  0.28891  1.0000
  C   C4        1.0  0.78121  0.46143  0.71109  1.0000
  C   C5        1.0  0.28121  0.03857  0.71109  1.0000
  C   C6        1.0  0.71879  0.03857  0.28891  1.0000
  C   C7        1.0  0.78121  0.53857  0.71109  1.0000
  C   C8        1.0  0.21879  0.53857  0.28891  1.0000
  H   H17       1.0  0.66930  0.92979  0.25013  1.0000
  H   H18       1.0  0.33070  0.92979  0.74987  1.0000
  H   H19       1.0  0.16930  0.42979  0.25013  1.0000
  H   H20       1.0  0.83070  0.42979  0.74987  1.0000
  H   H21       1.0  0.33070  0.07021  0.74987  1.0000
  H   H22       1.0  0.66930  0.07021  0.25013  1.0000
  H   H23       1.0  0.83070  0.57021  0.74987  1.0000
  H   H24       1.0  0.16930  0.57021  0.25013  1.0000
  C   C9        1.0  0.80902  0.93677  0.35962  1.0000
  C   C10       1.0  0.19098  0.93677  0.64038  1.0000
  C   C11       1.0  0.30902  0.43677  0.35962  1.0000
  C   C12       1.0  0.69098  0.43677  0.64038  1.0000
  C   C13       1.0  0.19098  0.06323  0.64038  1.0000
  C   C14       1.0  0.80902  0.06323  0.35962  1.0000
  C   C15       1.0  0.69098  0.56323  0.64038  1.0000
  C   C16       1.0  0.30902  0.56323  0.35962  1.0000
  C   C17       1.0  0.83699  0.86030  0.37818  1.0000
  C   C18       1.0  0.16301  0.86030  0.62182  1.0000
  C   C19       1.0  0.33699  0.36030  0.37818  1.0000
  C   C20       1.0  0.66301  0.36030  0.62182  1.0000
  C   C21       1.0  0.16301  0.13970  0.62182  1.0000
  C   C22       1.0  0.83699  0.13970  0.37818  1.0000
  C   C23       1.0  0.66301  0.63970  0.62182  1.0000
  C   C24       1.0  0.33699  0.63970  0.37818  1.0000
  C   C25       1.0  0.92653  0.83685  0.44446  1.0000
  C   C26       1.0  0.07347  0.83685  0.55554  1.0000
  C   C27       1.0  0.42653  0.33685  0.44446  1.0000
  C   C28       1.0  0.57347  0.33685  0.55554  1.0000
  C   C29       1.0  0.07347  0.16315  0.55554  1.0000
  C   C30       1.0  0.92653  0.16315  0.44446  1.0000
  C   C31       1.0  0.57347  0.66315  0.55554  1.0000
  C   C32       1.0  0.42653  0.66315  0.44446  1.0000
  C   C33       1.0  0.95542  0.75851  0.46623  1.0000
  C   C34       1.0  0.04458  0.75851  0.53377  1.0000
  C   C35       1.0  0.45542  0.25851  0.46623  1.0000
  C   C36       1.0  0.54458  0.25851  0.53377  1.0000
  C   C37       1.0  0.04458  0.24149  0.53377  1.0000
  C   C38       1.0  0.95542  0.24149  0.46623  1.0000
  C   C39       1.0  0.54458  0.74149  0.53377  1.0000
  C   C40       1.0  0.45542  0.74149  0.46623  1.0000
  H   H25       1.0  0.91880  0.71537  0.43841  1.0000
  H   H26       1.0  0.08120  0.71537  0.56159  1.0000
  H   H27       1.0  0.41880  0.21537  0.43841  1.0000
  H   H28       1.0  0.58120  0.21537  0.56159  1.0000
  H   H29       1.0  0.08120  0.28463  0.56159  1.0000
  H   H30       1.0  0.91880  0.28463  0.43841  1.0000
  H   H31       1.0  0.58120  0.78463  0.56159  1.0000
  H   H32       1.0  0.41880  0.78463  0.43841  1.0000
  C   C41       1.0  0.76739  0.79929  0.32400  1.0000
  C   C42       1.0  0.23261  0.79929  0.67600  1.0000
  C   C43       1.0  0.26739  0.29929  0.32400  1.0000
  C   C44       1.0  0.73261  0.29929  0.67600  1.0000
  C   C45       1.0  0.23261  0.20071  0.67600  1.0000
  C   C46       1.0  0.76739  0.20071  0.32400  1.0000
  C   C47       1.0  0.73261  0.70071  0.67600  1.0000
  C   C48       1.0  0.26739  0.70071  0.32400  1.0000
  C   C49       1.0  0.78080  0.76334  0.23990  1.0000
  C   C50       1.0  0.21920  0.76334  0.76010  1.0000
  C   C51       1.0  0.28080  0.26334  0.23990  1.0000
  C   C52       1.0  0.71920  0.26334  0.76010  1.0000
  C   C53       1.0  0.21920  0.23666  0.76010  1.0000
  C   C54       1.0  0.78080  0.23666  0.23990  1.0000
  C   C55       1.0  0.71920  0.73666  0.76010  1.0000
  C   C56       1.0  0.28080  0.73666  0.23990  1.0000
  H   H33       1.0  0.83384  0.77716  0.21541  1.0000
  H   H34       1.0  0.16616  0.77716  0.78459  1.0000
  H   H35       1.0  0.33384  0.27716  0.21541  1.0000
  H   H36       1.0  0.66616  0.27716  0.78459  1.0000
  H   H37       1.0  0.16616  0.22284  0.78459  1.0000
  H   H38       1.0  0.83384  0.22284  0.21541  1.0000
  H   H39       1.0  0.66616  0.72284  0.78459  1.0000
  H   H40       1.0  0.33384  0.72284  0.21541  1.0000
  C   C57       1.0  0.71580  0.70651  0.19110  1.0000
  C   C58       1.0  0.28420  0.70651  0.80890  1.0000
  C   C59       1.0  0.21580  0.20651  0.19110  1.0000
  C   C60       1.0  0.78420  0.20651  0.80890  1.0000
  C   C61       1.0  0.28420  0.29349  0.80890  1.0000
  C   C62       1.0  0.71580  0.29349  0.19110  1.0000
  C   C63       1.0  0.78420  0.79349  0.80890  1.0000
  C   C64       1.0  0.21580  0.79349  0.19110  1.0000
  H   H41       1.0  0.72603  0.68257  0.13419  1.0000
  H   H42       1.0  0.27397  0.68257  0.86581  1.0000
  H   H43       1.0  0.22603  0.18257  0.13419  1.0000
  H   H44       1.0  0.77397  0.18257  0.86581  1.0000
  H   H45       1.0  0.27397  0.31743  0.86581  1.0000
  H   H46       1.0  0.72603  0.31743  0.13419  1.0000
  H   H47       1.0  0.77397  0.81743  0.86581  1.0000
  H   H48       1.0  0.22603  0.81743  0.13419  1.0000
  C   C65       1.0  0.63714  0.68503  0.22490  1.0000
  C   C66       1.0  0.36286  0.68503  0.77510  1.0000
  C   C67       1.0  0.13714  0.18503  0.22490  1.0000
  C   C68       1.0  0.86286  0.18503  0.77510  1.0000
  C   C69       1.0  0.36286  0.31497  0.77510  1.0000
  C   C70       1.0  0.63714  0.31497  0.22490  1.0000
  C   C71       1.0  0.86286  0.81497  0.77510  1.0000
  C   C72       1.0  0.13714  0.81497  0.22490  1.0000
  C   C73       1.0  0.62352  0.72113  0.30795  1.0000
  C   C74       1.0  0.37648  0.72113  0.69205  1.0000
  C   C75       1.0  0.12352  0.22113  0.30795  1.0000
  C   C76       1.0  0.87648  0.22113  0.69205  1.0000
  C   C77       1.0  0.37648  0.27887  0.69205  1.0000
  C   C78       1.0  0.62352  0.27887  0.30795  1.0000
  C   C79       1.0  0.87648  0.77887  0.69205  1.0000
  C   C80       1.0  0.12352  0.77887  0.30795  1.0000
  H   H49       1.0  0.57033  0.70729  0.33217  1.0000
  H   H50       1.0  0.42967  0.70729  0.66783  1.0000
  H   H51       1.0  0.07033  0.20729  0.33217  1.0000
  H   H52       1.0  0.92967  0.20729  0.66783  1.0000
  H   H53       1.0  0.42967  0.29271  0.66783  1.0000
  H   H54       1.0  0.57033  0.29271  0.33217  1.0000
  H   H55       1.0  0.92967  0.79271  0.66783  1.0000
  H   H56       1.0  0.07033  0.79271  0.33217  1.0000
  C   C81       1.0  0.68765  0.77809  0.35683  1.0000
  C   C82       1.0  0.31235  0.77809  0.64317  1.0000
  C   C83       1.0  0.18765  0.27809  0.35683  1.0000
  C   C84       1.0  0.81235  0.27809  0.64317  1.0000
  C   C85       1.0  0.31235  0.22191  0.64317  1.0000
  C   C86       1.0  0.68765  0.22191  0.35683  1.0000
  C   C87       1.0  0.81235  0.72191  0.64317  1.0000
  C   C88       1.0  0.18765  0.72191  0.35683  1.0000
  H   H57       1.0  0.67647  0.80245  0.41298  1.0000
  H   H58       1.0  0.32353  0.80245  0.58702  1.0000
  H   H59       1.0  0.17647  0.30245  0.41298  1.0000
  H   H60       1.0  0.82353  0.30245  0.58702  1.0000
  H   H61       1.0  0.32353  0.19755  0.58702  1.0000
  H   H62       1.0  0.67647  0.19755  0.41298  1.0000
  H   H63       1.0  0.82353  0.69755  0.58702  1.0000
  H   H64       1.0  0.17647  0.69755  0.41298  1.0000
  C   C89       1.0  0.56527  0.62324  0.17214  1.0000
  C   C90       1.0  0.43473  0.62324  0.82786  1.0000
  C   C91       1.0  0.06527  0.12324  0.17214  1.0000
  C   C92       1.0  0.93473  0.12324  0.82786  1.0000
  C   C93       1.0  0.43473  0.37676  0.82786  1.0000
  C   C94       1.0  0.56527  0.37676  0.17214  1.0000
  C   C95       1.0  0.93473  0.87676  0.82786  1.0000
  C   C96       1.0  0.06527  0.87676  0.17214  1.0000
