data_image0
_chemical_formula_structural       H12Ni4C4O24C8
_chemical_formula_sum              "H12 Ni4 C12 O24"
_cell_length_a       8.1795
_cell_length_b       11.5234
_cell_length_c       8.0835
_cell_angle_alpha    90
_cell_angle_beta     90
_cell_angle_gamma    90

_space_group_name_H-M_alt    "P 1"
_space_group_IT_number       1

loop_
  _space_group_symop_operation_xyz
  'x, y, z'

loop_
  _atom_site_type_symbol
  _atom_site_label
  _atom_site_symmetry_multiplicity
  _atom_site_fract_x
  _atom_site_fract_y
  _atom_site_fract_z
  _atom_site_occupancy
  H   H1        1.0  0.01600  0.75000  0.07600  1.0000
  H   H2        1.0  0.48400  0.25000  0.57600  1.0000
  H   H3        1.0  0.98400  0.25000  0.92400  1.0000
  H   H4        1.0  0.51600  0.75000  0.42400  1.0000
  H   H5        1.0  0.28200  0.97200  0.77900  1.0000
  H   H6        1.0  0.21800  0.02800  0.27900  1.0000
  H   H7        1.0  0.71800  0.47200  0.22100  1.0000
  H   H8        1.0  0.78200  0.52800  0.72100  1.0000
  H   H9        1.0  0.71800  0.02800  0.22100  1.0000
  H   H10       1.0  0.78200  0.97200  0.72100  1.0000
  H   H11       1.0  0.28200  0.52800  0.77900  1.0000
  H   H12       1.0  0.21800  0.47200  0.27900  1.0000
  Ni  Ni1       1.0  0.00000  0.00000  0.00000  1.0000
  Ni  Ni2       1.0  0.50000  0.00000  0.50000  1.0000
  Ni  Ni3       1.0  0.00000  0.50000  0.00000  1.0000
  Ni  Ni4       1.0  0.50000  0.50000  0.50000  1.0000
  C   C1        1.0  0.99010  0.75000  0.94690  1.0000
  C   C2        1.0  0.50990  0.25000  0.44690  1.0000
  C   C3        1.0  0.00990  0.25000  0.05310  1.0000
  C   C4        1.0  0.49010  0.75000  0.55310  1.0000
  O   O1        1.0  0.09701  0.06974  0.78783  1.0000
  O   O2        1.0  0.40299  0.93026  0.28783  1.0000
  O   O3        1.0  0.90299  0.56974  0.21217  1.0000
  O   O4        1.0  0.59701  0.43026  0.71217  1.0000
  O   O5        1.0  0.90299  0.93026  0.21217  1.0000
  O   O6        1.0  0.59701  0.06974  0.71217  1.0000
  O   O7        1.0  0.09701  0.43026  0.78783  1.0000
  O   O8        1.0  0.40299  0.56974  0.28783  1.0000
  O   O9        1.0  0.27496  0.05784  0.58217  1.0000
  O   O10       1.0  0.22504  0.94216  0.08217  1.0000
  O   O11       1.0  0.72504  0.55784  0.41783  1.0000
  O   O12       1.0  0.77496  0.44216  0.91783  1.0000
  O   O13       1.0  0.72504  0.94216  0.41783  1.0000
  O   O14       1.0  0.77496  0.05784  0.91783  1.0000
  O   O15       1.0  0.27496  0.44216  0.58217  1.0000
  O   O16       1.0  0.22504  0.55784  0.08217  1.0000
  O   O17       1.0  0.97451  0.84593  0.87494  1.0000
  O   O18       1.0  0.52549  0.15407  0.37494  1.0000
  O   O19       1.0  0.02549  0.34593  0.12506  1.0000
  O   O20       1.0  0.47451  0.65407  0.62506  1.0000
  O   O21       1.0  0.02549  0.15407  0.12506  1.0000
  O   O22       1.0  0.47451  0.84593  0.62506  1.0000
  O   O23       1.0  0.97451  0.65407  0.87494  1.0000
  O   O24       1.0  0.52549  0.34593  0.37494  1.0000
  C   C5        1.0  0.22220  0.02880  0.72190  1.0000
  C   C6        1.0  0.27780  0.97120  0.22190  1.0000
  C   C7        1.0  0.77780  0.52880  0.27810  1.0000
  C   C8        1.0  0.72220  0.47120  0.77810  1.0000
  C   C9        1.0  0.77780  0.97120  0.27810  1.0000
  C   C10       1.0  0.72220  0.02880  0.77810  1.0000
  C   C11       1.0  0.22220  0.47120  0.72190  1.0000
  C   C12       1.0  0.27780  0.52880  0.22190  1.0000
