data_image0
_chemical_formula_structural       Gd4O48C24
_chemical_formula_sum              "Gd4 O48 C24"
_cell_length_a       24.4039
_cell_length_b       11.6266
_cell_length_c       10.7055
_cell_angle_alpha    90
_cell_angle_beta     107.809
_cell_angle_gamma    90

_space_group_name_H-M_alt    "P 1"
_space_group_IT_number       1

loop_
  _space_group_symop_operation_xyz
  'x, y, z'

loop_
  _atom_site_type_symbol
  _atom_site_label
  _atom_site_symmetry_multiplicity
  _atom_site_fract_x
  _atom_site_fract_y
  _atom_site_fract_z
  _atom_site_occupancy
  Gd  Gd1       1.0  0.26631  0.00000  0.60900  1.0000
  Gd  Gd2       1.0  0.73369  0.00000  0.39100  1.0000
  Gd  Gd3       1.0  0.76631  0.50000  0.60900  1.0000
  Gd  Gd4       1.0  0.23369  0.50000  0.39100  1.0000
  O   O1        1.0  0.24380  0.00000  0.81040  1.0000
  O   O2        1.0  0.75620  0.00000  0.18960  1.0000
  O   O3        1.0  0.74380  0.50000  0.81040  1.0000
  O   O4        1.0  0.25620  0.50000  0.18960  1.0000
  O   O5        1.0  0.17590  0.00000  0.90590  1.0000
  O   O6        1.0  0.82410  0.00000  0.09410  1.0000
  O   O7        1.0  0.67590  0.50000  0.90590  1.0000
  O   O8        1.0  0.32410  0.50000  0.09410  1.0000
  O   O9        1.0  0.16620  0.00000  0.57860  1.0000
  O   O10       1.0  0.83380  0.00000  0.42140  1.0000
  O   O11       1.0  0.66620  0.50000  0.57860  1.0000
  O   O12       1.0  0.33380  0.50000  0.42140  1.0000
  O   O13       1.0  0.09570  0.00000  0.66260  1.0000
  O   O14       1.0  0.90430  0.00000  0.33740  1.0000
  O   O15       1.0  0.59570  0.50000  0.66260  1.0000
  O   O16       1.0  0.40430  0.50000  0.33740  1.0000
  O   O17       1.0  0.34730  0.00000  0.52930  1.0000
  O   O18       1.0  0.65270  0.00000  0.47070  1.0000
  O   O19       1.0  0.84730  0.50000  0.52930  1.0000
  O   O20       1.0  0.15270  0.50000  0.47070  1.0000
  O   O21       1.0  0.44190  0.00000  0.57580  1.0000
  O   O22       1.0  0.55810  0.00000  0.42420  1.0000
  O   O23       1.0  0.94190  0.50000  0.57580  1.0000
  O   O24       1.0  0.05810  0.50000  0.42420  1.0000
  O   O25       1.0  0.35580  0.00000  0.78050  1.0000
  O   O26       1.0  0.64420  0.00000  0.21950  1.0000
  O   O27       1.0  0.85580  0.50000  0.78050  1.0000
  O   O28       1.0  0.14420  0.50000  0.21950  1.0000
  O   O29       1.0  0.45060  0.00000  0.83620  1.0000
  O   O30       1.0  0.54940  0.00000  0.16380  1.0000
  O   O31       1.0  0.95060  0.50000  0.83620  1.0000
  O   O32       1.0  0.04940  0.50000  0.16380  1.0000
  O   O33       1.0  0.27590  0.20000  0.66050  1.0000
  O   O34       1.0  0.72410  0.20000  0.33950  1.0000
  O   O35       1.0  0.77590  0.70000  0.66050  1.0000
  O   O36       1.0  0.22410  0.70000  0.33950  1.0000
  O   O37       1.0  0.72410  0.80000  0.33950  1.0000
  O   O38       1.0  0.27590  0.80000  0.66050  1.0000
  O   O39       1.0  0.22410  0.30000  0.33950  1.0000
  O   O40       1.0  0.77590  0.30000  0.66050  1.0000
  O   O41       1.0  0.26550  0.37970  0.58220  1.0000
  O   O42       1.0  0.73450  0.37970  0.41780  1.0000
  O   O43       1.0  0.76550  0.87970  0.58220  1.0000
  O   O44       1.0  0.23450  0.87970  0.41780  1.0000
  O   O45       1.0  0.73450  0.62030  0.41780  1.0000
  O   O46       1.0  0.26550  0.62030  0.58220  1.0000
  O   O47       1.0  0.23450  0.12030  0.41780  1.0000
  O   O48       1.0  0.76550  0.12030  0.58220  1.0000
  C   C1        1.0  0.19160  0.00000  0.80700  1.0000
  C   C2        1.0  0.80840  0.00000  0.19300  1.0000
  C   C3        1.0  0.69160  0.50000  0.80700  1.0000
  C   C4        1.0  0.30840  0.50000  0.19300  1.0000
  C   C5        1.0  0.14620  0.00000  0.67500  1.0000
  C   C6        1.0  0.85380  0.00000  0.32500  1.0000
  C   C7        1.0  0.64620  0.50000  0.67500  1.0000
  C   C8        1.0  0.35380  0.50000  0.32500  1.0000
  C   C9        1.0  0.39810  0.00000  0.60730  1.0000
  C   C10       1.0  0.60190  0.00000  0.39270  1.0000
  C   C11       1.0  0.89810  0.50000  0.60730  1.0000
  C   C12       1.0  0.10190  0.50000  0.39270  1.0000
  C   C13       1.0  0.40220  0.00000  0.75520  1.0000
  C   C14       1.0  0.59780  0.00000  0.24480  1.0000
  C   C15       1.0  0.90220  0.50000  0.75520  1.0000
  C   C16       1.0  0.09780  0.50000  0.24480  1.0000
  C   C17       1.0  0.26180  0.27370  0.56890  1.0000
  C   C18       1.0  0.73820  0.27370  0.43110  1.0000
  C   C19       1.0  0.76180  0.77370  0.56890  1.0000
  C   C20       1.0  0.23820  0.77370  0.43110  1.0000
  C   C21       1.0  0.73820  0.72630  0.43110  1.0000
  C   C22       1.0  0.26180  0.72630  0.56890  1.0000
  C   C23       1.0  0.23820  0.22630  0.43110  1.0000
  C   C24       1.0  0.76180  0.22630  0.56890  1.0000
