data_image0
_chemical_formula_structural       Ga12Se28N4H8C4H8C4H8N4H8
_chemical_formula_sum              "Ga12 Se28 N8 H32 C8"
_cell_length_a       14.2788
_cell_length_b       9.616
_cell_length_c       19.676
_cell_angle_alpha    90
_cell_angle_beta     90
_cell_angle_gamma    90

_space_group_name_H-M_alt    "P 1"
_space_group_IT_number       1

loop_
  _space_group_symop_operation_xyz
  'x, y, z'

loop_
  _atom_site_type_symbol
  _atom_site_label
  _atom_site_symmetry_multiplicity
  _atom_site_fract_x
  _atom_site_fract_y
  _atom_site_fract_z
  _atom_site_occupancy
  Ga  Ga1       1.0  0.52654  0.31670  0.49688  1.0000
  Ga  Ga2       1.0  0.47346  0.68330  0.99688  1.0000
  Ga  Ga3       1.0  0.02654  0.18330  0.49688  1.0000
  Ga  Ga4       1.0  0.97346  0.81670  0.99688  1.0000
  Ga  Ga5       1.0  0.29009  0.20650  0.50117  1.0000
  Ga  Ga6       1.0  0.70991  0.79350  0.00117  1.0000
  Ga  Ga7       1.0  0.79009  0.29350  0.50117  1.0000
  Ga  Ga8       1.0  0.20991  0.70650  0.00117  1.0000
  Ga  Ga9       1.0  0.36123  0.48700  0.37651  1.0000
  Ga  Ga10      1.0  0.63877  0.51300  0.87651  1.0000
  Ga  Ga11      1.0  0.86123  0.01300  0.37651  1.0000
  Ga  Ga12      1.0  0.13877  0.98700  0.87651  1.0000
  Se  Se1       1.0  0.39154  0.35270  0.56731  1.0000
  Se  Se2       1.0  0.60846  0.64730  0.06731  1.0000
  Se  Se3       1.0  0.89154  0.14730  0.56731  1.0000
  Se  Se4       1.0  0.10846  0.85270  0.06731  1.0000
  Se  Se5       1.0  0.53237  0.06800  0.46997  1.0000
  Se  Se6       1.0  0.46763  0.93200  0.96997  1.0000
  Se  Se7       1.0  0.03237  0.43200  0.46997  1.0000
  Se  Se8       1.0  0.96763  0.56800  0.96997  1.0000
  Se  Se9       1.0  0.37883  0.98730  0.48913  1.0000
  Se  Se10      1.0  0.62117  0.01270  0.98913  1.0000
  Se  Se11      1.0  0.87883  0.51270  0.48913  1.0000
  Se  Se12      1.0  0.12117  0.48730  0.98913  1.0000
  Se  Se13      1.0  0.65872  0.36070  0.56844  1.0000
  Se  Se14      1.0  0.34128  0.63930  0.06844  1.0000
  Se  Se15      1.0  0.15872  0.13930  0.56844  1.0000
  Se  Se16      1.0  0.84128  0.86070  0.06844  1.0000
  Se  Se17      1.0  0.52441  0.44530  0.39322  1.0000
  Se  Se18      1.0  0.47559  0.55470  0.89322  1.0000
  Se  Se19      1.0  0.02441  0.05470  0.39322  1.0000
  Se  Se20      1.0  0.97559  0.94530  0.89322  1.0000
  Se  Se21      1.0  0.25322  0.30090  0.39301  1.0000
  Se  Se22      1.0  0.74678  0.69910  0.89301  1.0000
  Se  Se23      1.0  0.75322  0.19910  0.39301  1.0000
  Se  Se24      1.0  0.24678  0.80090  0.89301  1.0000
  Se  Se25      1.0  0.31701  0.60590  0.27792  1.0000
  Se  Se26      1.0  0.68299  0.39410  0.77792  1.0000
  Se  Se27      1.0  0.81701  0.89410  0.27792  1.0000
  Se  Se28      1.0  0.18299  0.10590  0.77792  1.0000
  N   N1        1.0  0.33250  0.61760  0.45620  1.0000
  N   N2        1.0  0.66750  0.38240  0.95620  1.0000
  N   N3        1.0  0.83250  0.88240  0.45620  1.0000
  N   N4        1.0  0.16750  0.11760  0.95620  1.0000
  H   H1        1.0  0.34200  0.57020  0.49510  1.0000
  H   H2        1.0  0.65800  0.42980  0.99510  1.0000
  H   H3        1.0  0.84200  0.92980  0.49510  1.0000
  H   H4        1.0  0.15800  0.07020  0.99510  1.0000
  H   H5        1.0  0.37430  0.68760  0.45520  1.0000
  H   H6        1.0  0.62570  0.31240  0.95520  1.0000
  H   H7        1.0  0.87430  0.81240  0.45520  1.0000
  H   H8        1.0  0.12570  0.18760  0.95520  1.0000
  C   C1        1.0  0.23520  0.68040  0.45900  1.0000
  C   C2        1.0  0.76480  0.31960  0.95900  1.0000
  C   C3        1.0  0.73520  0.81960  0.45900  1.0000
  C   C4        1.0  0.26480  0.18040  0.95900  1.0000
  H   H9        1.0  0.23390  0.76270  0.43050  1.0000
  H   H10       1.0  0.76610  0.23730  0.93050  1.0000
  H   H11       1.0  0.73390  0.73730  0.43050  1.0000
  H   H12       1.0  0.26610  0.26270  0.93050  1.0000
  H   H13       1.0  0.19100  0.61420  0.44020  1.0000
  H   H14       1.0  0.80900  0.38580  0.94020  1.0000
  H   H15       1.0  0.69100  0.88580  0.44020  1.0000
  H   H16       1.0  0.30900  0.11420  0.94020  1.0000
  C   C5        1.0  0.20430  0.71900  0.52760  1.0000
  C   C6        1.0  0.79570  0.28100  0.02760  1.0000
  C   C7        1.0  0.70430  0.78100  0.52760  1.0000
  C   C8        1.0  0.29570  0.21900  0.02760  1.0000
  H   H17       1.0  0.21110  0.63860  0.55700  1.0000
  H   H18       1.0  0.78890  0.36140  0.05700  1.0000
  H   H19       1.0  0.71110  0.86140  0.55700  1.0000
  H   H20       1.0  0.28890  0.13860  0.05700  1.0000
  H   H21       1.0  0.24560  0.79100  0.54470  1.0000
  H   H22       1.0  0.75440  0.20900  0.04470  1.0000
  H   H23       1.0  0.74560  0.70900  0.54470  1.0000
  H   H24       1.0  0.25440  0.29100  0.04470  1.0000
  N   N5        1.0  0.10890  0.76810  0.53220  1.0000
  N   N6        1.0  0.89110  0.23190  0.03220  1.0000
  N   N7        1.0  0.60890  0.73190  0.53220  1.0000
  N   N8        1.0  0.39110  0.26810  0.03220  1.0000
  H   H25       1.0  0.07010  0.70190  0.51790  1.0000
  H   H26       1.0  0.92990  0.29810  0.01790  1.0000
  H   H27       1.0  0.57010  0.79810  0.51790  1.0000
  H   H28       1.0  0.42990  0.20190  0.01790  1.0000
  H   H29       1.0  0.10210  0.84350  0.50640  1.0000
  H   H30       1.0  0.89790  0.15650  0.00640  1.0000
  H   H31       1.0  0.60210  0.65650  0.50640  1.0000
  H   H32       1.0  0.39790  0.34350  0.00640  1.0000
