data_image0
_chemical_formula_structural       Mn4C16N8C4N24C4N4
_chemical_formula_sum              "Mn4 C24 N36"
_cell_length_a       10.098
_cell_length_b       12.156
_cell_length_c       17.119
_cell_angle_alpha    90
_cell_angle_beta     96.32
_cell_angle_gamma    90

_space_group_name_H-M_alt    "P 1"
_space_group_IT_number       1

loop_
  _space_group_symop_operation_xyz
  'x, y, z'

loop_
  _atom_site_type_symbol
  _atom_site_label
  _atom_site_symmetry_multiplicity
  _atom_site_fract_x
  _atom_site_fract_y
  _atom_site_fract_z
  _atom_site_occupancy
  Mn  Mn1       1.0  0.73110  0.77455  0.21230  1.0000
  Mn  Mn2       1.0  0.26890  0.27455  0.28770  1.0000
  Mn  Mn3       1.0  0.26890  0.22545  0.78770  1.0000
  Mn  Mn4       1.0  0.73110  0.72545  0.71230  1.0000
  C   C1        1.0  0.65260  0.03730  0.19286  1.0000
  C   C2        1.0  0.34740  0.53730  0.30714  1.0000
  C   C3        1.0  0.34740  0.96270  0.80714  1.0000
  C   C4        1.0  0.65260  0.46270  0.69286  1.0000
  C   C5        1.0  0.82260  0.51310  0.25089  1.0000
  C   C6        1.0  0.17740  0.01310  0.24911  1.0000
  C   C7        1.0  0.17740  0.48690  0.74911  1.0000
  C   C8        1.0  0.82260  0.98690  0.75089  1.0000
  C   C9        1.0  0.96250  0.36960  0.27910  1.0000
  C   C10       1.0  0.03750  0.86960  0.22090  1.0000
  C   C11       1.0  0.03750  0.63040  0.72090  1.0000
  C   C12       1.0  0.96250  0.13040  0.77910  1.0000
  C   C13       1.0  0.75860  0.83860  0.40331  1.0000
  C   C14       1.0  0.24140  0.33860  0.09669  1.0000
  C   C15       1.0  0.24140  0.16140  0.59669  1.0000
  C   C16       1.0  0.75860  0.66140  0.90331  1.0000
  N   N1        1.0  0.67360  0.94640  0.18471  1.0000
  N   N2        1.0  0.32640  0.44640  0.31529  1.0000
  N   N3        1.0  0.32640  0.05360  0.81529  1.0000
  N   N4        1.0  0.67360  0.55360  0.68471  1.0000
  N   N5        1.0  0.79150  0.60190  0.23928  1.0000
  N   N6        1.0  0.20850  0.10190  0.26072  1.0000
  N   N7        1.0  0.20850  0.39810  0.76072  1.0000
  N   N8        1.0  0.79150  0.89810  0.73928  1.0000
  C   C17       1.0  0.55000  0.18580  0.23658  1.0000
  C   C18       1.0  0.45000  0.68580  0.26342  1.0000
  C   C19       1.0  0.45000  0.81420  0.76342  1.0000
  C   C20       1.0  0.55000  0.31420  0.73658  1.0000
  N   N9        1.0  0.63730  0.14330  0.19520  1.0000
  N   N10       1.0  0.36270  0.64330  0.30480  1.0000
  N   N11       1.0  0.36270  0.85670  0.80480  1.0000
  N   N12       1.0  0.63730  0.35670  0.69520  1.0000
  N   N13       1.0  0.84340  0.40910  0.26420  1.0000
  N   N14       1.0  0.15660  0.90910  0.23580  1.0000
  N   N15       1.0  0.15660  0.59090  0.73580  1.0000
  N   N16       1.0  0.84340  0.09090  0.76420  1.0000
  N   N17       1.0  0.75710  0.81610  0.33947  1.0000
  N   N18       1.0  0.24290  0.31610  0.16053  1.0000
  N   N19       1.0  0.24290  0.18390  0.66053  1.0000
  N   N20       1.0  0.75710  0.68390  0.83947  1.0000
  N   N21       1.0  0.76700  0.87570  0.47431  1.0000
  N   N22       1.0  0.23300  0.37570  0.02569  1.0000
  N   N23       1.0  0.23300  0.12430  0.52569  1.0000
  N   N24       1.0  0.76700  0.62430  0.97431  1.0000
  N   N25       1.0  0.05920  0.32410  0.29390  1.0000
  N   N26       1.0  0.94080  0.82410  0.20610  1.0000
  N   N27       1.0  0.94080  0.67590  0.70610  1.0000
  N   N28       1.0  0.05920  0.17590  0.79390  1.0000
  N   N29       1.0  0.47860  0.23110  0.27260  1.0000
  N   N30       1.0  0.52140  0.73110  0.22740  1.0000
  N   N31       1.0  0.52140  0.76890  0.72740  1.0000
  N   N32       1.0  0.47860  0.26890  0.77260  1.0000
  C   C21       1.0  0.73180  0.81660  0.53167  1.0000
  C   C22       1.0  0.26820  0.31660  0.96833  1.0000
  C   C23       1.0  0.26820  0.18340  0.46833  1.0000
  C   C24       1.0  0.73180  0.68340  0.03167  1.0000
  N   N33       1.0  0.70530  0.77470  0.58670  1.0000
  N   N34       1.0  0.29470  0.27470  0.91330  1.0000
  N   N35       1.0  0.29470  0.22530  0.41330  1.0000
  N   N36       1.0  0.70530  0.72530  0.08670  1.0000
