data_image0
_chemical_formula_structural       C8N12Mn4N12C8N8C4N4C4
_chemical_formula_sum              "C24 N36 Mn4"
_cell_length_a       10.694
_cell_length_b       12.092
_cell_length_c       16.108
_cell_angle_alpha    90
_cell_angle_beta     90
_cell_angle_gamma    90

_space_group_name_H-M_alt    "P 1"
_space_group_IT_number       1

loop_
  _space_group_symop_operation_xyz
  'x, y, z'

loop_
  _atom_site_type_symbol
  _atom_site_label
  _atom_site_symmetry_multiplicity
  _atom_site_fract_x
  _atom_site_fract_y
  _atom_site_fract_z
  _atom_site_occupancy
  C   C1        1.0  0.16700  0.60790  0.01130  1.0000
  C   C2        1.0  0.33300  0.39210  0.51130  1.0000
  C   C3        1.0  0.83300  0.10790  0.48870  1.0000
  C   C4        1.0  0.66700  0.89210  0.98870  1.0000
  C   C5        1.0  0.41710  0.34000  0.16100  1.0000
  C   C6        1.0  0.08290  0.66000  0.66100  1.0000
  C   C7        1.0  0.58290  0.84000  0.33900  1.0000
  C   C8        1.0  0.91710  0.16000  0.83900  1.0000
  N   N1        1.0  0.12380  0.42790  0.18710  1.0000
  N   N2        1.0  0.37620  0.57210  0.68710  1.0000
  N   N3        1.0  0.87620  0.92790  0.31290  1.0000
  N   N4        1.0  0.62380  0.07210  0.81290  1.0000
  N   N5        1.0  0.40270  0.42680  0.13490  1.0000
  N   N6        1.0  0.09730  0.57320  0.63490  1.0000
  N   N7        1.0  0.59730  0.92680  0.36510  1.0000
  N   N8        1.0  0.90270  0.07320  0.86510  1.0000
  N   N9        1.0  0.21470  0.61730  0.07300  1.0000
  N   N10       1.0  0.28530  0.38270  0.57300  1.0000
  N   N11       1.0  0.78530  0.11730  0.42700  1.0000
  N   N12       1.0  0.71470  0.88270  0.92700  1.0000
  Mn  Mn1       1.0  0.27545  0.55427  0.19451  1.0000
  Mn  Mn2       1.0  0.22455  0.44573  0.69451  1.0000
  Mn  Mn3       1.0  0.72455  0.05427  0.30549  1.0000
  Mn  Mn4       1.0  0.77545  0.94573  0.80549  1.0000
  N   N13       1.0  0.42130  0.23780  0.18640  1.0000
  N   N14       1.0  0.07870  0.76220  0.68640  1.0000
  N   N15       1.0  0.57870  0.73780  0.31360  1.0000
  N   N16       1.0  0.92130  0.26220  0.81360  1.0000
  N   N17       1.0  0.10140  0.60730  0.94350  1.0000
  N   N18       1.0  0.39860  0.39270  0.44350  1.0000
  N   N19       1.0  0.89860  0.10730  0.55650  1.0000
  N   N20       1.0  0.60140  0.89270  0.05650  1.0000
  N   N21       1.0  0.00190  0.26680  0.15920  1.0000
  N   N22       1.0  0.49810  0.73320  0.65920  1.0000
  N   N23       1.0  0.99810  0.76680  0.34080  1.0000
  N   N24       1.0  0.50190  0.23320  0.84080  1.0000
  C   C9        1.0  0.06410  0.35480  0.17960  1.0000
  C   C10       1.0  0.43590  0.64520  0.67960  1.0000
  C   C11       1.0  0.93590  0.85480  0.32040  1.0000
  C   C12       1.0  0.56410  0.14520  0.82040  1.0000
  C   C13       1.0  0.92150  0.21860  0.20980  1.0000
  C   C14       1.0  0.57850  0.78140  0.70980  1.0000
  C   C15       1.0  0.07850  0.71860  0.29020  1.0000
  C   C16       1.0  0.42150  0.28140  0.79020  1.0000
  N   N25       1.0  0.85160  0.17060  0.24340  1.0000
  N   N26       1.0  0.64840  0.82940  0.74340  1.0000
  N   N27       1.0  0.14840  0.67060  0.25660  1.0000
  N   N28       1.0  0.35160  0.32940  0.75660  1.0000
  N   N29       1.0  0.16840  0.51760  0.81610  1.0000
  N   N30       1.0  0.33160  0.48240  0.31610  1.0000
  N   N31       1.0  0.83160  0.01760  0.68390  1.0000
  N   N32       1.0  0.66840  0.98240  0.18390  1.0000
  C   C17       1.0  0.14240  0.55750  0.87680  1.0000
  C   C18       1.0  0.35760  0.44250  0.37680  1.0000
  C   C19       1.0  0.85760  0.05750  0.62320  1.0000
  C   C20       1.0  0.64240  0.94250  0.12320  1.0000
  N   N33       1.0  0.56520  0.17000  0.29310  1.0000
  N   N34       1.0  0.93480  0.83000  0.79310  1.0000
  N   N35       1.0  0.43480  0.67000  0.20690  1.0000
  N   N36       1.0  0.06520  0.33000  0.70690  1.0000
  C   C21       1.0  0.50130  0.20670  0.24210  1.0000
  C   C22       1.0  0.99870  0.79330  0.74210  1.0000
  C   C23       1.0  0.49870  0.70670  0.25790  1.0000
  C   C24       1.0  0.00130  0.29330  0.75790  1.0000
