data_image0
_chemical_formula_structural       Cd4As32V56O168N4H8N4H4N4H8C4H8C4H8C4H8C4H8
_chemical_formula_sum              "Cd4 As32 V56 O168 N12 H52 C16"
_cell_length_a       15.1728
_cell_length_b       19.2863
_cell_length_c       25.7122
_cell_angle_alpha    90
_cell_angle_beta     96.005
_cell_angle_gamma    90

_space_group_name_H-M_alt    "P 1"
_space_group_IT_number       1

loop_
  _space_group_symop_operation_xyz
  'x, y, z'

loop_
  _atom_site_type_symbol
  _atom_site_label
  _atom_site_symmetry_multiplicity
  _atom_site_fract_x
  _atom_site_fract_y
  _atom_site_fract_z
  _atom_site_occupancy
  Cd  Cd1       1.0  0.63950  0.19925  0.60383  1.0000
  Cd  Cd2       1.0  0.86050  0.69925  0.89617  1.0000
  Cd  Cd3       1.0  0.36050  0.80075  0.39617  1.0000
  Cd  Cd4       1.0  0.13950  0.30075  0.10383  1.0000
  As  As1       1.0  0.38940  0.13034  0.25813  1.0000
  As  As2       1.0  0.11060  0.63034  0.24187  1.0000
  As  As3       1.0  0.61060  0.86966  0.74187  1.0000
  As  As4       1.0  0.88940  0.36966  0.75813  1.0000
  As  As5       1.0  0.50140  0.10048  0.37007  1.0000
  As  As6       1.0  0.99860  0.60048  0.12993  1.0000
  As  As7       1.0  0.49860  0.89952  0.62993  1.0000
  As  As8       1.0  0.00140  0.39952  0.87007  1.0000
  As  As9       1.0  0.16492  0.11337  0.47383  1.0000
  As  As10      1.0  0.33508  0.61337  0.02617  1.0000
  As  As11      1.0  0.83508  0.88663  0.52617  1.0000
  As  As12      1.0  0.66492  0.38663  0.97383  1.0000
  As  As13      1.0  0.05374  0.14267  0.36118  1.0000
  As  As14      1.0  0.44626  0.64267  0.13882  1.0000
  As  As15      1.0  0.94626  0.85733  0.63882  1.0000
  As  As16      1.0  0.55374  0.35733  0.86118  1.0000
  As  As17      1.0  0.13779  0.46895  0.32242  1.0000
  As  As18      1.0  0.36221  0.96895  0.17758  1.0000
  As  As19      1.0  0.86221  0.53105  0.67758  1.0000
  As  As20      1.0  0.63779  0.03105  0.82242  1.0000
  As  As21      1.0  0.31900  0.46285  0.26639  1.0000
  As  As22      1.0  0.18100  0.96285  0.23361  1.0000
  As  As23      1.0  0.68100  0.53715  0.73361  1.0000
  As  As24      1.0  0.81900  0.03715  0.76639  1.0000
  As  As25      1.0  0.52498  0.40822  0.47398  1.0000
  As  As26      1.0  0.97502  0.90822  0.02602  1.0000
  As  As27      1.0  0.47502  0.59178  0.52602  1.0000
  As  As28      1.0  0.02498  0.09178  0.97398  1.0000
  As  As29      1.0  0.34282  0.41481  0.52966  1.0000
  As  As30      1.0  0.15718  0.91481  0.97034  1.0000
  As  As31      1.0  0.65718  0.58519  0.47034  1.0000
  As  As32      1.0  0.84282  0.08519  0.02966  1.0000
  V   V1        1.0  0.55282  0.24980  0.42929  1.0000
  V   V2        1.0  0.94718  0.74980  0.07071  1.0000
  V   V3        1.0  0.44718  0.75020  0.57071  1.0000
  V   V4        1.0  0.05282  0.25020  0.92929  1.0000
  V   V5        1.0  0.44251  0.25108  0.51971  1.0000
  V   V6        1.0  0.05749  0.75108  0.98029  1.0000
  V   V7        1.0  0.55749  0.74892  0.48029  1.0000
  V   V8        1.0  0.94251  0.24892  0.01971  1.0000
  V   V9        1.0  0.24423  0.26152  0.52632  1.0000
  V   V10       1.0  0.25577  0.76152  0.97368  1.0000
  V   V11       1.0  0.75577  0.73848  0.47368  1.0000
  V   V12       1.0  0.74423  0.23848  0.02632  1.0000
  V   V13       1.0  0.07972  0.28065  0.45037  1.0000
  V   V14       1.0  0.42028  0.78065  0.04963  1.0000
  V   V15       1.0  0.92028  0.71935  0.54963  1.0000
  V   V16       1.0  0.57972  0.21935  0.95037  1.0000
  V   V17       1.0  0.05360  0.31312  0.33379  1.0000
  V   V18       1.0  0.44640  0.81312  0.16621  1.0000
  V   V19       1.0  0.94640  0.68688  0.66621  1.0000
  V   V20       1.0  0.55360  0.18688  0.83379  1.0000
  V   V21       1.0  0.17115  0.32232  0.24470  1.0000
  V   V22       1.0  0.32885  0.82232  0.25530  1.0000
  V   V23       1.0  0.82885  0.67768  0.75530  1.0000
  V   V24       1.0  0.67115  0.17768  0.74470  1.0000
  V   V25       1.0  0.36571  0.29912  0.23868  1.0000
  V   V26       1.0  0.13429  0.79912  0.26132  1.0000
  V   V27       1.0  0.63429  0.70088  0.76132  1.0000
  V   V28       1.0  0.86571  0.20088  0.73868  1.0000
  V   V29       1.0  0.52809  0.26434  0.31227  1.0000
  V   V30       1.0  0.97191  0.76434  0.18773  1.0000
  V   V31       1.0  0.47191  0.73566  0.68773  1.0000
  V   V32       1.0  0.02809  0.23566  0.81227  1.0000
  V   V33       1.0  0.38290  0.12665  0.46944  1.0000
  V   V34       1.0  0.11710  0.62665  0.03056  1.0000
  V   V35       1.0  0.61710  0.87335  0.53056  1.0000
  V   V36       1.0  0.88290  0.37335  0.96944  1.0000
  V   V37       1.0  0.27273  0.08927  0.36283  1.0000
  V   V38       1.0  0.22727  0.58927  0.13717  1.0000
  V   V39       1.0  0.72727  0.91073  0.63717  1.0000
  V   V40       1.0  0.77273  0.41073  0.86283  1.0000
  V   V41       1.0  0.18514  0.17909  0.27059  1.0000
  V   V42       1.0  0.31486  0.67909  0.22941  1.0000
  V   V43       1.0  0.81486  0.82091  0.72941  1.0000
  V   V44       1.0  0.68514  0.32091  0.77059  1.0000
  V   V45       1.0  0.16431  0.41314  0.44461  1.0000
  V   V46       1.0  0.33569  0.91314  0.05539  1.0000
  V   V47       1.0  0.83569  0.58686  0.55539  1.0000
  V   V48       1.0  0.66431  0.08686  0.94461  1.0000
  V   V49       1.0  0.33692  0.47183  0.40176  1.0000
  V   V50       1.0  0.16308  0.97183  0.09824  1.0000
  V   V51       1.0  0.66308  0.52817  0.59824  1.0000
  V   V52       1.0  0.83692  0.02817  0.90176  1.0000
  V   V53       1.0  0.48641  0.40088  0.34525  1.0000
  V   V54       1.0  0.01359  0.90088  0.15475  1.0000
  V   V55       1.0  0.51359  0.59912  0.65475  1.0000
  V   V56       1.0  0.98641  0.09912  0.84525  1.0000
  O   O1        1.0  0.25884  0.00803  0.35261  1.0000
  O   O2        1.0  0.24116  0.50803  0.14739  1.0000
  O   O3        1.0  0.74116  0.99197  0.64739  1.0000
  O   O4        1.0  0.75884  0.49197  0.85261  1.0000
  O   O5        1.0  0.56062  0.45438  0.33071  1.0000
  O   O6        1.0  0.93938  0.95438  0.16929  1.0000
  O   O7        1.0  0.43938  0.54562  0.66929  1.0000
  O   O8        1.0  0.06062  0.04562  0.83071  1.0000
  O   O9        1.0  0.35008  0.55295  0.41121  1.0000
  O   O10       1.0  0.14992  0.05295  0.08879  1.0000
  O   O11       1.0  0.64992  0.44705  0.58879  1.0000
  O   O12       1.0  0.85008  0.94705  0.91121  1.0000
  O   O13       1.0  0.95264  0.33153  0.31515  1.0000
  O   O14       1.0  0.54736  0.83153  0.18485  1.0000
  O   O15       1.0  0.04736  0.66847  0.68485  1.0000
  O   O16       1.0  0.45264  0.16847  0.81515  1.0000
  O   O17       1.0  0.21918  0.25264  0.58457  1.0000
  O   O18       1.0  0.28082  0.75264  0.91543  1.0000
  O   O19       1.0  0.78082  0.74736  0.41543  1.0000
  O   O20       1.0  0.71918  0.24736  0.08457  1.0000
  O   O21       1.0  0.48062  0.19047  0.46781  1.0000
  O   O22       1.0  0.01938  0.69047  0.03219  1.0000
  O   O23       1.0  0.51938  0.80953  0.53219  1.0000
  O   O24       1.0  0.98062  0.30953  0.96781  1.0000
  O   O25       1.0  0.61817  0.25881  0.28546  1.0000
  O   O26       1.0  0.88183  0.75881  0.21454  1.0000
  O   O27       1.0  0.38183  0.74119  0.71454  1.0000
  O   O28       1.0  0.11817  0.24119  0.78546  1.0000
  O   O29       1.0  0.10784  0.47223  0.46905  1.0000
  O   O30       1.0  0.39216  0.97223  0.03095  1.0000
  O   O31       1.0  0.89216  0.52777  0.53095  1.0000
  O   O32       1.0  0.60784  0.02777  0.96905  1.0000
  O   O33       1.0  0.41780  0.06211  0.50525  1.0000
  O   O34       1.0  0.08220  0.56211  0.99475  1.0000
  O   O35       1.0  0.58220  0.93789  0.49475  1.0000
  O   O36       1.0  0.91780  0.43789  0.00525  1.0000
  O   O37       1.0  0.99107  0.28062  0.47903  1.0000
  O   O38       1.0  0.50893  0.78062  0.02097  1.0000
  O   O39       1.0  0.00893  0.71938  0.52097  1.0000
  O   O40       1.0  0.49107  0.21938  0.97903  1.0000
  O   O41       1.0  0.36729  0.44672  0.33145  1.0000
  O   O42       1.0  0.13271  0.94672  0.16855  1.0000
  O   O43       1.0  0.63271  0.55328  0.66855  1.0000
  O   O44       1.0  0.86729  0.05328  0.83145  1.0000
  O   O45       1.0  0.30010  0.13418  0.29788  1.0000
  O   O46       1.0  0.19990  0.63418  0.20212  1.0000
  O   O47       1.0  0.69990  0.86582  0.70212  1.0000
  O   O48       1.0  0.80010  0.36582  0.79788  1.0000
  O   O49       1.0  0.25851  0.10812  0.43702  1.0000
  O   O50       1.0  0.24149  0.60812  0.06298  1.0000
  O   O51       1.0  0.74149  0.89188  0.56298  1.0000
  O   O52       1.0  0.75851  0.39188  0.93702  1.0000
  O   O53       1.0  0.08608  0.35480  0.40022  1.0000
  O   O54       1.0  0.41392  0.85480  0.09978  1.0000
  O   O55       1.0  0.91392  0.64520  0.59978  1.0000
  O   O56       1.0  0.58608  0.14520  0.90022  1.0000
  O   O57       1.0  0.12043  0.33431  0.18603  1.0000
  O   O58       1.0  0.37957  0.83431  0.31397  1.0000
  O   O59       1.0  0.87957  0.66569  0.81397  1.0000
  O   O60       1.0  0.62043  0.16569  0.68603  1.0000
  O   O61       1.0  0.25505  0.24946  0.24020  1.0000
  O   O62       1.0  0.24495  0.74946  0.25980  1.0000
  O   O63       1.0  0.74495  0.75054  0.75980  1.0000
  O   O64       1.0  0.75505  0.25054  0.74020  1.0000
  O   O65       1.0  0.07862  0.10006  0.42257  1.0000
  O   O66       1.0  0.42138  0.60006  0.07743  1.0000
  O   O67       1.0  0.92138  0.89994  0.57743  1.0000
  O   O68       1.0  0.57862  0.39994  0.92257  1.0000
  O   O69       1.0  0.21035  0.45151  0.37972  1.0000
  O   O70       1.0  0.28965  0.95151  0.12028  1.0000
  O   O71       1.0  0.78965  0.54849  0.62028  1.0000
  O   O72       1.0  0.71035  0.04849  0.87972  1.0000
  O   O73       1.0  0.05575  0.22981  0.38183  1.0000
  O   O74       1.0  0.44425  0.72981  0.11817  1.0000
  O   O75       1.0  0.94425  0.77019  0.61817  1.0000
  O   O76       1.0  0.55575  0.27019  0.88183  1.0000
  O   O77       1.0  0.21632  0.49883  0.28100  1.0000
  O   O78       1.0  0.28368  0.99883  0.21900  1.0000
  O   O79       1.0  0.78368  0.50117  0.71900  1.0000
  O   O80       1.0  0.71632  0.00117  0.78100  1.0000
  O   O81       1.0  0.46681  0.08477  0.30273  1.0000
  O   O82       1.0  0.03319  0.58477  0.19727  1.0000
  O   O83       1.0  0.53319  0.91523  0.69727  1.0000
  O   O84       1.0  0.96681  0.41523  0.80273  1.0000
  O   O85       1.0  0.65536  0.23697  0.44991  1.0000
  O   O86       1.0  0.84464  0.73697  0.05009  1.0000
  O   O87       1.0  0.34464  0.76303  0.55009  1.0000
  O   O88       1.0  0.15536  0.26303  0.94991  1.0000
  O   O89       1.0  0.45201  0.42440  0.41662  1.0000
  O   O90       1.0  0.04799  0.92440  0.08338  1.0000
  O   O91       1.0  0.54799  0.57560  0.58338  1.0000
  O   O92       1.0  0.95201  0.07560  0.91662  1.0000
  O   O93       1.0  0.52356  0.19015  0.36668  1.0000
  O   O94       1.0  0.97644  0.69015  0.13332  1.0000
  O   O95       1.0  0.47644  0.80985  0.63332  1.0000
  O   O96       1.0  0.02356  0.30985  0.86668  1.0000
  O   O97       1.0  0.39576  0.10393  0.39434  1.0000
  O   O98       1.0  0.10424  0.60393  0.10566  1.0000
  O   O99       1.0  0.60424  0.89607  0.60566  1.0000
  O   O100      1.0  0.89576  0.39607  0.89434  1.0000
  O   O101      1.0  0.17374  0.33270  0.48981  1.0000
  O   O102      1.0  0.32626  0.83270  0.01019  1.0000
  O   O103      1.0  0.82626  0.66730  0.51019  1.0000
  O   O104      1.0  0.67374  0.16730  0.98981  1.0000
  O   O105      1.0  0.38597  0.30458  0.17899  1.0000
  O   O106      1.0  0.11403  0.80458  0.32101  1.0000
  O   O107      1.0  0.61403  0.69542  0.82101  1.0000
  O   O108      1.0  0.88597  0.19542  0.67899  1.0000
  O   O109      1.0  0.28270  0.37612  0.25147  1.0000
  O   O110      1.0  0.21730  0.87612  0.24853  1.0000
  O   O111      1.0  0.71730  0.62388  0.74853  1.0000
  O   O112      1.0  0.78270  0.12388  0.75147  1.0000
  O   O113      1.0  0.10977  0.25692  0.28379  1.0000
  O   O114      1.0  0.39023  0.75692  0.21621  1.0000
  O   O115      1.0  0.89023  0.74308  0.71621  1.0000
  O   O116      1.0  0.60977  0.24308  0.78379  1.0000
  O   O117      1.0  0.45494  0.43605  0.52143  1.0000
  O   O118      1.0  0.04506  0.93605  0.97857  1.0000
  O   O119      1.0  0.54506  0.56395  0.47857  1.0000
  O   O120      1.0  0.95494  0.06395  0.02143  1.0000
  O   O121      1.0  0.50600  0.31705  0.47821  1.0000
  O   O122      1.0  0.99400  0.81705  0.02179  1.0000
  O   O123      1.0  0.49400  0.68295  0.52179  1.0000
  O   O124      1.0  0.00600  0.18295  0.97821  1.0000
  O   O125      1.0  0.16148  0.13847  0.33954  1.0000
  O   O126      1.0  0.33852  0.63847  0.16046  1.0000
  O   O127      1.0  0.83852  0.86153  0.66046  1.0000
  O   O128      1.0  0.66148  0.36153  0.83954  1.0000
  O   O129      1.0  0.35176  0.32285  0.52825  1.0000
  O   O130      1.0  0.14824  0.82285  0.97175  1.0000
  O   O131      1.0  0.64824  0.67715  0.47175  1.0000
  O   O132      1.0  0.85176  0.17715  0.02825  1.0000
  O   O133      1.0  0.45552  0.34187  0.28572  1.0000
  O   O134      1.0  0.04448  0.84187  0.21428  1.0000
  O   O135      1.0  0.54448  0.65813  0.71428  1.0000
  O   O136      1.0  0.95552  0.15813  0.78572  1.0000
  O   O137      1.0  0.29512  0.42914  0.46465  1.0000
  O   O138      1.0  0.20488  0.92914  0.03535  1.0000
  O   O139      1.0  0.70488  0.57086  0.53535  1.0000
  O   O140      1.0  0.79512  0.07086  0.96465  1.0000
  O   O141      1.0  0.43002  0.21565  0.26859  1.0000
  O   O142      1.0  0.06998  0.71565  0.23141  1.0000
  O   O143      1.0  0.56998  0.78435  0.73141  1.0000
  O   O144      1.0  0.93002  0.28435  0.76859  1.0000
  O   O145      1.0  0.12379  0.38321  0.29809  1.0000
  O   O146      1.0  0.37621  0.88321  0.20191  1.0000
  O   O147      1.0  0.87621  0.61679  0.70191  1.0000
  O   O148      1.0  0.62379  0.11679  0.79809  1.0000
  O   O149      1.0  0.15883  0.20410  0.47963  1.0000
  O   O150      1.0  0.34117  0.70410  0.02037  1.0000
  O   O151      1.0  0.84117  0.79590  0.52037  1.0000
  O   O152      1.0  0.65883  0.29590  0.97963  1.0000
  O   O153      1.0  0.33746  0.19580  0.51402  1.0000
  O   O154      1.0  0.16254  0.69580  0.98598  1.0000
  O   O155      1.0  0.66254  0.80420  0.48598  1.0000
  O   O156      1.0  0.83746  0.30420  0.01402  1.0000
  O   O157      1.0  0.54402  0.31893  0.37561  1.0000
  O   O158      1.0  0.95598  0.81893  0.12439  1.0000
  O   O159      1.0  0.45598  0.68107  0.62439  1.0000
  O   O160      1.0  0.04402  0.18107  0.87561  1.0000
  O   O161      1.0  0.50397  0.23629  0.57464  1.0000
  O   O162      1.0  0.99603  0.73629  0.92536  1.0000
  O   O163      1.0  0.49603  0.76371  0.42536  1.0000
  O   O164      1.0  0.00397  0.26371  0.07464  1.0000
  O   O165      1.0  0.13887  0.13164  0.22462  1.0000
  O   O166      1.0  0.36113  0.63164  0.27538  1.0000
  O   O167      1.0  0.86113  0.86836  0.77538  1.0000
  O   O168      1.0  0.63887  0.36836  0.72462  1.0000
  N   N1        1.0  0.62370  0.08760  0.57128  1.0000
  N   N2        1.0  0.87630  0.58760  0.92872  1.0000
  N   N3        1.0  0.37630  0.91240  0.42872  1.0000
  N   N4        1.0  0.12370  0.41240  0.07128  1.0000
  H   H1        1.0  0.56770  0.08030  0.55700  1.0000
  H   H2        1.0  0.93230  0.58030  0.94300  1.0000
  H   H3        1.0  0.43230  0.91970  0.44300  1.0000
  H   H4        1.0  0.06770  0.41970  0.05700  1.0000
  H   H5        1.0  0.63670  0.05640  0.59700  1.0000
  H   H6        1.0  0.86330  0.55640  0.90300  1.0000
  H   H7        1.0  0.36330  0.94360  0.40300  1.0000
  H   H8        1.0  0.13670  0.44360  0.09700  1.0000
  N   N5        1.0  0.74530  0.19780  0.54757  1.0000
  N   N6        1.0  0.75470  0.69780  0.95243  1.0000
  N   N7        1.0  0.25470  0.80220  0.45243  1.0000
  N   N8        1.0  0.24530  0.30220  0.04757  1.0000
  H   H9        1.0  0.72000  0.21000  0.51520  1.0000
  H   H10       1.0  0.78000  0.71000  0.98480  1.0000
  H   H11       1.0  0.28000  0.79000  0.48480  1.0000
  H   H12       1.0  0.22000  0.29000  0.01520  1.0000
  N   N9        1.0  0.71020  0.30219  0.62337  1.0000
  N   N10       1.0  0.78980  0.80219  0.87663  1.0000
  N   N11       1.0  0.28980  0.69781  0.37663  1.0000
  N   N12       1.0  0.21020  0.19781  0.12337  1.0000
  H   H13       1.0  0.73940  0.30080  0.65570  1.0000
  H   H14       1.0  0.76060  0.80080  0.84430  1.0000
  H   H15       1.0  0.26060  0.69920  0.34430  1.0000
  H   H16       1.0  0.23940  0.19920  0.15570  1.0000
  H   H17       1.0  0.67100  0.33730  0.62190  1.0000
  H   H18       1.0  0.82900  0.83730  0.87810  1.0000
  H   H19       1.0  0.32900  0.66270  0.37810  1.0000
  H   H20       1.0  0.17100  0.16270  0.12190  1.0000
  C   C1        1.0  0.68650  0.08140  0.53100  1.0000
  C   C2        1.0  0.81350  0.58140  0.96900  1.0000
  C   C3        1.0  0.31350  0.91860  0.46900  1.0000
  C   C4        1.0  0.18650  0.41860  0.03100  1.0000
  H   H21       1.0  0.70020  0.03290  0.52610  1.0000
  H   H22       1.0  0.79980  0.53290  0.97390  1.0000
  H   H23       1.0  0.29980  0.96710  0.47390  1.0000
  H   H24       1.0  0.20020  0.46710  0.02610  1.0000
  H   H25       1.0  0.65880  0.09940  0.49810  1.0000
  H   H26       1.0  0.84120  0.59940  0.00190  1.0000
  H   H27       1.0  0.34120  0.90060  0.50190  1.0000
  H   H28       1.0  0.15880  0.40060  0.99810  1.0000
  C   C5        1.0  0.77230  0.12110  0.54670  1.0000
  C   C6        1.0  0.72770  0.62110  0.95330  1.0000
  C   C7        1.0  0.22770  0.87890  0.45330  1.0000
  C   C8        1.0  0.27230  0.37890  0.04670  1.0000
  H   H29       1.0  0.79870  0.10640  0.58090  1.0000
  H   H30       1.0  0.70130  0.60640  0.91910  1.0000
  H   H31       1.0  0.20130  0.89360  0.41910  1.0000
  H   H32       1.0  0.29870  0.39360  0.08090  1.0000
  H   H33       1.0  0.81460  0.11340  0.52140  1.0000
  H   H34       1.0  0.68540  0.61340  0.97860  1.0000
  H   H35       1.0  0.18540  0.88660  0.47860  1.0000
  H   H36       1.0  0.31460  0.38660  0.02140  1.0000
  C   C9        1.0  0.81320  0.24500  0.56315  1.0000
  C   C10       1.0  0.68680  0.74500  0.93685  1.0000
  C   C11       1.0  0.18680  0.75500  0.43685  1.0000
  C   C12       1.0  0.31320  0.25500  0.06315  1.0000
  H   H37       1.0  0.85310  0.22470  0.59100  1.0000
  H   H38       1.0  0.64690  0.72470  0.90900  1.0000
  H   H39       1.0  0.14690  0.77530  0.40900  1.0000
  H   H40       1.0  0.35310  0.27530  0.09100  1.0000
  H   H41       1.0  0.84680  0.25460  0.53390  1.0000
  H   H42       1.0  0.65320  0.75460  0.96610  1.0000
  H   H43       1.0  0.15320  0.74540  0.46610  1.0000
  H   H44       1.0  0.34680  0.24540  0.03390  1.0000
  C   C13       1.0  0.77550  0.31180  0.58210  1.0000
  C   C14       1.0  0.72450  0.81180  0.91790  1.0000
  C   C15       1.0  0.22450  0.68820  0.41790  1.0000
  C   C16       1.0  0.27550  0.18820  0.08210  1.0000
  H   H45       1.0  0.82410  0.34090  0.59670  1.0000
  H   H46       1.0  0.67590  0.84090  0.90330  1.0000
  H   H47       1.0  0.17590  0.65910  0.40330  1.0000
  H   H48       1.0  0.32410  0.15910  0.09670  1.0000
  H   H49       1.0  0.74550  0.33610  0.55230  1.0000
  H   H50       1.0  0.75450  0.83610  0.94770  1.0000
  H   H51       1.0  0.25450  0.66390  0.44770  1.0000
  H   H52       1.0  0.24550  0.16390  0.05230  1.0000
