data_image0
_chemical_formula_structural       Mn12P6O24H24O60C12H36C72H12C12H12C12H12C36H12C24H12C12H36C24H12C36H12C36H36
_chemical_formula_sum              "Mn12 P6 O84 H216 C276"
_cell_length_a       27.1819
_cell_length_b       27.1819
_cell_length_c       22.9588
_cell_angle_alpha    90
_cell_angle_beta     90
_cell_angle_gamma    120

_space_group_name_H-M_alt    "P 1"
_space_group_IT_number       1

loop_
  _space_group_symop_operation_xyz
  'x, y, z'

loop_
  _atom_site_type_symbol
  _atom_site_label
  _atom_site_symmetry_multiplicity
  _atom_site_fract_x
  _atom_site_fract_y
  _atom_site_fract_z
  _atom_site_occupancy
  Mn  Mn1       1.0  0.58189  0.16640  0.84062  1.0000
  Mn  Mn2       1.0  0.41549  0.58189  0.00729  1.0000
  Mn  Mn3       1.0  0.83360  0.41549  0.17395  1.0000
  Mn  Mn4       1.0  0.41811  0.83360  0.34062  1.0000
  Mn  Mn5       1.0  0.58451  0.41811  0.50729  1.0000
  Mn  Mn6       1.0  0.16640  0.58451  0.67395  1.0000
  Mn  Mn7       1.0  0.41549  0.83360  0.15938  1.0000
  Mn  Mn8       1.0  0.41811  0.58451  0.82605  1.0000
  Mn  Mn9       1.0  0.16640  0.58189  0.49271  1.0000
  Mn  Mn10      1.0  0.83360  0.41811  0.99271  1.0000
  Mn  Mn11      1.0  0.58451  0.16640  0.65938  1.0000
  Mn  Mn12      1.0  0.58189  0.41549  0.32605  1.0000
  P   P1        1.0  0.52717  0.05435  0.75000  1.0000
  P   P2        1.0  0.47282  0.52717  0.91667  1.0000
  P   P3        1.0  0.94565  0.47282  0.08333  1.0000
  P   P4        1.0  0.47283  0.94565  0.25000  1.0000
  P   P5        1.0  0.52718  0.47283  0.41667  1.0000
  P   P6        1.0  0.05435  0.52718  0.58333  1.0000
  O   O1        1.0  0.47140  0.86070  0.07877  1.0000
  O   O2        1.0  0.61070  0.47140  0.24544  1.0000
  O   O3        1.0  0.13930  0.61070  0.41210  1.0000
  O   O4        1.0  0.52860  0.13930  0.57877  1.0000
  O   O5        1.0  0.38930  0.52860  0.74544  1.0000
  O   O6        1.0  0.86070  0.38930  0.91210  1.0000
  O   O7        1.0  0.61070  0.13930  0.92123  1.0000
  O   O8        1.0  0.52860  0.38930  0.58790  1.0000
  O   O9        1.0  0.86070  0.47140  0.25456  1.0000
  O   O10       1.0  0.13930  0.52860  0.75456  1.0000
  O   O11       1.0  0.38930  0.86070  0.42123  1.0000
  O   O12       1.0  0.47140  0.61070  0.08790  1.0000
  O   O13       1.0  0.50150  0.13940  0.89141  1.0000
  O   O14       1.0  0.36210  0.50150  0.05808  1.0000
  O   O15       1.0  0.86060  0.36210  0.22474  1.0000
  O   O16       1.0  0.49850  0.86060  0.39141  1.0000
  O   O17       1.0  0.63790  0.49850  0.55808  1.0000
  O   O18       1.0  0.13940  0.63790  0.72474  1.0000
  O   O19       1.0  0.36210  0.86060  0.10859  1.0000
  O   O20       1.0  0.49850  0.63790  0.77526  1.0000
  O   O21       1.0  0.13940  0.50150  0.44192  1.0000
  O   O22       1.0  0.86060  0.49850  0.94192  1.0000
  O   O23       1.0  0.63790  0.13940  0.60859  1.0000
  O   O24       1.0  0.50150  0.36210  0.27526  1.0000
  H   H1        1.0  0.49810  0.15520  0.92860  1.0000
  H   H2        1.0  0.34290  0.49810  0.09527  1.0000
  H   H3        1.0  0.84480  0.34290  0.26193  1.0000
  H   H4        1.0  0.50190  0.84480  0.42860  1.0000
  H   H5        1.0  0.65710  0.50190  0.59527  1.0000
  H   H6        1.0  0.15520  0.65710  0.76193  1.0000
  H   H7        1.0  0.34290  0.84480  0.07140  1.0000
  H   H8        1.0  0.50190  0.65710  0.73807  1.0000
  H   H9        1.0  0.15520  0.49810  0.40473  1.0000
  H   H10       1.0  0.84480  0.50190  0.90473  1.0000
  H   H11       1.0  0.65710  0.15520  0.57140  1.0000
  H   H12       1.0  0.49810  0.34290  0.23807  1.0000
  H   H13       1.0  0.46340  0.10960  0.88020  1.0000
  H   H14       1.0  0.35380  0.46340  0.04687  1.0000
  H   H15       1.0  0.89040  0.35380  0.21353  1.0000
  H   H16       1.0  0.53660  0.89040  0.38020  1.0000
  H   H17       1.0  0.64620  0.53660  0.54687  1.0000
  H   H18       1.0  0.10960  0.64620  0.71353  1.0000
  H   H19       1.0  0.35380  0.89040  0.11980  1.0000
  H   H20       1.0  0.53660  0.64620  0.78647  1.0000
  H   H21       1.0  0.10960  0.46340  0.45313  1.0000
  H   H22       1.0  0.89040  0.53660  0.95313  1.0000
  H   H23       1.0  0.64620  0.10960  0.61980  1.0000
  H   H24       1.0  0.46340  0.35380  0.28647  1.0000
  O   O25       1.0  0.54766  0.08581  0.80658  1.0000
  O   O26       1.0  0.46185  0.54766  0.97325  1.0000
  O   O27       1.0  0.91419  0.46185  0.13991  1.0000
  O   O28       1.0  0.45234  0.91419  0.30658  1.0000
  O   O29       1.0  0.53815  0.45234  0.47325  1.0000
  O   O30       1.0  0.08581  0.53815  0.63991  1.0000
  O   O31       1.0  0.46185  0.91419  0.19342  1.0000
  O   O32       1.0  0.45234  0.53815  0.86009  1.0000
  O   O33       1.0  0.08581  0.54766  0.52675  1.0000
  O   O34       1.0  0.91419  0.45234  0.02675  1.0000
  O   O35       1.0  0.53815  0.08581  0.69342  1.0000
  O   O36       1.0  0.54766  0.46185  0.36009  1.0000
  O   O37       1.0  0.55257  0.01249  0.74011  1.0000
  O   O38       1.0  0.54008  0.55257  0.90678  1.0000
  O   O39       1.0  0.98751  0.54008  0.07344  1.0000
  O   O40       1.0  0.44743  0.98751  0.24011  1.0000
  O   O41       1.0  0.45992  0.44743  0.40678  1.0000
  O   O42       1.0  0.01249  0.45992  0.57344  1.0000
  O   O43       1.0  0.54008  0.98751  0.25989  1.0000
  O   O44       1.0  0.44743  0.45992  0.92656  1.0000
  O   O45       1.0  0.01249  0.55257  0.59322  1.0000
  O   O46       1.0  0.98751  0.44743  0.09322  1.0000
  O   O47       1.0  0.45992  0.01249  0.75989  1.0000
  O   O48       1.0  0.55257  0.54008  0.42656  1.0000
  O   O49       1.0  0.41070  0.77027  0.09018  1.0000
  O   O50       1.0  0.64043  0.41070  0.25685  1.0000
  O   O51       1.0  0.22973  0.64043  0.42351  1.0000
  O   O52       1.0  0.58930  0.22973  0.59018  1.0000
  O   O53       1.0  0.35957  0.58930  0.75685  1.0000
  O   O54       1.0  0.77027  0.35957  0.92351  1.0000
  O   O55       1.0  0.64043  0.22973  0.90982  1.0000
  O   O56       1.0  0.58930  0.35957  0.57649  1.0000
  O   O57       1.0  0.77027  0.41070  0.24315  1.0000
  O   O58       1.0  0.22973  0.58930  0.74315  1.0000
  O   O59       1.0  0.35957  0.77027  0.40982  1.0000
  O   O60       1.0  0.41070  0.64043  0.07649  1.0000
  O   O61       1.0  0.45750  0.65133  0.94771  1.0000
  O   O62       1.0  0.80617  0.45750  0.11438  1.0000
  O   O63       1.0  0.34867  0.80617  0.28104  1.0000
  O   O64       1.0  0.54250  0.34867  0.44771  1.0000
  O   O65       1.0  0.19383  0.54250  0.61438  1.0000
  O   O66       1.0  0.65133  0.19383  0.78104  1.0000
  O   O67       1.0  0.80617  0.34867  0.05229  1.0000
  O   O68       1.0  0.54250  0.19383  0.71896  1.0000
  O   O69       1.0  0.65133  0.45750  0.38562  1.0000
  O   O70       1.0  0.34867  0.54250  0.88562  1.0000
  O   O71       1.0  0.19383  0.65133  0.55229  1.0000
  O   O72       1.0  0.45750  0.80617  0.21896  1.0000
  O   O73       1.0  0.43510  0.66306  0.85757  1.0000
  O   O74       1.0  0.77204  0.43510  0.02424  1.0000
  O   O75       1.0  0.33694  0.77204  0.19090  1.0000
  O   O76       1.0  0.56490  0.33694  0.35757  1.0000
  O   O77       1.0  0.22796  0.56490  0.52424  1.0000
  O   O78       1.0  0.66306  0.22796  0.69090  1.0000
  O   O79       1.0  0.77204  0.33694  0.14243  1.0000
  O   O80       1.0  0.56490  0.22796  0.80910  1.0000
  O   O81       1.0  0.66306  0.43510  0.47576  1.0000
  O   O82       1.0  0.33694  0.56490  0.97576  1.0000
  O   O83       1.0  0.22796  0.66306  0.64243  1.0000
  O   O84       1.0  0.43510  0.77204  0.30910  1.0000
  C   C1        1.0  0.39730  0.83060  0.81700  1.0000
  C   C2        1.0  0.56670  0.39730  0.98367  1.0000
  C   C3        1.0  0.16940  0.56670  0.15033  1.0000
  C   C4        1.0  0.60270  0.16940  0.31700  1.0000
  C   C5        1.0  0.43330  0.60270  0.48367  1.0000
  C   C6        1.0  0.83060  0.43330  0.65033  1.0000
  C   C7        1.0  0.56670  0.16940  0.18300  1.0000
  C   C8        1.0  0.60270  0.43330  0.84967  1.0000
  C   C9        1.0  0.83060  0.39730  0.51633  1.0000
  C   C10       1.0  0.16940  0.60270  0.01633  1.0000
  C   C11       1.0  0.43330  0.83060  0.68300  1.0000
  C   C12       1.0  0.39730  0.56670  0.34967  1.0000
  H   H25       1.0  0.37580  0.83880  0.78810  1.0000
  H   H26       1.0  0.53700  0.37580  0.95477  1.0000
  H   H27       1.0  0.16120  0.53700  0.12143  1.0000
  H   H28       1.0  0.62420  0.16120  0.28810  1.0000
  H   H29       1.0  0.46300  0.62420  0.45477  1.0000
  H   H30       1.0  0.83880  0.46300  0.62143  1.0000
  H   H31       1.0  0.53700  0.16120  0.21190  1.0000
  H   H32       1.0  0.62420  0.46300  0.87857  1.0000
  H   H33       1.0  0.83880  0.37580  0.54523  1.0000
  H   H34       1.0  0.16120  0.62420  0.04523  1.0000
  H   H35       1.0  0.46300  0.83880  0.71190  1.0000
  H   H36       1.0  0.37580  0.53700  0.37857  1.0000
  H   H37       1.0  0.38190  0.82950  0.85590  1.0000
  H   H38       1.0  0.55240  0.38190  0.02257  1.0000
  H   H39       1.0  0.17050  0.55240  0.18923  1.0000
  H   H40       1.0  0.61810  0.17050  0.35590  1.0000
  H   H41       1.0  0.44760  0.61810  0.52257  1.0000
  H   H42       1.0  0.82950  0.44760  0.68923  1.0000
  H   H43       1.0  0.55240  0.17050  0.14410  1.0000
  H   H44       1.0  0.61810  0.44760  0.81077  1.0000
  H   H45       1.0  0.82950  0.38190  0.47743  1.0000
  H   H46       1.0  0.17050  0.61810  0.97743  1.0000
  H   H47       1.0  0.44760  0.82950  0.64410  1.0000
  H   H48       1.0  0.38190  0.55240  0.31077  1.0000
  H   H49       1.0  0.39400  0.79380  0.80830  1.0000
  H   H50       1.0  0.60020  0.39400  0.97497  1.0000
  H   H51       1.0  0.20620  0.60020  0.14163  1.0000
  H   H52       1.0  0.60600  0.20620  0.30830  1.0000
  H   H53       1.0  0.39980  0.60600  0.47497  1.0000
  H   H54       1.0  0.79380  0.39980  0.64163  1.0000
  H   H55       1.0  0.60020  0.20620  0.19170  1.0000
  H   H56       1.0  0.60600  0.39980  0.85837  1.0000
  H   H57       1.0  0.79380  0.39400  0.52503  1.0000
  H   H58       1.0  0.20620  0.60600  0.02503  1.0000
  H   H59       1.0  0.39980  0.79380  0.69170  1.0000
  H   H60       1.0  0.39400  0.60020  0.35837  1.0000
  C   C13       1.0  0.48090  0.83140  0.89903  1.0000
  C   C14       1.0  0.64950  0.48090  0.06570  1.0000
  C   C15       1.0  0.16860  0.64950  0.23236  1.0000
  C   C16       1.0  0.51910  0.16860  0.39903  1.0000
  C   C17       1.0  0.35050  0.51910  0.56570  1.0000
  C   C18       1.0  0.83140  0.35050  0.73236  1.0000
  C   C19       1.0  0.64950  0.16860  0.10097  1.0000
  C   C20       1.0  0.51910  0.35050  0.76764  1.0000
  C   C21       1.0  0.83140  0.48090  0.43430  1.0000
  C   C22       1.0  0.16860  0.51910  0.93430  1.0000
  C   C23       1.0  0.35050  0.83140  0.60097  1.0000
  C   C24       1.0  0.48090  0.64950  0.26764  1.0000
  C   C25       1.0  0.71900  0.10370  0.83120  1.0000
  C   C26       1.0  0.61530  0.71900  0.99787  1.0000
  C   C27       1.0  0.89630  0.61530  0.16453  1.0000
  C   C28       1.0  0.28100  0.89630  0.33120  1.0000
  C   C29       1.0  0.38470  0.28100  0.49787  1.0000
  C   C30       1.0  0.10370  0.38470  0.66453  1.0000
  C   C31       1.0  0.61530  0.89630  0.16880  1.0000
  C   C32       1.0  0.28100  0.38470  0.83547  1.0000
  C   C33       1.0  0.10370  0.71900  0.50213  1.0000
  C   C34       1.0  0.89630  0.28100  0.00213  1.0000
  C   C35       1.0  0.38470  0.10370  0.66880  1.0000
  C   C36       1.0  0.71900  0.61530  0.33547  1.0000
  C   C37       1.0  0.45690  0.79850  0.99951  1.0000
  C   C38       1.0  0.65840  0.45690  0.16618  1.0000
  C   C39       1.0  0.20150  0.65840  0.33284  1.0000
  C   C40       1.0  0.54310  0.20150  0.49951  1.0000
  C   C41       1.0  0.34160  0.54310  0.66618  1.0000
  C   C42       1.0  0.79850  0.34160  0.83284  1.0000
  C   C43       1.0  0.65840  0.20150  0.00049  1.0000
  C   C44       1.0  0.54310  0.34160  0.66716  1.0000
  C   C45       1.0  0.79850  0.45690  0.33382  1.0000
  C   C46       1.0  0.20150  0.54310  0.83382  1.0000
  C   C47       1.0  0.34160  0.79850  0.50049  1.0000
  C   C48       1.0  0.45690  0.65840  0.16716  1.0000
  C   C49       1.0  0.44850  0.67940  0.90920  1.0000
  C   C50       1.0  0.76910  0.44850  0.07587  1.0000
  C   C51       1.0  0.32060  0.76910  0.24253  1.0000
  C   C52       1.0  0.55150  0.32060  0.40920  1.0000
  C   C53       1.0  0.23090  0.55150  0.57587  1.0000
  C   C54       1.0  0.67940  0.23090  0.74253  1.0000
  C   C55       1.0  0.76910  0.32060  0.09080  1.0000
  C   C56       1.0  0.55150  0.23090  0.75747  1.0000
  C   C57       1.0  0.67940  0.44850  0.42413  1.0000
  C   C58       1.0  0.32060  0.55150  0.92413  1.0000
  C   C59       1.0  0.23090  0.67940  0.59080  1.0000
  C   C60       1.0  0.44850  0.76910  0.25747  1.0000
  C   C61       1.0  0.46010  0.73670  0.92640  1.0000
  C   C62       1.0  0.72340  0.46010  0.09307  1.0000
  C   C63       1.0  0.26330  0.72340  0.25973  1.0000
  C   C64       1.0  0.53990  0.26330  0.42640  1.0000
  C   C65       1.0  0.27660  0.53990  0.59307  1.0000
  C   C66       1.0  0.73670  0.27660  0.75973  1.0000
  C   C67       1.0  0.72340  0.26330  0.07360  1.0000
  C   C68       1.0  0.53990  0.27660  0.74027  1.0000
  C   C69       1.0  0.73670  0.46010  0.40693  1.0000
  C   C70       1.0  0.26330  0.53990  0.90693  1.0000
  C   C71       1.0  0.27660  0.73670  0.57360  1.0000
  C   C72       1.0  0.46010  0.72340  0.24027  1.0000
  C   C73       1.0  0.75370  0.07800  0.81650  1.0000
  C   C74       1.0  0.67570  0.75370  0.98317  1.0000
  C   C75       1.0  0.92200  0.67570  0.14983  1.0000
  C   C76       1.0  0.24630  0.92200  0.31650  1.0000
  C   C77       1.0  0.32430  0.24630  0.48317  1.0000
  C   C78       1.0  0.07800  0.32430  0.64983  1.0000
  C   C79       1.0  0.67570  0.92200  0.18350  1.0000
  C   C80       1.0  0.24630  0.32430  0.85017  1.0000
  C   C81       1.0  0.07800  0.75370  0.51683  1.0000
  C   C82       1.0  0.92200  0.24630  0.01683  1.0000
  C   C83       1.0  0.32430  0.07800  0.68350  1.0000
  C   C84       1.0  0.75370  0.67570  0.35017  1.0000
  H   H61       1.0  0.79360  0.10060  0.82130  1.0000
  H   H62       1.0  0.69300  0.79360  0.98797  1.0000
  H   H63       1.0  0.89940  0.69300  0.15463  1.0000
  H   H64       1.0  0.20640  0.89940  0.32130  1.0000
  H   H65       1.0  0.30700  0.20640  0.48797  1.0000
  H   H66       1.0  0.10060  0.30700  0.65463  1.0000
  H   H67       1.0  0.69300  0.89940  0.17870  1.0000
  H   H68       1.0  0.20640  0.30700  0.84537  1.0000
  H   H69       1.0  0.10060  0.79360  0.51203  1.0000
  H   H70       1.0  0.89940  0.20640  0.01203  1.0000
  H   H71       1.0  0.30700  0.10060  0.67870  1.0000
  H   H72       1.0  0.79360  0.69300  0.34537  1.0000
  C   C85       1.0  0.47320  0.84100  0.95645  1.0000
  C   C86       1.0  0.63220  0.47320  0.12312  1.0000
  C   C87       1.0  0.15900  0.63220  0.28978  1.0000
  C   C88       1.0  0.52680  0.15900  0.45645  1.0000
  C   C89       1.0  0.36780  0.52680  0.62312  1.0000
  C   C90       1.0  0.84100  0.36780  0.78978  1.0000
  C   C91       1.0  0.63220  0.15900  0.04355  1.0000
  C   C92       1.0  0.52680  0.36780  0.71022  1.0000
  C   C93       1.0  0.84100  0.47320  0.37688  1.0000
  C   C94       1.0  0.15900  0.52680  0.87688  1.0000
  C   C95       1.0  0.36780  0.84100  0.54355  1.0000
  C   C96       1.0  0.47320  0.63220  0.21022  1.0000
  H   H73       1.0  0.47910  0.87730  0.96740  1.0000
  H   H74       1.0  0.60180  0.47910  0.13407  1.0000
  H   H75       1.0  0.12270  0.60180  0.30073  1.0000
  H   H76       1.0  0.52090  0.12270  0.46740  1.0000
  H   H77       1.0  0.39820  0.52090  0.63407  1.0000
  H   H78       1.0  0.87730  0.39820  0.80073  1.0000
  H   H79       1.0  0.60180  0.12270  0.03260  1.0000
  H   H80       1.0  0.52090  0.39820  0.69927  1.0000
  H   H81       1.0  0.87730  0.47910  0.36593  1.0000
  H   H82       1.0  0.12270  0.52090  0.86593  1.0000
  H   H83       1.0  0.39820  0.87730  0.53260  1.0000
  H   H84       1.0  0.47910  0.60180  0.19927  1.0000
  C   C97       1.0  0.67180  0.98920  0.79520  1.0000
  C   C98       1.0  0.68260  0.67180  0.96187  1.0000
  C   C99       1.0  0.01080  0.68260  0.12853  1.0000
  C   C100      1.0  0.32820  0.01080  0.29520  1.0000
  C   C101      1.0  0.31740  0.32820  0.46187  1.0000
  C   C102      1.0  0.98920  0.31740  0.62853  1.0000
  C   C103      1.0  0.68260  0.01080  0.20480  1.0000
  C   C104      1.0  0.32820  0.31740  0.87147  1.0000
  C   C105      1.0  0.98920  0.67180  0.53813  1.0000
  C   C106      1.0  0.01080  0.32820  0.03813  1.0000
  C   C107      1.0  0.31740  0.98920  0.70480  1.0000
  C   C108      1.0  0.67180  0.68260  0.37147  1.0000
  H   H85       1.0  0.65670  0.95180  0.78000  1.0000
  H   H86       1.0  0.70490  0.65670  0.94667  1.0000
  H   H87       1.0  0.04820  0.70490  0.11333  1.0000
  H   H88       1.0  0.34330  0.04820  0.28000  1.0000
  H   H89       1.0  0.29510  0.34330  0.44667  1.0000
  H   H90       1.0  0.95180  0.29510  0.61333  1.0000
  H   H91       1.0  0.70490  0.04820  0.22000  1.0000
  H   H92       1.0  0.34330  0.29510  0.88667  1.0000
  H   H93       1.0  0.95180  0.65670  0.55333  1.0000
  H   H94       1.0  0.04820  0.34330  0.05333  1.0000
  H   H95       1.0  0.29510  0.95180  0.72000  1.0000
  H   H96       1.0  0.65670  0.70490  0.38667  1.0000
  C   C109      1.0  0.46010  0.87730  0.81503  1.0000
  C   C110      1.0  0.58280  0.46010  0.98170  1.0000
  C   C111      1.0  0.12270  0.58280  0.14836  1.0000
  C   C112      1.0  0.53990  0.12270  0.31503  1.0000
  C   C113      1.0  0.41720  0.53990  0.48170  1.0000
  C   C114      1.0  0.87730  0.41720  0.64836  1.0000
  C   C115      1.0  0.58280  0.12270  0.18497  1.0000
  C   C116      1.0  0.53990  0.41720  0.85164  1.0000
  C   C117      1.0  0.87730  0.46010  0.51830  1.0000
  C   C118      1.0  0.12270  0.53990  0.01830  1.0000
  C   C119      1.0  0.41720  0.87730  0.68497  1.0000
  C   C120      1.0  0.46010  0.58280  0.35164  1.0000
  C   C121      1.0  0.48100  0.92270  0.77337  1.0000
  C   C122      1.0  0.55830  0.48100  0.94004  1.0000
  C   C123      1.0  0.07730  0.55830  0.10670  1.0000
  C   C124      1.0  0.51900  0.07730  0.27337  1.0000
  C   C125      1.0  0.44170  0.51900  0.44004  1.0000
  C   C126      1.0  0.92270  0.44170  0.60670  1.0000
  C   C127      1.0  0.55830  0.07730  0.22663  1.0000
  C   C128      1.0  0.51900  0.44170  0.89330  1.0000
  C   C129      1.0  0.92270  0.48100  0.55996  1.0000
  C   C130      1.0  0.07730  0.51900  0.05996  1.0000
  C   C131      1.0  0.44170  0.92270  0.72663  1.0000
  C   C132      1.0  0.48100  0.55830  0.39330  1.0000
  C   C133      1.0  0.65660  0.06350  0.83080  1.0000
  C   C134      1.0  0.59310  0.65660  0.99747  1.0000
  C   C135      1.0  0.93650  0.59310  0.16413  1.0000
  C   C136      1.0  0.34340  0.93650  0.33080  1.0000
  C   C137      1.0  0.40690  0.34340  0.49747  1.0000
  C   C138      1.0  0.06350  0.40690  0.66413  1.0000
  C   C139      1.0  0.59310  0.93650  0.16920  1.0000
  C   C140      1.0  0.34340  0.40690  0.83587  1.0000
  C   C141      1.0  0.06350  0.65660  0.50253  1.0000
  C   C142      1.0  0.93650  0.34340  0.00253  1.0000
  C   C143      1.0  0.40690  0.06350  0.66920  1.0000
  C   C144      1.0  0.65660  0.59310  0.33587  1.0000
  H   H97       1.0  0.63120  0.07650  0.84170  1.0000
  H   H98       1.0  0.55470  0.63120  0.00837  1.0000
  H   H99       1.0  0.92350  0.55470  0.17503  1.0000
  H   H100      1.0  0.36880  0.92350  0.34170  1.0000
  H   H101      1.0  0.44530  0.36880  0.50837  1.0000
  H   H102      1.0  0.07650  0.44530  0.67503  1.0000
  H   H103      1.0  0.55470  0.92350  0.15830  1.0000
  H   H104      1.0  0.36880  0.44530  0.82497  1.0000
  H   H105      1.0  0.07650  0.63120  0.49163  1.0000
  H   H106      1.0  0.92350  0.36880  0.99163  1.0000
  H   H107      1.0  0.44530  0.07650  0.65830  1.0000
  H   H108      1.0  0.63120  0.55470  0.32497  1.0000
  C   C145      1.0  0.44590  0.80920  0.06030  1.0000
  C   C146      1.0  0.63670  0.44590  0.22697  1.0000
  C   C147      1.0  0.19080  0.63670  0.39363  1.0000
  C   C148      1.0  0.55410  0.19080  0.56030  1.0000
  C   C149      1.0  0.36330  0.55410  0.72697  1.0000
  C   C150      1.0  0.80920  0.36330  0.89363  1.0000
  C   C151      1.0  0.63670  0.19080  0.93970  1.0000
  C   C152      1.0  0.55410  0.36330  0.60637  1.0000
  C   C153      1.0  0.80920  0.44590  0.27303  1.0000
  C   C154      1.0  0.19080  0.55410  0.77303  1.0000
  C   C155      1.0  0.36330  0.80920  0.43970  1.0000
  C   C156      1.0  0.44590  0.63670  0.10637  1.0000
  C   C157      1.0  0.47110  0.77880  0.88300  1.0000
  C   C158      1.0  0.69230  0.47110  0.04967  1.0000
  C   C159      1.0  0.22120  0.69230  0.21633  1.0000
  C   C160      1.0  0.52890  0.22120  0.38300  1.0000
  C   C161      1.0  0.30770  0.52890  0.54967  1.0000
  C   C162      1.0  0.77880  0.30770  0.71633  1.0000
  C   C163      1.0  0.69230  0.22120  0.11700  1.0000
  C   C164      1.0  0.52890  0.30770  0.78367  1.0000
  C   C165      1.0  0.77880  0.47110  0.45033  1.0000
  C   C166      1.0  0.22120  0.52890  0.95033  1.0000
  C   C167      1.0  0.30770  0.77880  0.61700  1.0000
  C   C168      1.0  0.47110  0.69230  0.28367  1.0000
  H   H109      1.0  0.47170  0.77020  0.84300  1.0000
  H   H110      1.0  0.70150  0.47170  0.00967  1.0000
  H   H111      1.0  0.22980  0.70150  0.17633  1.0000
  H   H112      1.0  0.52830  0.22980  0.34300  1.0000
  H   H113      1.0  0.29850  0.52830  0.50967  1.0000
  H   H114      1.0  0.77020  0.29850  0.67633  1.0000
  H   H115      1.0  0.70150  0.22980  0.15700  1.0000
  H   H116      1.0  0.52830  0.29850  0.82367  1.0000
  H   H117      1.0  0.77020  0.47170  0.49033  1.0000
  H   H118      1.0  0.22980  0.52830  0.99033  1.0000
  H   H119      1.0  0.29850  0.77020  0.65700  1.0000
  H   H120      1.0  0.47170  0.70150  0.32367  1.0000
  C   C169      1.0  0.73900  0.16180  0.85590  1.0000
  C   C170      1.0  0.57720  0.73900  0.02257  1.0000
  C   C171      1.0  0.83820  0.57720  0.18923  1.0000
  C   C172      1.0  0.26100  0.83820  0.35590  1.0000
  C   C173      1.0  0.42280  0.26100  0.52257  1.0000
  C   C174      1.0  0.16180  0.42280  0.68923  1.0000
  C   C175      1.0  0.57720  0.83820  0.14410  1.0000
  C   C176      1.0  0.26100  0.42280  0.81077  1.0000
  C   C177      1.0  0.16180  0.73900  0.47743  1.0000
  C   C178      1.0  0.83820  0.26100  0.97743  1.0000
  C   C179      1.0  0.42280  0.16180  0.64410  1.0000
  C   C180      1.0  0.73900  0.57720  0.31077  1.0000
  H   H121      1.0  0.72920  0.15860  0.89740  1.0000
  H   H122      1.0  0.57060  0.72920  0.06407  1.0000
  H   H123      1.0  0.84140  0.57060  0.23073  1.0000
  H   H124      1.0  0.27080  0.84140  0.39740  1.0000
  H   H125      1.0  0.42940  0.27080  0.56407  1.0000
  H   H126      1.0  0.15860  0.42940  0.73073  1.0000
  H   H127      1.0  0.57060  0.84140  0.10260  1.0000
  H   H128      1.0  0.27080  0.42940  0.76927  1.0000
  H   H129      1.0  0.15860  0.72920  0.43593  1.0000
  H   H130      1.0  0.84140  0.27080  0.93593  1.0000
  H   H131      1.0  0.42940  0.15860  0.60260  1.0000
  H   H132      1.0  0.72920  0.57060  0.26927  1.0000
  H   H133      1.0  0.72070  0.17980  0.83520  1.0000
  H   H134      1.0  0.54090  0.72070  0.00187  1.0000
  H   H135      1.0  0.82020  0.54090  0.16853  1.0000
  H   H136      1.0  0.27930  0.82020  0.33520  1.0000
  H   H137      1.0  0.45910  0.27930  0.50187  1.0000
  H   H138      1.0  0.17980  0.45910  0.66853  1.0000
  H   H139      1.0  0.54090  0.82020  0.16480  1.0000
  H   H140      1.0  0.27930  0.45910  0.83147  1.0000
  H   H141      1.0  0.17980  0.72070  0.49813  1.0000
  H   H142      1.0  0.82020  0.27930  0.99813  1.0000
  H   H143      1.0  0.45910  0.17980  0.66480  1.0000
  H   H144      1.0  0.72070  0.54090  0.33147  1.0000
  H   H145      1.0  0.78030  0.18500  0.85140  1.0000
  H   H146      1.0  0.59530  0.78030  0.01807  1.0000
  H   H147      1.0  0.81500  0.59530  0.18473  1.0000
  H   H148      1.0  0.21970  0.81500  0.35140  1.0000
  H   H149      1.0  0.40470  0.21970  0.51807  1.0000
  H   H150      1.0  0.18500  0.40470  0.68473  1.0000
  H   H151      1.0  0.59530  0.81500  0.14860  1.0000
  H   H152      1.0  0.21970  0.40470  0.81527  1.0000
  H   H153      1.0  0.18500  0.78030  0.48193  1.0000
  H   H154      1.0  0.81500  0.21970  0.98193  1.0000
  H   H155      1.0  0.40470  0.18500  0.64860  1.0000
  H   H156      1.0  0.78030  0.59530  0.31527  1.0000
  C   C181      1.0  0.49960  0.87790  0.85387  1.0000
  C   C182      1.0  0.62170  0.49960  0.02054  1.0000
  C   C183      1.0  0.12210  0.62170  0.18720  1.0000
  C   C184      1.0  0.50040  0.12210  0.35387  1.0000
  C   C185      1.0  0.37830  0.50040  0.52054  1.0000
  C   C186      1.0  0.87790  0.37830  0.68720  1.0000
  C   C187      1.0  0.62170  0.12210  0.14613  1.0000
  C   C188      1.0  0.50040  0.37830  0.81280  1.0000
  C   C189      1.0  0.87790  0.49960  0.47946  1.0000
  C   C190      1.0  0.12210  0.50040  0.97946  1.0000
  C   C191      1.0  0.37830  0.87790  0.64613  1.0000
  C   C192      1.0  0.49960  0.62170  0.31280  1.0000
  C   C193      1.0  0.45130  0.74870  0.98475  1.0000
  C   C194      1.0  0.70260  0.45130  0.15142  1.0000
  C   C195      1.0  0.25130  0.70260  0.31808  1.0000
  C   C196      1.0  0.54870  0.25130  0.48475  1.0000
  C   C197      1.0  0.29740  0.54870  0.65142  1.0000
  C   C198      1.0  0.74870  0.29740  0.81808  1.0000
  C   C199      1.0  0.70260  0.25130  0.01525  1.0000
  C   C200      1.0  0.54870  0.29740  0.68192  1.0000
  C   C201      1.0  0.74870  0.45130  0.34858  1.0000
  C   C202      1.0  0.25130  0.54870  0.84858  1.0000
  C   C203      1.0  0.29740  0.74870  0.51525  1.0000
  C   C204      1.0  0.45130  0.70260  0.18192  1.0000
  H   H157      1.0  0.44110  0.72030  0.01380  1.0000
  H   H158      1.0  0.72080  0.44110  0.18047  1.0000
  H   H159      1.0  0.27970  0.72080  0.34713  1.0000
  H   H160      1.0  0.55890  0.27970  0.51380  1.0000
  H   H161      1.0  0.27920  0.55890  0.68047  1.0000
  H   H162      1.0  0.72030  0.27920  0.84713  1.0000
  H   H163      1.0  0.72080  0.27970  0.98620  1.0000
  H   H164      1.0  0.55890  0.27920  0.65287  1.0000
  H   H165      1.0  0.72030  0.44110  0.31953  1.0000
  H   H166      1.0  0.27970  0.55890  0.81953  1.0000
  H   H167      1.0  0.27920  0.72030  0.48620  1.0000
  H   H168      1.0  0.44110  0.72080  0.15287  1.0000
  C   C205      1.0  0.53530  0.96670  0.77850  1.0000
  C   C206      1.0  0.56860  0.53530  0.94517  1.0000
  C   C207      1.0  0.03330  0.56860  0.11183  1.0000
  C   C208      1.0  0.46470  0.03330  0.27850  1.0000
  C   C209      1.0  0.43140  0.46470  0.44517  1.0000
  C   C210      1.0  0.96670  0.43140  0.61183  1.0000
  C   C211      1.0  0.56860  0.03330  0.22150  1.0000
  C   C212      1.0  0.46470  0.43140  0.88817  1.0000
  C   C213      1.0  0.96670  0.53530  0.55483  1.0000
  C   C214      1.0  0.03330  0.46470  0.05483  1.0000
  C   C215      1.0  0.43140  0.96670  0.72150  1.0000
  C   C216      1.0  0.53530  0.56860  0.38817  1.0000
  C   C217      1.0  0.57480  0.96600  0.81510  1.0000
  C   C218      1.0  0.60880  0.57480  0.98177  1.0000
  C   C219      1.0  0.03400  0.60880  0.14843  1.0000
  C   C220      1.0  0.42520  0.03400  0.31510  1.0000
  C   C221      1.0  0.39120  0.42520  0.48177  1.0000
  C   C222      1.0  0.96600  0.39120  0.64843  1.0000
  C   C223      1.0  0.60880  0.03400  0.18490  1.0000
  C   C224      1.0  0.42520  0.39120  0.85157  1.0000
  C   C225      1.0  0.96600  0.57480  0.51823  1.0000
  C   C226      1.0  0.03400  0.42520  0.01823  1.0000
  C   C227      1.0  0.39120  0.96600  0.68490  1.0000
  C   C228      1.0  0.57480  0.60880  0.35157  1.0000
  C   C229      1.0  0.55470  0.91910  0.85296  1.0000
  C   C230      1.0  0.63560  0.55470  0.01963  1.0000
  C   C231      1.0  0.08090  0.63560  0.18629  1.0000
  C   C232      1.0  0.44530  0.08090  0.35296  1.0000
  C   C233      1.0  0.36440  0.44530  0.51963  1.0000
  C   C234      1.0  0.91910  0.36440  0.68629  1.0000
  C   C235      1.0  0.63560  0.08090  0.14704  1.0000
  C   C236      1.0  0.44530  0.36440  0.81371  1.0000
  C   C237      1.0  0.91910  0.55470  0.48037  1.0000
  C   C238      1.0  0.08090  0.44530  0.98037  1.0000
  C   C239      1.0  0.36440  0.91910  0.64704  1.0000
  C   C240      1.0  0.55470  0.63560  0.31371  1.0000
  H   H169      1.0  0.58060  0.91650  0.87870  1.0000
  H   H170      1.0  0.66410  0.58060  0.04537  1.0000
  H   H171      1.0  0.08350  0.66410  0.21203  1.0000
  H   H172      1.0  0.41940  0.08350  0.37870  1.0000
  H   H173      1.0  0.33590  0.41940  0.54537  1.0000
  H   H174      1.0  0.91650  0.33590  0.71203  1.0000
  H   H175      1.0  0.66410  0.08350  0.12130  1.0000
  H   H176      1.0  0.41940  0.33590  0.78797  1.0000
  H   H177      1.0  0.91650  0.58060  0.45463  1.0000
  H   H178      1.0  0.08350  0.41940  0.95463  1.0000
  H   H179      1.0  0.33590  0.91650  0.62130  1.0000
  H   H180      1.0  0.58060  0.66410  0.28797  1.0000
  C   C241      1.0  0.63570  0.00860  0.81520  1.0000
  C   C242      1.0  0.62710  0.63570  0.98187  1.0000
  C   C243      1.0  0.99140  0.62710  0.14853  1.0000
  C   C244      1.0  0.36430  0.99140  0.31520  1.0000
  C   C245      1.0  0.37290  0.36430  0.48187  1.0000
  C   C246      1.0  0.00860  0.37290  0.64853  1.0000
  C   C247      1.0  0.62710  0.99140  0.18480  1.0000
  C   C248      1.0  0.36430  0.37290  0.85147  1.0000
  C   C249      1.0  0.00860  0.63570  0.51813  1.0000
  C   C250      1.0  0.99140  0.36430  0.01813  1.0000
  C   C251      1.0  0.37290  0.00860  0.68480  1.0000
  C   C252      1.0  0.63570  0.62710  0.35147  1.0000
  C   C253      1.0  0.73410  0.02830  0.79810  1.0000
  C   C254      1.0  0.70580  0.73410  0.96477  1.0000
  C   C255      1.0  0.97170  0.70580  0.13143  1.0000
  C   C256      1.0  0.26590  0.97170  0.29810  1.0000
  C   C257      1.0  0.29420  0.26590  0.46477  1.0000
  C   C258      1.0  0.02830  0.29420  0.63143  1.0000
  C   C259      1.0  0.70580  0.97170  0.20190  1.0000
  C   C260      1.0  0.26590  0.29420  0.86857  1.0000
  C   C261      1.0  0.02830  0.73410  0.53523  1.0000
  C   C262      1.0  0.97170  0.26590  0.03523  1.0000
  C   C263      1.0  0.29420  0.02830  0.70190  1.0000
  C   C264      1.0  0.73410  0.70580  0.36857  1.0000
  C   C265      1.0  0.77350  0.00320  0.78670  1.0000
  C   C266      1.0  0.77030  0.77350  0.95337  1.0000
  C   C267      1.0  0.99680  0.77030  0.12003  1.0000
  C   C268      1.0  0.22650  0.99680  0.28670  1.0000
  C   C269      1.0  0.22970  0.22650  0.45337  1.0000
  C   C270      1.0  0.00320  0.22970  0.62003  1.0000
  C   C271      1.0  0.77030  0.99680  0.21330  1.0000
  C   C272      1.0  0.22650  0.22970  0.87997  1.0000
  C   C273      1.0  0.00320  0.77350  0.54663  1.0000
  C   C274      1.0  0.99680  0.22650  0.04663  1.0000
  C   C275      1.0  0.22970  0.00320  0.71330  1.0000
  C   C276      1.0  0.77350  0.77030  0.37997  1.0000
  H   H181      1.0  0.77350  0.99550  0.74500  1.0000
  H   H182      1.0  0.77800  0.77350  0.91167  1.0000
  H   H183      1.0  0.00450  0.77800  0.07833  1.0000
  H   H184      1.0  0.22650  0.00450  0.24500  1.0000
  H   H185      1.0  0.22200  0.22650  0.41167  1.0000
  H   H186      1.0  0.99550  0.22200  0.57833  1.0000
  H   H187      1.0  0.77800  0.00450  0.25500  1.0000
  H   H188      1.0  0.22650  0.22200  0.92167  1.0000
  H   H189      1.0  0.99550  0.77350  0.58833  1.0000
  H   H190      1.0  0.00450  0.22650  0.08833  1.0000
  H   H191      1.0  0.22200  0.99550  0.75500  1.0000
  H   H192      1.0  0.77350  0.77800  0.42167  1.0000
  H   H193      1.0  0.75950  0.96770  0.80860  1.0000
  H   H194      1.0  0.79180  0.75950  0.97527  1.0000
  H   H195      1.0  0.03230  0.79180  0.14193  1.0000
  H   H196      1.0  0.24050  0.03230  0.30860  1.0000
  H   H197      1.0  0.20820  0.24050  0.47527  1.0000
  H   H198      1.0  0.96770  0.20820  0.64193  1.0000
  H   H199      1.0  0.79180  0.03230  0.19140  1.0000
  H   H200      1.0  0.24050  0.20820  0.85807  1.0000
  H   H201      1.0  0.96770  0.75950  0.52473  1.0000
  H   H202      1.0  0.03230  0.24050  0.02473  1.0000
  H   H203      1.0  0.20820  0.96770  0.69140  1.0000
  H   H204      1.0  0.75950  0.79180  0.35807  1.0000
  H   H205      1.0  0.81220  0.03050  0.79930  1.0000
  H   H206      1.0  0.78170  0.81220  0.96597  1.0000
  H   H207      1.0  0.96950  0.78170  0.13263  1.0000
  H   H208      1.0  0.18780  0.96950  0.29930  1.0000
  H   H209      1.0  0.21830  0.18780  0.46597  1.0000
  H   H210      1.0  0.03050  0.21830  0.63263  1.0000
  H   H211      1.0  0.78170  0.96950  0.20070  1.0000
  H   H212      1.0  0.18780  0.21830  0.86737  1.0000
  H   H213      1.0  0.03050  0.81220  0.53403  1.0000
  H   H214      1.0  0.96950  0.18780  0.03403  1.0000
  H   H215      1.0  0.21830  0.03050  0.70070  1.0000
  H   H216      1.0  0.81220  0.78170  0.36737  1.0000
