data_image0
_chemical_formula_structural       In2O16C6N2C2H2C8H2C4H2C4H2C2H2C4H2C6H2C2H2C2H2C2H2C6H2C4H2C2H2
_chemical_formula_sum              "In2 O16 C54 N2 H26"
_cell_length_a       9.8441
_cell_length_b       13.3787
_cell_length_c       13.8506
_cell_angle_alpha    112.559
_cell_angle_beta     97.112
_cell_angle_gamma    91.975

_space_group_name_H-M_alt    "P 1"
_space_group_IT_number       1

loop_
  _space_group_symop_operation_xyz
  'x, y, z'

loop_
  _atom_site_type_symbol
  _atom_site_label
  _atom_site_symmetry_multiplicity
  _atom_site_fract_x
  _atom_site_fract_y
  _atom_site_fract_z
  _atom_site_occupancy
  In  In1       1.0  0.27854  0.19710  0.30073  1.0000
  In  In2       1.0  0.72146  0.80290  0.69927  1.0000
  O   O1        1.0  0.36850  0.35960  0.44140  1.0000
  O   O2        1.0  0.63150  0.64040  0.55860  1.0000
  O   O3        1.0  0.04130  0.19780  0.32470  1.0000
  O   O4        1.0  0.95870  0.80220  0.67530  1.0000
  O   O5        1.0  0.31330  0.21410  0.46830  1.0000
  O   O6        1.0  0.68670  0.78590  0.53170  1.0000
  O   O7        1.0  0.16070  0.06060  0.13930  1.0000
  O   O8        1.0  0.83930  0.93940  0.86070  1.0000
  O   O9        1.0  0.13500  0.29810  0.25520  1.0000
  O   O10       1.0  0.86500  0.70190  0.74480  1.0000
  O   O11       1.0  0.52140  0.18270  0.31090  1.0000
  O   O12       1.0  0.47860  0.81730  0.68910  1.0000
  O   O13       1.0  0.25950  0.02400  0.27060  1.0000
  O   O14       1.0  0.74050  0.97600  0.72940  1.0000
  O   O15       1.0  0.40470  0.24400  0.20340  1.0000
  O   O16       1.0  0.59530  0.75600  0.79660  1.0000
  C   C1        1.0  0.36460  0.31220  0.50380  1.0000
  C   C2        1.0  0.63540  0.68780  0.49620  1.0000
  C   C3        1.0  0.18370  0.99340  0.18080  1.0000
  C   C4        1.0  0.81630  0.00660  0.81920  1.0000
  C   C5        1.0  0.89430  0.28570  0.24240  1.0000
  C   C6        1.0  0.10570  0.71430  0.75760  1.0000
  N   N1        1.0  0.75830  0.55900  0.94960  1.0000
  N   N2        1.0  0.24170  0.44100  0.05040  1.0000
  C   C7        1.0  0.77330  0.24560  0.26140  1.0000
  C   C8        1.0  0.22670  0.75440  0.73860  1.0000
  H   H1        1.0  0.77700  0.20350  0.30150  1.0000
  H   H2        1.0  0.22300  0.79650  0.69850  1.0000
  C   C9        1.0  0.51600  0.22800  0.24800  1.0000
  C   C10       1.0  0.48400  0.77200  0.75200  1.0000
  C   C11       1.0  0.42820  0.36460  0.61620  1.0000
  C   C12       1.0  0.57180  0.63540  0.38380  1.0000
  C   C13       1.0  0.10940  0.88350  0.13510  1.0000
  C   C14       1.0  0.89060  0.11650  0.86490  1.0000
  C   C15       1.0  0.52980  0.45070  0.64820  1.0000
  C   C16       1.0  0.47020  0.54930  0.35180  1.0000
  H   H3        1.0  0.54660  0.48400  0.60240  1.0000
  H   H4        1.0  0.45340  0.51600  0.39760  1.0000
  C   C17       1.0  0.75920  0.37240  0.14020  1.0000
  C   C18       1.0  0.24080  0.62760  0.85980  1.0000
  C   C19       1.0  0.85030  0.52780  0.10290  1.0000
  C   C20       1.0  0.14970  0.47220  0.89710  1.0000
  H   H5        1.0  0.91360  0.54920  0.16450  1.0000
  H   H6        1.0  0.08640  0.45080  0.83550  1.0000
  C   C21       1.0  0.64640  0.26740  0.22140  1.0000
  C   C22       1.0  0.35360  0.73260  0.77860  1.0000
  C   C23       1.0  0.00660  0.85300  0.04880  1.0000
  C   C24       1.0  0.99340  0.14700  0.95120  1.0000
  H   H7        1.0  0.99370  0.89830  0.01230  1.0000
  H   H8        1.0  0.00630  0.10170  0.98770  1.0000
  C   C25       1.0  0.88620  0.35020  0.18250  1.0000
  C   C26       1.0  0.11380  0.64980  0.81750  1.0000
  H   H9        1.0  0.96690  0.37880  0.17050  1.0000
  H   H10       1.0  0.03310  0.62120  0.82950  1.0000
  C   C27       1.0  0.57750  0.43960  0.81870  1.0000
  C   C28       1.0  0.42250  0.56040  0.18130  1.0000
  C   C29       1.0  0.64080  0.32930  0.16140  1.0000
  C   C30       1.0  0.35920  0.67070  0.83860  1.0000
  H   H11       1.0  0.55540  0.34280  0.13420  1.0000
  H   H12       1.0  0.44460  0.65720  0.86580  1.0000
  C   C31       1.0  0.75590  0.43780  0.07470  1.0000
  C   C32       1.0  0.24410  0.56220  0.92530  1.0000
  C   C33       1.0  0.84860  0.58510  0.03750  1.0000
  C   C34       1.0  0.15140  0.41490  0.96250  1.0000
  C   C35       1.0  0.60440  0.48620  0.74700  1.0000
  C   C36       1.0  0.39560  0.51380  0.25300  1.0000
  H   H13       1.0  0.67420  0.54210  0.76710  1.0000
  H   H14       1.0  0.32580  0.45790  0.23290  1.0000
  C   C37       1.0  0.39670  0.32000  0.68710  1.0000
  C   C38       1.0  0.60330  0.68000  0.31290  1.0000
  H   H15       1.0  0.32800  0.26330  0.66640  1.0000
  H   H16       1.0  0.67200  0.73670  0.33360  1.0000
  C   C39       1.0  0.46790  0.36030  0.78800  1.0000
  C   C40       1.0  0.53210  0.63970  0.21200  1.0000
  H   H17       1.0  0.44220  0.33390  0.83680  1.0000
  H   H18       1.0  0.55780  0.66610  0.16320  1.0000
  C   C41       1.0  0.66310  0.41060  0.98410  1.0000
  C   C42       1.0  0.33690  0.58940  0.01590  1.0000
  H   H19       1.0  0.59920  0.35070  0.96330  1.0000
  H   H20       1.0  0.40080  0.64930  0.03670  1.0000
  C   C43       1.0  0.94620  0.68700  0.06850  1.0000
  C   C44       1.0  0.05380  0.31300  0.93150  1.0000
  C   C45       1.0  0.66470  0.47240  0.92390  1.0000
  C   C46       1.0  0.33530  0.52760  0.07610  1.0000
  C   C47       1.0  0.92230  0.75720  0.01490  1.0000
  C   C48       1.0  0.07770  0.24280  0.98510  1.0000
  H   H21       1.0  0.85170  0.73950  0.95820  1.0000
  H   H22       1.0  0.14830  0.26050  0.04180  1.0000
  C   C49       1.0  0.02990  0.25740  0.27680  1.0000
  C   C50       1.0  0.97010  0.74260  0.72320  1.0000
  C   C51       1.0  0.05370  0.71440  0.14900  1.0000
  C   C52       1.0  0.94630  0.28560  0.85100  1.0000
  H   H23       1.0  0.07390  0.66630  0.18140  1.0000
  H   H24       1.0  0.92610  0.33370  0.81860  1.0000
  C   C53       1.0  0.13290  0.81220  0.18330  1.0000
  C   C54       1.0  0.86710  0.18780  0.81670  1.0000
  H   H25       1.0  0.20340  0.82990  0.24000  1.0000
  H   H26       1.0  0.79660  0.17010  0.76000  1.0000
