data_image0
_chemical_formula_structural       C8N12Cu4Br4
_chemical_formula_sum              "C8 N12 Cu4 Br4"
_cell_length_a       12.9653
_cell_length_b       30.028
_cell_length_c       8.5444
_cell_angle_alpha    90
_cell_angle_beta     90
_cell_angle_gamma    90

_space_group_name_H-M_alt    "P 1"
_space_group_IT_number       1

loop_
  _space_group_symop_operation_xyz
  'x, y, z'

loop_
  _atom_site_type_symbol
  _atom_site_label
  _atom_site_symmetry_multiplicity
  _atom_site_fract_x
  _atom_site_fract_y
  _atom_site_fract_z
  _atom_site_occupancy
  C   C1        1.0  0.85010  0.25000  0.60470  1.0000
  C   C2        1.0  0.64990  0.75000  0.10470  1.0000
  C   C3        1.0  0.35010  0.25000  0.89530  1.0000
  C   C4        1.0  0.14990  0.75000  0.39530  1.0000
  C   C5        1.0  0.97850  0.25000  0.79380  1.0000
  C   C6        1.0  0.52150  0.75000  0.29380  1.0000
  C   C7        1.0  0.47850  0.25000  0.70620  1.0000
  C   C8        1.0  0.02150  0.75000  0.20620  1.0000
  N   N1        1.0  0.77150  0.25000  0.54730  1.0000
  N   N2        1.0  0.72850  0.75000  0.04730  1.0000
  N   N3        1.0  0.27150  0.25000  0.95270  1.0000
  N   N4        1.0  0.22850  0.75000  0.45270  1.0000
  N   N5        1.0  0.94510  0.25000  0.64910  1.0000
  N   N6        1.0  0.55490  0.75000  0.14910  1.0000
  N   N7        1.0  0.44510  0.25000  0.85090  1.0000
  N   N8        1.0  0.05490  0.75000  0.35090  1.0000
  N   N9        1.0  0.02280  0.25000  0.90760  1.0000
  N   N10       1.0  0.47720  0.75000  0.40760  1.0000
  N   N11       1.0  0.52280  0.25000  0.59240  1.0000
  N   N12       1.0  0.97720  0.75000  0.09240  1.0000
  Cu  Cu1       1.0  0.63661  0.25000  0.44106  1.0000
  Cu  Cu2       1.0  0.86339  0.75000  0.94106  1.0000
  Cu  Cu3       1.0  0.13661  0.25000  0.05894  1.0000
  Cu  Cu4       1.0  0.36339  0.75000  0.55894  1.0000
  Br  Br1       1.0  0.64566  0.25000  0.16935  1.0000
  Br  Br2       1.0  0.85434  0.75000  0.66935  1.0000
  Br  Br3       1.0  0.14566  0.25000  0.33065  1.0000
  Br  Br4       1.0  0.35434  0.75000  0.83065  1.0000
