data_image0
_chemical_formula_structural       Br4Cu4N12C8
_chemical_formula_sum              "Br4 Cu4 N12 C8"
_cell_length_a       12.9332
_cell_length_b       29.8053
_cell_length_c       8.5306
_cell_angle_alpha    90
_cell_angle_beta     90
_cell_angle_gamma    90

_space_group_name_H-M_alt    "P 1"
_space_group_IT_number       1

loop_
  _space_group_symop_operation_xyz
  'x, y, z'

loop_
  _atom_site_type_symbol
  _atom_site_label
  _atom_site_symmetry_multiplicity
  _atom_site_fract_x
  _atom_site_fract_y
  _atom_site_fract_z
  _atom_site_occupancy
  Br  Br1       1.0  0.35999  0.25000  0.83432  1.0000
  Br  Br2       1.0  0.14001  0.75000  0.33432  1.0000
  Br  Br3       1.0  0.85999  0.25000  0.66568  1.0000
  Br  Br4       1.0  0.64001  0.75000  0.16568  1.0000
  Cu  Cu1       1.0  0.37249  0.25000  0.56097  1.0000
  Cu  Cu2       1.0  0.12751  0.75000  0.06097  1.0000
  Cu  Cu3       1.0  0.87249  0.25000  0.93903  1.0000
  Cu  Cu4       1.0  0.62751  0.75000  0.43903  1.0000
  N   N1        1.0  0.05920  0.25000  0.35570  1.0000
  N   N2        1.0  0.44080  0.75000  0.85570  1.0000
  N   N3        1.0  0.55920  0.25000  0.14430  1.0000
  N   N4        1.0  0.94080  0.75000  0.64430  1.0000
  N   N5        1.0  0.23570  0.25000  0.45760  1.0000
  N   N6        1.0  0.26430  0.75000  0.95760  1.0000
  N   N7        1.0  0.73570  0.25000  0.04240  1.0000
  N   N8        1.0  0.76430  0.75000  0.54240  1.0000
  N   N9        1.0  0.98570  0.25000  0.09220  1.0000
  N   N10       1.0  0.51430  0.75000  0.59220  1.0000
  N   N11       1.0  0.48570  0.25000  0.40780  1.0000
  N   N12       1.0  0.01430  0.75000  0.90780  1.0000
  C   C1        1.0  0.15460  0.25000  0.40060  1.0000
  C   C2        1.0  0.34540  0.75000  0.90060  1.0000
  C   C3        1.0  0.65460  0.25000  0.09940  1.0000
  C   C4        1.0  0.84540  0.75000  0.59940  1.0000
  C   C5        1.0  0.02730  0.25000  0.21090  1.0000
  C   C6        1.0  0.47270  0.75000  0.71090  1.0000
  C   C7        1.0  0.52730  0.25000  0.28910  1.0000
  C   C8        1.0  0.97270  0.75000  0.78910  1.0000
