data_image0
_chemical_formula_structural       Cu4S8O8C16
_chemical_formula_sum              "Cu4 S8 O8 C16"
_cell_length_a       7.92
_cell_length_b       10.52
_cell_length_c       14.39
_cell_angle_alpha    102.5
_cell_angle_beta     104.1
_cell_angle_gamma    100.6

_space_group_name_H-M_alt    "P 1"
_space_group_IT_number       1

loop_
  _space_group_symop_operation_xyz
  'x, y, z'

loop_
  _atom_site_type_symbol
  _atom_site_label
  _atom_site_symmetry_multiplicity
  _atom_site_fract_x
  _atom_site_fract_y
  _atom_site_fract_z
  _atom_site_occupancy
  Cu  Cu1       1.0  0.00720  0.38570  0.02100  1.0000
  Cu  Cu2       1.0  0.99280  0.61430  0.97900  1.0000
  Cu  Cu3       1.0  0.33110  0.48470  0.99020  1.0000
  Cu  Cu4       1.0  0.66890  0.51530  0.00980  1.0000
  S   S1        1.0  0.88910  0.23550  0.86990  1.0000
  S   S2        1.0  0.11090  0.76450  0.13010  1.0000
  S   S3        1.0  0.16920  0.57280  0.87770  1.0000
  S   S4        1.0  0.83080  0.42720  0.12230  1.0000
  S   S5        1.0  0.56260  0.69320  0.10620  1.0000
  S   S6        1.0  0.43740  0.30680  0.89380  1.0000
  S   S7        1.0  0.29540  0.38490  0.11650  1.0000
  S   S8        1.0  0.70460  0.61510  0.88350  1.0000
  O   O1        1.0  0.07110  0.44050  0.61830  1.0000
  O   O2        1.0  0.92890  0.55950  0.38170  1.0000
  O   O3        1.0  0.81880  0.15380  0.61150  1.0000
  O   O4        1.0  0.18120  0.84620  0.38850  1.0000
  O   O5        1.0  0.39200  0.53860  0.38080  1.0000
  O   O6        1.0  0.60800  0.46140  0.61920  1.0000
  O   O7        1.0  0.65430  0.81140  0.37280  1.0000
  O   O8        1.0  0.34570  0.18860  0.62720  1.0000
  C   C1        1.0  0.94310  0.30380  0.78360  1.0000
  C   C2        1.0  0.05690  0.69620  0.21640  1.0000
  C   C3        1.0  0.04690  0.43000  0.78510  1.0000
  C   C4        1.0  0.95310  0.57000  0.21490  1.0000
  C   C5        1.0  0.02190  0.39060  0.67840  1.0000
  C   C6        1.0  0.97810  0.60940  0.32160  1.0000
  C   C7        1.0  0.90510  0.25570  0.67530  1.0000
  C   C8        1.0  0.09490  0.74430  0.32470  1.0000
  C   C9        1.0  0.52000  0.64740  0.20520  1.0000
  C   C10       1.0  0.48000  0.35260  0.79480  1.0000
  C   C11       1.0  0.41140  0.52810  0.20890  1.0000
  C   C12       1.0  0.58860  0.47190  0.79110  1.0000
  C   C13       1.0  0.44130  0.57810  0.31580  1.0000
  C   C14       1.0  0.55870  0.42190  0.68420  1.0000
  C   C15       1.0  0.56160  0.70620  0.31240  1.0000
  C   C16       1.0  0.43840  0.29380  0.68760  1.0000
