data_image0
_chemical_formula_structural       C18Co6O36H18
_chemical_formula_sum              "C18 Co6 O36 H18"
_cell_length_a       12.5965
_cell_length_b       12.5965
_cell_length_c       8.2395
_cell_angle_alpha    90
_cell_angle_beta     90
_cell_angle_gamma    120

_space_group_name_H-M_alt    "P 1"
_space_group_IT_number       1

loop_
  _space_group_symop_operation_xyz
  'x, y, z'

loop_
  _atom_site_type_symbol
  _atom_site_label
  _atom_site_symmetry_multiplicity
  _atom_site_fract_x
  _atom_site_fract_y
  _atom_site_fract_z
  _atom_site_occupancy
  C   C1        1.0  0.62660  0.81190  0.66400  1.0000
  C   C2        1.0  0.81470  0.62660  0.16400  1.0000
  C   C3        1.0  0.18810  0.81470  0.66400  1.0000
  C   C4        1.0  0.37340  0.18810  0.16400  1.0000
  C   C5        1.0  0.18530  0.37340  0.66400  1.0000
  C   C6        1.0  0.81190  0.18530  0.16400  1.0000
  C   C7        1.0  0.51380  0.47370  0.65720  1.0000
  C   C8        1.0  0.04010  0.51380  0.15720  1.0000
  C   C9        1.0  0.52630  0.04010  0.65720  1.0000
  C   C10       1.0  0.48620  0.52630  0.15720  1.0000
  C   C11       1.0  0.95990  0.48620  0.65720  1.0000
  C   C12       1.0  0.47370  0.95990  0.15720  1.0000
  C   C13       1.0  0.84880  0.70680  0.68530  1.0000
  C   C14       1.0  0.14200  0.84880  0.18530  1.0000
  C   C15       1.0  0.29320  0.14200  0.68530  1.0000
  C   C16       1.0  0.15120  0.29320  0.18530  1.0000
  C   C17       1.0  0.85800  0.15120  0.68530  1.0000
  C   C18       1.0  0.70680  0.85800  0.18530  1.0000
  Co  Co1       1.0  0.66864  0.66474  0.41874  1.0000
  Co  Co2       1.0  0.00390  0.66864  0.91874  1.0000
  Co  Co3       1.0  0.33526  0.00390  0.41874  1.0000
  Co  Co4       1.0  0.33136  0.33526  0.91874  1.0000
  Co  Co5       1.0  0.99610  0.33136  0.41874  1.0000
  Co  Co6       1.0  0.66474  0.99610  0.91874  1.0000
  O   O1        1.0  0.57332  0.72776  0.56260  1.0000
  O   O2        1.0  0.84556  0.57332  0.06260  1.0000
  O   O3        1.0  0.27224  0.84556  0.56260  1.0000
  O   O4        1.0  0.42668  0.27224  0.06260  1.0000
  O   O5        1.0  0.15444  0.42668  0.56260  1.0000
  O   O6        1.0  0.72776  0.15444  0.06260  1.0000
  O   O7        1.0  0.57500  0.83808  0.77470  1.0000
  O   O8        1.0  0.73692  0.57500  0.27470  1.0000
  O   O9        1.0  0.16192  0.73692  0.77470  1.0000
  O   O10       1.0  0.42500  0.16192  0.27470  1.0000
  O   O11       1.0  0.26308  0.42500  0.77470  1.0000
  O   O12       1.0  0.83808  0.26308  0.27470  1.0000
  O   O13       1.0  0.60166  0.50513  0.56100  1.0000
  O   O14       1.0  0.09653  0.60166  0.06100  1.0000
  O   O15       1.0  0.49487  0.09653  0.56100  1.0000
  O   O16       1.0  0.39834  0.49487  0.06100  1.0000
  O   O17       1.0  0.90347  0.39834  0.56100  1.0000
  O   O18       1.0  0.50513  0.90347  0.06100  1.0000
  O   O19       1.0  0.48895  0.39981  0.77350  1.0000
  O   O20       1.0  0.08914  0.48895  0.27350  1.0000
  O   O21       1.0  0.60019  0.08914  0.77350  1.0000
  O   O22       1.0  0.51105  0.60019  0.27350  1.0000
  O   O23       1.0  0.91086  0.51105  0.77350  1.0000
  O   O24       1.0  0.39981  0.91086  0.27350  1.0000
  O   O25       1.0  0.82542  0.75467  0.56590  1.0000
  O   O26       1.0  0.07075  0.82542  0.06590  1.0000
  O   O27       1.0  0.24533  0.07075  0.56590  1.0000
  O   O28       1.0  0.17458  0.24533  0.06590  1.0000
  O   O29       1.0  0.92925  0.17458  0.56590  1.0000
  O   O30       1.0  0.75467  0.92925  0.06590  1.0000
  O   O31       1.0  0.93935  0.76388  0.77850  1.0000
  O   O32       1.0  0.17547  0.93935  0.27850  1.0000
  O   O33       1.0  0.23612  0.17547  0.77850  1.0000
  O   O34       1.0  0.06065  0.23612  0.27850  1.0000
  O   O35       1.0  0.82453  0.06065  0.77850  1.0000
  O   O36       1.0  0.76388  0.82453  0.27850  1.0000
  H   H1        1.0  0.71260  0.86110  0.65600  1.0000
  H   H2        1.0  0.85150  0.71260  0.15600  1.0000
  H   H3        1.0  0.13890  0.85150  0.65600  1.0000
  H   H4        1.0  0.28740  0.13890  0.15600  1.0000
  H   H5        1.0  0.14850  0.28740  0.65600  1.0000
  H   H6        1.0  0.86110  0.14850  0.15600  1.0000
  H   H7        1.0  0.46080  0.50480  0.64100  1.0000
  H   H8        1.0  0.95600  0.46080  0.14100  1.0000
  H   H9        1.0  0.49520  0.95600  0.64100  1.0000
  H   H10       1.0  0.53920  0.49520  0.14100  1.0000
  H   H11       1.0  0.04400  0.53920  0.64100  1.0000
  H   H12       1.0  0.50480  0.04400  0.14100  1.0000
  H   H13       1.0  0.79550  0.62360  0.70800  1.0000
  H   H14       1.0  0.17190  0.79550  0.20800  1.0000
  H   H15       1.0  0.37640  0.17190  0.70800  1.0000
  H   H16       1.0  0.20450  0.37640  0.20800  1.0000
  H   H17       1.0  0.82810  0.20450  0.70800  1.0000
  H   H18       1.0  0.62360  0.82810  0.20800  1.0000
