data_image0
_chemical_formula_structural       Mn4C12O24H12
_chemical_formula_sum              "Mn4 C12 O24 H12"
_cell_length_a       6.651
_cell_length_b       7.067
_cell_length_c       13.839
_cell_angle_alpha    90
_cell_angle_beta     89.96
_cell_angle_gamma    90

_space_group_name_H-M_alt    "P 1"
_space_group_IT_number       1

loop_
  _space_group_symop_operation_xyz
  'x, y, z'

loop_
  _atom_site_type_symbol
  _atom_site_label
  _atom_site_symmetry_multiplicity
  _atom_site_fract_x
  _atom_site_fract_y
  _atom_site_fract_z
  _atom_site_occupancy
  Mn  Mn1       1.0  0.63550  0.70990  0.85050  1.0000
  Mn  Mn2       1.0  0.36450  0.20990  0.14950  1.0000
  Mn  Mn3       1.0  0.13520  0.22000  0.64890  1.0000
  Mn  Mn4       1.0  0.86480  0.72000  0.35110  1.0000
  C   C1        1.0  0.89200  0.86100  0.55200  1.0000
  C   C2        1.0  0.10800  0.36100  0.44800  1.0000
  C   C3        1.0  0.52800  0.00900  0.70900  1.0000
  C   C4        1.0  0.47200  0.50900  0.29100  1.0000
  C   C5        1.0  0.04100  0.90600  0.80000  1.0000
  C   C6        1.0  0.95900  0.40600  0.20000  1.0000
  C   C7        1.0  0.24000  0.48300  0.81620  1.0000
  C   C8        1.0  0.76000  0.98300  0.18380  1.0000
  C   C9        1.0  0.75900  0.44500  0.68560  1.0000
  C   C10       1.0  0.24100  0.94500  0.31440  1.0000
  C   C11       1.0  0.61800  0.58400  0.04600  1.0000
  C   C12       1.0  0.38200  0.08400  0.95400  1.0000
  O   O1        1.0  0.06800  0.08000  0.78060  1.0000
  O   O2        1.0  0.93200  0.58000  0.21940  1.0000
  O   O3        1.0  0.50300  0.44900  0.06940  1.0000
  O   O4        1.0  0.49700  0.94900  0.93060  1.0000
  O   O5        1.0  0.35700  0.57400  0.86660  1.0000
  O   O6        1.0  0.64300  0.07400  0.13340  1.0000
  O   O7        1.0  0.73500  0.59200  0.98720  1.0000
  O   O8        1.0  0.26500  0.09200  0.01280  1.0000
  O   O9        1.0  0.78200  0.47000  0.77390  1.0000
  O   O10       1.0  0.21800  0.97000  0.22610  1.0000
  O   O11       1.0  0.42700  0.08300  0.63160  1.0000
  O   O12       1.0  0.57300  0.58300  0.36840  1.0000
  O   O13       1.0  0.92800  0.85400  0.86190  1.0000
  O   O14       1.0  0.07200  0.35400  0.13810  1.0000
  O   O15       1.0  0.26400  0.45700  0.72420  1.0000
  O   O16       1.0  0.73600  0.95700  0.27580  1.0000
  O   O17       1.0  0.84800  0.35200  0.62870  1.0000
  O   O18       1.0  0.15200  0.85200  0.37130  1.0000
  O   O19       1.0  0.00600  0.00000  0.56650  1.0000
  O   O20       1.0  0.99400  0.50000  0.43350  1.0000
  O   O21       1.0  0.56400  0.85700  0.71290  1.0000
  O   O22       1.0  0.43600  0.35700  0.28710  1.0000
  O   O23       1.0  0.75700  0.84100  0.49250  1.0000
  O   O24       1.0  0.24300  0.34100  0.50750  1.0000
  H   H1        1.0  0.91481  0.75369  0.59334  1.0000
  H   H2        1.0  0.08519  0.25369  0.40666  1.0000
  H   H3        1.0  0.56879  0.09138  0.76093  1.0000
  H   H4        1.0  0.43121  0.59138  0.23907  1.0000
  H   H5        1.0  0.60277  0.69652  0.08372  1.0000
  H   H6        1.0  0.39723  0.19652  0.91628  1.0000
  H   H7        1.0  0.64894  0.51482  0.65853  1.0000
  H   H8        1.0  0.35106  0.01482  0.34147  1.0000
  H   H9        1.0  0.11407  0.81304  0.76367  1.0000
  H   H10       1.0  0.88593  0.31304  0.23633  1.0000
  H   H11       1.0  0.12470  0.42707  0.84671  1.0000
  H   H12       1.0  0.87530  0.92707  0.15329  1.0000
