data_image0
_chemical_formula_structural       Mn4C12O24H12
_chemical_formula_sum              "Mn4 C12 O24 H12"
_cell_length_a       6.68
_cell_length_b       7.097
_cell_length_c       13.944
_cell_angle_alpha    90
_cell_angle_beta     89.98
_cell_angle_gamma    90

_space_group_name_H-M_alt    "P 1"
_space_group_IT_number       1

loop_
  _space_group_symop_operation_xyz
  'x, y, z'

loop_
  _atom_site_type_symbol
  _atom_site_label
  _atom_site_symmetry_multiplicity
  _atom_site_fract_x
  _atom_site_fract_y
  _atom_site_fract_z
  _atom_site_occupancy
  Mn  Mn1       1.0  0.63300  0.70820  0.85030  1.0000
  Mn  Mn2       1.0  0.36700  0.20820  0.14970  1.0000
  Mn  Mn3       1.0  0.13450  0.22060  0.64980  1.0000
  Mn  Mn4       1.0  0.86550  0.72060  0.35020  1.0000
  C   C1        1.0  0.90400  0.86800  0.55100  1.0000
  C   C2        1.0  0.09600  0.36800  0.44900  1.0000
  C   C3        1.0  0.52600  0.01000  0.70700  1.0000
  C   C4        1.0  0.47400  0.51000  0.29300  1.0000
  C   C5        1.0  0.01500  0.92200  0.79670  1.0000
  C   C6        1.0  0.98500  0.42200  0.20330  1.0000
  C   C7        1.0  0.24800  0.48100  0.81100  1.0000
  C   C8        1.0  0.75200  0.98100  0.18900  1.0000
  C   C9        1.0  0.73900  0.42500  0.68470  1.0000
  C   C10       1.0  0.26100  0.92500  0.31530  1.0000
  C   C11       1.0  0.61400  0.59800  0.04700  1.0000
  C   C12       1.0  0.38600  0.09800  0.95300  1.0000
  O   O1        1.0  0.07200  0.08400  0.78390  1.0000
  O   O2        1.0  0.92800  0.58400  0.21610  1.0000
  O   O3        1.0  0.50800  0.44500  0.07120  1.0000
  O   O4        1.0  0.49200  0.94500  0.92880  1.0000
  O   O5        1.0  0.36000  0.57400  0.86850  1.0000
  O   O6        1.0  0.64000  0.07400  0.13150  1.0000
  O   O7        1.0  0.73000  0.59700  0.98370  1.0000
  O   O8        1.0  0.27000  0.09700  0.01630  1.0000
  O   O9        1.0  0.77300  0.47100  0.77330  1.0000
  O   O10       1.0  0.22700  0.97100  0.22670  1.0000
  O   O11       1.0  0.42800  0.07900  0.63810  1.0000
  O   O12       1.0  0.57200  0.57900  0.36190  1.0000
  O   O13       1.0  0.91800  0.84800  0.86150  1.0000
  O   O14       1.0  0.08200  0.34800  0.13850  1.0000
  O   O15       1.0  0.26500  0.45600  0.72790  1.0000
  O   O16       1.0  0.73500  0.95600  0.27210  1.0000
  O   O17       1.0  0.84900  0.34700  0.63570  1.0000
  O   O18       1.0  0.15100  0.84700  0.36430  1.0000
  O   O19       1.0  0.99300  0.00200  0.56610  1.0000
  O   O20       1.0  0.00700  0.50200  0.43390  1.0000
  O   O21       1.0  0.57000  0.84900  0.71870  1.0000
  O   O22       1.0  0.43000  0.34900  0.28130  1.0000
  O   O23       1.0  0.76500  0.84600  0.48800  1.0000
  O   O24       1.0  0.23500  0.34600  0.51200  1.0000
  H   H1        1.0  0.93593  0.76010  0.59011  1.0000
  H   H2        1.0  0.06407  0.26010  0.40989  1.0000
  H   H3        1.0  0.57002  0.09755  0.75479  1.0000
  H   H4        1.0  0.42998  0.59755  0.24521  1.0000
  H   H5        1.0  0.59476  0.71177  0.08256  1.0000
  H   H6        1.0  0.40524  0.21177  0.91744  1.0000
  H   H7        1.0  0.61097  0.45831  0.65818  1.0000
  H   H8        1.0  0.38903  0.95831  0.34182  1.0000
  H   H9        1.0  0.05293  0.83691  0.74653  1.0000
  H   H10       1.0  0.94707  0.33691  0.25347  1.0000
  H   H11       1.0  0.13347  0.42331  0.83942  1.0000
  H   H12       1.0  0.86653  0.92331  0.16058  1.0000
