data_image0
_chemical_formula_structural       C18Mn6O36H18
_chemical_formula_sum              "C18 Mn6 O36 H18"
_cell_length_a       12.6509
_cell_length_b       12.6509
_cell_length_c       8.54951
_cell_angle_alpha    90
_cell_angle_beta     90
_cell_angle_gamma    120

_space_group_name_H-M_alt    "P 1"
_space_group_IT_number       1

loop_
  _space_group_symop_operation_xyz
  'x, y, z'

loop_
  _atom_site_type_symbol
  _atom_site_label
  _atom_site_symmetry_multiplicity
  _atom_site_fract_x
  _atom_site_fract_y
  _atom_site_fract_z
  _atom_site_occupancy
  C   C1        1.0  0.62040  0.81250  0.65560  1.0000
  C   C2        1.0  0.80790  0.62040  0.15560  1.0000
  C   C3        1.0  0.18750  0.80790  0.65560  1.0000
  C   C4        1.0  0.37960  0.18750  0.15560  1.0000
  C   C5        1.0  0.19210  0.37960  0.65560  1.0000
  C   C6        1.0  0.81250  0.19210  0.15560  1.0000
  C   C7        1.0  0.51526  0.46776  0.65350  1.0000
  C   C8        1.0  0.04750  0.51526  0.15350  1.0000
  C   C9        1.0  0.53224  0.04750  0.65350  1.0000
  C   C10       1.0  0.48474  0.53224  0.15350  1.0000
  C   C11       1.0  0.95250  0.48474  0.65350  1.0000
  C   C12       1.0  0.46776  0.95250  0.15350  1.0000
  C   C13       1.0  0.84836  0.71366  0.69400  1.0000
  C   C14       1.0  0.13470  0.84836  0.19400  1.0000
  C   C15       1.0  0.28634  0.13470  0.69400  1.0000
  C   C16       1.0  0.15164  0.28634  0.19400  1.0000
  C   C17       1.0  0.86530  0.15164  0.69400  1.0000
  C   C18       1.0  0.71366  0.86530  0.19400  1.0000
  Mn  Mn1       1.0  0.66943  0.66398  0.41885  1.0000
  Mn  Mn2       1.0  0.00545  0.66943  0.91885  1.0000
  Mn  Mn3       1.0  0.33602  0.00545  0.41885  1.0000
  Mn  Mn4       1.0  0.33057  0.33602  0.91885  1.0000
  Mn  Mn5       1.0  0.99455  0.33057  0.41885  1.0000
  Mn  Mn6       1.0  0.66398  0.99455  0.91885  1.0000
  O   O1        1.0  0.56676  0.72614  0.56250  1.0000
  O   O2        1.0  0.84062  0.56676  0.06250  1.0000
  O   O3        1.0  0.27386  0.84062  0.56250  1.0000
  O   O4        1.0  0.43324  0.27386  0.06250  1.0000
  O   O5        1.0  0.15938  0.43324  0.56250  1.0000
  O   O6        1.0  0.72614  0.15938  0.06250  1.0000
  O   O7        1.0  0.57205  0.83451  0.77060  1.0000
  O   O8        1.0  0.73754  0.57205  0.27060  1.0000
  O   O9        1.0  0.16549  0.73754  0.77060  1.0000
  O   O10       1.0  0.42795  0.16549  0.27060  1.0000
  O   O11       1.0  0.26246  0.42795  0.77060  1.0000
  O   O12       1.0  0.83451  0.26246  0.27060  1.0000
  O   O13       1.0  0.60161  0.49972  0.56140  1.0000
  O   O14       1.0  0.10189  0.60161  0.06140  1.0000
  O   O15       1.0  0.50028  0.10189  0.56140  1.0000
  O   O16       1.0  0.39839  0.50028  0.06140  1.0000
  O   O17       1.0  0.89811  0.39839  0.56140  1.0000
  O   O18       1.0  0.49972  0.89811  0.06140  1.0000
  O   O19       1.0  0.49091  0.39816  0.76890  1.0000
  O   O20       1.0  0.09275  0.49091  0.26890  1.0000
  O   O21       1.0  0.60184  0.09275  0.76890  1.0000
  O   O22       1.0  0.50909  0.60184  0.26890  1.0000
  O   O23       1.0  0.90725  0.50909  0.76890  1.0000
  O   O24       1.0  0.39816  0.90725  0.26890  1.0000
  O   O25       1.0  0.82729  0.75692  0.57350  1.0000
  O   O26       1.0  0.07037  0.82729  0.07350  1.0000
  O   O27       1.0  0.24308  0.07037  0.57350  1.0000
  O   O28       1.0  0.17271  0.24308  0.07350  1.0000
  O   O29       1.0  0.92963  0.17271  0.57350  1.0000
  O   O30       1.0  0.75692  0.92963  0.07350  1.0000
  O   O31       1.0  0.94017  0.77094  0.78120  1.0000
  O   O32       1.0  0.16923  0.94017  0.28120  1.0000
  O   O33       1.0  0.22906  0.16923  0.78120  1.0000
  O   O34       1.0  0.05983  0.22906  0.28120  1.0000
  O   O35       1.0  0.83077  0.05983  0.78120  1.0000
  O   O36       1.0  0.77094  0.83077  0.28120  1.0000
  H   H1        1.0  0.70380  0.86710  0.63700  1.0000
  H   H2        1.0  0.83670  0.70380  0.13700  1.0000
  H   H3        1.0  0.13290  0.83670  0.63700  1.0000
  H   H4        1.0  0.29620  0.13290  0.13700  1.0000
  H   H5        1.0  0.16330  0.29620  0.63700  1.0000
  H   H6        1.0  0.86710  0.16330  0.13700  1.0000
  H   H7        1.0  0.46180  0.49840  0.63400  1.0000
  H   H8        1.0  0.96340  0.46180  0.13400  1.0000
  H   H9        1.0  0.50160  0.96340  0.63400  1.0000
  H   H10       1.0  0.53820  0.50160  0.13400  1.0000
  H   H11       1.0  0.03660  0.53820  0.63400  1.0000
  H   H12       1.0  0.49840  0.03660  0.13400  1.0000
  H   H13       1.0  0.79280  0.63320  0.72000  1.0000
  H   H14       1.0  0.15960  0.79280  0.22000  1.0000
  H   H15       1.0  0.36680  0.15960  0.72000  1.0000
  H   H16       1.0  0.20720  0.36680  0.22000  1.0000
  H   H17       1.0  0.84040  0.20720  0.72000  1.0000
  H   H18       1.0  0.63320  0.84040  0.22000  1.0000
