data_image0
_chemical_formula_structural       U16O100H4C4H4C12H8C4H8C12H12C4H12C4H12C8H4C4H4C12H4C4H4C4
_chemical_formula_sum              "U16 O100 H76 C72"
_cell_length_a       17.3555
_cell_length_b       21.4656
_cell_length_c       13.8492
_cell_angle_alpha    90
_cell_angle_beta     90
_cell_angle_gamma    90

_space_group_name_H-M_alt    "P 1"
_space_group_IT_number       1

loop_
  _space_group_symop_operation_xyz
  'x, y, z'

loop_
  _atom_site_type_symbol
  _atom_site_label
  _atom_site_symmetry_multiplicity
  _atom_site_fract_x
  _atom_site_fract_y
  _atom_site_fract_z
  _atom_site_occupancy
  U   U1        1.0  0.89985  0.25582  0.07601  1.0000
  U   U2        1.0  0.10015  0.74418  0.07601  1.0000
  U   U3        1.0  0.60015  0.75582  0.92399  1.0000
  U   U4        1.0  0.39985  0.24418  0.92399  1.0000
  U   U5        1.0  0.88268  0.29218  0.35020  1.0000
  U   U6        1.0  0.11732  0.70782  0.35020  1.0000
  U   U7        1.0  0.61732  0.79218  0.64980  1.0000
  U   U8        1.0  0.38268  0.20782  0.64980  1.0000
  U   U9        1.0  0.07863  0.14237  0.97492  1.0000
  U   U10       1.0  0.92137  0.85763  0.97492  1.0000
  U   U11       1.0  0.42137  0.64237  0.02508  1.0000
  U   U12       1.0  0.57863  0.35763  0.02508  1.0000
  U   U13       1.0  0.66470  0.32726  0.47297  1.0000
  U   U14       1.0  0.33530  0.67274  0.47297  1.0000
  U   U15       1.0  0.83530  0.82726  0.52703  1.0000
  U   U16       1.0  0.16470  0.17274  0.52703  1.0000
  O   O1        1.0  0.96020  0.31080  0.01730  1.0000
  O   O2        1.0  0.03980  0.68920  0.01730  1.0000
  O   O3        1.0  0.53980  0.81080  0.98270  1.0000
  O   O4        1.0  0.46020  0.18920  0.98270  1.0000
  O   O5        1.0  0.83600  0.19980  0.12910  1.0000
  O   O6        1.0  0.16400  0.80020  0.12910  1.0000
  O   O7        1.0  0.66400  0.69980  0.87090  1.0000
  O   O8        1.0  0.33600  0.30020  0.87090  1.0000
  O   O9        1.0  0.90840  0.37130  0.37250  1.0000
  O   O10       1.0  0.09160  0.62870  0.37250  1.0000
  O   O11       1.0  0.59160  0.87130  0.62750  1.0000
  O   O12       1.0  0.40840  0.12870  0.62750  1.0000
  O   O13       1.0  0.85250  0.21290  0.33470  1.0000
  O   O14       1.0  0.14750  0.78710  0.33470  1.0000
  O   O15       1.0  0.64750  0.71290  0.66530  1.0000
  O   O16       1.0  0.35250  0.28710  0.66530  1.0000
  O   O17       1.0  0.12030  0.21700  0.96020  1.0000
  O   O18       1.0  0.87970  0.78300  0.96020  1.0000
  O   O19       1.0  0.37970  0.71700  0.03980  1.0000
  O   O20       1.0  0.62030  0.28300  0.03980  1.0000
  O   O21       1.0  0.03580  0.06770  0.98200  1.0000
  O   O22       1.0  0.96420  0.93230  0.98200  1.0000
  O   O23       1.0  0.46420  0.56770  0.01800  1.0000
  O   O24       1.0  0.53580  0.43230  0.01800  1.0000
  O   O25       1.0  0.73030  0.37710  0.53150  1.0000
  O   O26       1.0  0.26970  0.62290  0.53150  1.0000
  O   O27       1.0  0.76970  0.87710  0.46850  1.0000
  O   O28       1.0  0.23030  0.12290  0.46850  1.0000
  O   O29       1.0  0.60450  0.27610  0.41090  1.0000
  O   O30       1.0  0.39550  0.72390  0.41090  1.0000
  O   O31       1.0  0.89550  0.77610  0.58910  1.0000
  O   O32       1.0  0.10450  0.22390  0.58910  1.0000
  O   O33       1.0  0.96300  0.18560  0.91270  1.0000
  O   O34       1.0  0.03700  0.81440  0.91270  1.0000
  O   O35       1.0  0.53700  0.68560  0.08730  1.0000
  O   O36       1.0  0.46300  0.31440  0.08730  1.0000
  O   O37       1.0  0.84190  0.20830  0.93420  1.0000
  O   O38       1.0  0.15810  0.79170  0.93420  1.0000
  O   O39       1.0  0.65810  0.70830  0.06580  1.0000
  O   O40       1.0  0.34190  0.29170  0.06580  1.0000
  O   O41       1.0  0.85400  0.27980  0.51400  1.0000
  O   O42       1.0  0.14600  0.72020  0.51400  1.0000
  O   O43       1.0  0.64600  0.77980  0.48600  1.0000
  O   O44       1.0  0.35400  0.22020  0.48600  1.0000
  O   O45       1.0  0.73560  0.23860  0.52060  1.0000
  O   O46       1.0  0.26440  0.76140  0.52060  1.0000
  O   O47       1.0  0.76440  0.73860  0.47940  1.0000
  O   O48       1.0  0.23560  0.26140  0.47940  1.0000
  O   O49       1.0  0.12870  0.12010  0.13020  1.0000
  O   O50       1.0  0.87130  0.87990  0.13020  1.0000
  O   O51       1.0  0.37130  0.62010  0.86980  1.0000
  O   O52       1.0  0.62870  0.37990  0.86980  1.0000
  O   O53       1.0  0.09410  0.08940  0.27820  1.0000
  O   O54       1.0  0.90590  0.91060  0.27820  1.0000
  O   O55       1.0  0.40590  0.58940  0.72180  1.0000
  O   O56       1.0  0.59410  0.41060  0.72180  1.0000
  O   O57       1.0  0.00510  0.25700  0.40520  1.0000
  O   O58       1.0  0.99490  0.74300  0.40520  1.0000
  O   O59       1.0  0.49490  0.75700  0.59480  1.0000
  O   O60       1.0  0.50510  0.24300  0.59480  1.0000
  O   O61       1.0  0.11670  0.20820  0.37560  1.0000
  O   O62       1.0  0.88330  0.79180  0.37560  1.0000
  O   O63       1.0  0.38330  0.70820  0.62440  1.0000
  O   O64       1.0  0.61670  0.29180  0.62440  1.0000
  O   O65       1.0  0.99790  0.17870  0.10390  1.0000
  O   O66       1.0  0.00210  0.82130  0.10390  1.0000
  O   O67       1.0  0.50210  0.67870  0.89610  1.0000
  O   O68       1.0  0.49790  0.32130  0.89610  1.0000
  O   O69       1.0  0.97270  0.27340  0.22190  1.0000
  O   O70       1.0  0.02730  0.72660  0.22190  1.0000
  O   O71       1.0  0.52730  0.77340  0.77810  1.0000
  O   O72       1.0  0.47270  0.22660  0.77810  1.0000
  O   O73       1.0  0.79660  0.32310  0.01920  1.0000
  O   O74       1.0  0.20340  0.67690  0.01920  1.0000
  O   O75       1.0  0.70340  0.82310  0.98080  1.0000
  O   O76       1.0  0.29660  0.17690  0.98080  1.0000
  O   O77       1.0  0.70750  0.39430  0.04660  1.0000
  O   O78       1.0  0.29250  0.60570  0.04660  1.0000
  O   O79       1.0  0.79250  0.89430  0.95340  1.0000
  O   O80       1.0  0.20750  0.10570  0.95340  1.0000
  O   O81       1.0  0.63430  0.39650  0.34100  1.0000
  O   O82       1.0  0.36570  0.60350  0.34100  1.0000
  O   O83       1.0  0.86570  0.89650  0.65900  1.0000
  O   O84       1.0  0.13430  0.10350  0.65900  1.0000
  O   O85       1.0  0.59950  0.38420  0.18870  1.0000
  O   O86       1.0  0.40050  0.61580  0.18870  1.0000
  O   O87       1.0  0.90050  0.88420  0.81130  1.0000
  O   O88       1.0  0.09950  0.11580  0.81130  1.0000
  O   O89       1.0  0.84640  0.32210  0.19290  1.0000
  O   O90       1.0  0.15360  0.67790  0.19290  1.0000
  O   O91       1.0  0.65360  0.82210  0.80710  1.0000
  O   O92       1.0  0.34640  0.17790  0.80710  1.0000
  O   O93       1.0  0.74940  0.32230  0.33810  1.0000
  O   O94       1.0  0.25060  0.67770  0.33810  1.0000
  O   O95       1.0  0.75060  0.82230  0.66190  1.0000
  O   O96       1.0  0.24940  0.17770  0.66190  1.0000
  O   O97       1.0  0.56180  0.39660  0.52770  1.0000
  O   O98       1.0  0.43820  0.60340  0.52770  1.0000
  O   O99       1.0  0.93820  0.89660  0.47230  1.0000
  O   O100      1.0  0.06180  0.10340  0.47230  1.0000
  H   H1        1.0  0.58230  0.41280  0.58550  1.0000
  H   H2        1.0  0.41770  0.58720  0.58550  1.0000
  H   H3        1.0  0.91770  0.91280  0.41450  1.0000
  H   H4        1.0  0.08230  0.08720  0.41450  1.0000
  C   C1        1.0  0.87760  0.17080  0.77980  1.0000
  C   C2        1.0  0.12240  0.82920  0.77980  1.0000
  C   C3        1.0  0.62240  0.67080  0.22020  1.0000
  C   C4        1.0  0.37760  0.32920  0.22020  1.0000
  H   H5        1.0  0.92540  0.15100  0.75340  1.0000
  H   H6        1.0  0.07460  0.84900  0.75340  1.0000
  H   H7        1.0  0.57460  0.65100  0.24660  1.0000
  H   H8        1.0  0.42540  0.34900  0.24660  1.0000
  C   C5        1.0  0.86250  0.22510  0.71050  1.0000
  C   C6        1.0  0.13750  0.77490  0.71050  1.0000
  C   C7        1.0  0.63750  0.72510  0.28950  1.0000
  C   C8        1.0  0.36250  0.27490  0.28950  1.0000
  C   C9        1.0  0.83620  0.19020  0.61690  1.0000
  C   C10       1.0  0.16380  0.80980  0.61690  1.0000
  C   C11       1.0  0.66380  0.69020  0.38310  1.0000
  C   C12       1.0  0.33620  0.30980  0.38310  1.0000
  C   C13       1.0  0.78450  0.13820  0.65670  1.0000
  C   C14       1.0  0.21550  0.86180  0.65670  1.0000
  C   C15       1.0  0.71550  0.63820  0.34330  1.0000
  C   C16       1.0  0.28450  0.36180  0.34330  1.0000
  H   H9        1.0  0.78730  0.10090  0.61480  1.0000
  H   H10       1.0  0.21270  0.89910  0.61480  1.0000
  H   H11       1.0  0.71270  0.60090  0.38520  1.0000
  H   H12       1.0  0.28730  0.39910  0.38520  1.0000
  H   H13       1.0  0.73030  0.15230  0.65970  1.0000
  H   H14       1.0  0.26970  0.84770  0.65970  1.0000
  H   H15       1.0  0.76970  0.65230  0.34030  1.0000
  H   H16       1.0  0.23030  0.34770  0.34030  1.0000
  C   C17       1.0  0.81480  0.12300  0.75880  1.0000
  C   C18       1.0  0.18520  0.87700  0.75880  1.0000
  C   C19       1.0  0.68520  0.62300  0.24120  1.0000
  C   C20       1.0  0.31480  0.37700  0.24120  1.0000
  H   H17       1.0  0.77280  0.12630  0.80690  1.0000
  H   H18       1.0  0.22720  0.87370  0.80690  1.0000
  H   H19       1.0  0.72720  0.62630  0.19310  1.0000
  H   H20       1.0  0.27280  0.37370  0.19310  1.0000
  H   H21       1.0  0.83610  0.08030  0.76090  1.0000
  H   H22       1.0  0.16390  0.91970  0.76090  1.0000
  H   H23       1.0  0.66390  0.58030  0.23910  1.0000
  H   H24       1.0  0.33610  0.41970  0.23910  1.0000
  C   C21       1.0  0.89900  0.18660  0.88240  1.0000
  C   C22       1.0  0.10100  0.81340  0.88240  1.0000
  C   C23       1.0  0.60100  0.68660  0.11760  1.0000
  C   C24       1.0  0.39900  0.31340  0.11760  1.0000
  C   C25       1.0  0.80900  0.23790  0.54380  1.0000
  C   C26       1.0  0.19100  0.76210  0.54380  1.0000
  C   C27       1.0  0.69100  0.73790  0.45620  1.0000
  C   C28       1.0  0.30900  0.26210  0.45620  1.0000
  C   C29       1.0  0.79790  0.26390  0.74900  1.0000
  C   C30       1.0  0.20210  0.73610  0.74900  1.0000
  C   C31       1.0  0.70210  0.76390  0.25100  1.0000
  C   C32       1.0  0.29790  0.23610  0.25100  1.0000
  H   H25       1.0  0.75360  0.23720  0.76390  1.0000
  H   H26       1.0  0.24640  0.76280  0.76390  1.0000
  H   H27       1.0  0.74640  0.73720  0.23610  1.0000
  H   H28       1.0  0.25360  0.26280  0.23610  1.0000
  H   H29       1.0  0.78300  0.29510  0.70130  1.0000
  H   H30       1.0  0.21700  0.70490  0.70130  1.0000
  H   H31       1.0  0.71700  0.79510  0.29870  1.0000
  H   H32       1.0  0.28300  0.20490  0.29870  1.0000
  H   H33       1.0  0.81480  0.28490  0.80860  1.0000
  H   H34       1.0  0.18520  0.71510  0.80860  1.0000
  H   H35       1.0  0.68520  0.78490  0.19140  1.0000
  H   H36       1.0  0.31480  0.21510  0.19140  1.0000
  C   C33       1.0  0.93290  0.26660  0.71100  1.0000
  C   C34       1.0  0.06710  0.73340  0.71100  1.0000
  C   C35       1.0  0.56710  0.76660  0.28900  1.0000
  C   C36       1.0  0.43290  0.23340  0.28900  1.0000
  H   H37       1.0  0.93490  0.29070  0.65110  1.0000
  H   H38       1.0  0.06510  0.70930  0.65110  1.0000
  H   H39       1.0  0.56510  0.79070  0.34890  1.0000
  H   H40       1.0  0.43490  0.20930  0.34890  1.0000
  H   H41       1.0  0.97940  0.24090  0.71670  1.0000
  H   H42       1.0  0.02060  0.75910  0.71670  1.0000
  H   H43       1.0  0.52060  0.74090  0.28330  1.0000
  H   H44       1.0  0.47940  0.25910  0.28330  1.0000
  H   H45       1.0  0.93010  0.29520  0.76630  1.0000
  H   H46       1.0  0.06990  0.70480  0.76630  1.0000
  H   H47       1.0  0.56990  0.79520  0.23370  1.0000
  H   H48       1.0  0.43010  0.20480  0.23370  1.0000
  C   C37       1.0  0.91080  0.15830  0.58320  1.0000
  C   C38       1.0  0.08920  0.84170  0.58320  1.0000
  C   C39       1.0  0.58920  0.65830  0.41680  1.0000
  C   C40       1.0  0.41080  0.34170  0.41680  1.0000
  H   H49       1.0  0.91280  0.15810  0.51250  1.0000
  H   H50       1.0  0.08720  0.84190  0.51250  1.0000
  H   H51       1.0  0.58720  0.65810  0.48750  1.0000
  H   H52       1.0  0.41280  0.34190  0.48750  1.0000
  H   H53       1.0  0.91120  0.11530  0.60710  1.0000
  H   H54       1.0  0.08880  0.88470  0.60710  1.0000
  H   H55       1.0  0.58880  0.61530  0.39290  1.0000
  H   H56       1.0  0.41120  0.38470  0.39290  1.0000
  H   H57       1.0  0.95560  0.18070  0.60870  1.0000
  H   H58       1.0  0.04440  0.81930  0.60870  1.0000
  H   H59       1.0  0.54440  0.68070  0.39130  1.0000
  H   H60       1.0  0.45560  0.31930  0.39130  1.0000
  C   C41       1.0  0.08460  0.12350  0.20740  1.0000
  C   C42       1.0  0.91540  0.87650  0.20740  1.0000
  C   C43       1.0  0.41540  0.62350  0.79260  1.0000
  C   C44       1.0  0.58460  0.37650  0.79260  1.0000
  C   C45       1.0  0.02100  0.17110  0.19610  1.0000
  C   C46       1.0  0.97900  0.82890  0.19610  1.0000
  C   C47       1.0  0.47900  0.67110  0.80390  1.0000
  C   C48       1.0  0.52100  0.32890  0.80390  1.0000
  H   H61       1.0  0.97560  0.15410  0.23180  1.0000
  H   H62       1.0  0.02440  0.84590  0.23180  1.0000
  H   H63       1.0  0.52440  0.65410  0.76820  1.0000
  H   H64       1.0  0.47560  0.34590  0.76820  1.0000
  C   C49       1.0  0.03860  0.23410  0.24150  1.0000
  C   C50       1.0  0.96140  0.76590  0.24150  1.0000
  C   C51       1.0  0.46140  0.73410  0.75850  1.0000
  C   C52       1.0  0.53860  0.26590  0.75850  1.0000
  H   H65       1.0  0.08400  0.25220  0.20720  1.0000
  H   H66       1.0  0.91600  0.74780  0.20720  1.0000
  H   H67       1.0  0.41600  0.75220  0.79280  1.0000
  H   H68       1.0  0.58400  0.24780  0.79280  1.0000
  C   C53       1.0  0.05530  0.23530  0.34810  1.0000
  C   C54       1.0  0.94470  0.76470  0.34810  1.0000
  C   C55       1.0  0.44470  0.73530  0.65190  1.0000
  C   C56       1.0  0.55530  0.26470  0.65190  1.0000
  C   C57       1.0  0.75740  0.35820  0.07640  1.0000
  C   C58       1.0  0.24260  0.64180  0.07640  1.0000
  C   C59       1.0  0.74260  0.85820  0.92360  1.0000
  C   C60       1.0  0.25740  0.14180  0.92360  1.0000
  C   C61       1.0  0.78120  0.36170  0.18010  1.0000
  C   C62       1.0  0.21880  0.63830  0.18010  1.0000
  C   C63       1.0  0.71880  0.86170  0.81990  1.0000
  C   C64       1.0  0.28120  0.13830  0.81990  1.0000
  H   H69       1.0  0.79360  0.40560  0.19910  1.0000
  H   H70       1.0  0.20640  0.59440  0.19910  1.0000
  H   H71       1.0  0.70640  0.90560  0.80090  1.0000
  H   H72       1.0  0.29360  0.09440  0.80090  1.0000
  C   C65       1.0  0.71810  0.33340  0.24750  1.0000
  C   C66       1.0  0.28190  0.66660  0.24750  1.0000
  C   C67       1.0  0.78190  0.83340  0.75250  1.0000
  C   C68       1.0  0.21810  0.16660  0.75250  1.0000
  H   H73       1.0  0.70230  0.29240  0.21960  1.0000
  H   H74       1.0  0.29770  0.70760  0.21960  1.0000
  H   H75       1.0  0.79770  0.79240  0.78040  1.0000
  H   H76       1.0  0.20230  0.20760  0.78040  1.0000
  C   C69       1.0  0.64580  0.37330  0.25790  1.0000
  C   C70       1.0  0.35420  0.62670  0.25790  1.0000
  C   C71       1.0  0.85420  0.87330  0.74210  1.0000
  C   C72       1.0  0.14580  0.12670  0.74210  1.0000
