data_image0
_chemical_formula_structural       Zn4P4H4O20C12H4C4H4C8H4C4H4C16H12C4H12
_chemical_formula_sum              "Zn4 P4 H44 O20 C48"
_cell_length_a       21.7878
_cell_length_b       7.3445
_cell_length_c       10.4486
_cell_angle_alpha    90
_cell_angle_beta     100.624
_cell_angle_gamma    90

_space_group_name_H-M_alt    "P 1"
_space_group_IT_number       1

loop_
  _space_group_symop_operation_xyz
  'x, y, z'

loop_
  _atom_site_type_symbol
  _atom_site_label
  _atom_site_symmetry_multiplicity
  _atom_site_fract_x
  _atom_site_fract_y
  _atom_site_fract_z
  _atom_site_occupancy
  Zn  Zn1       1.0  0.42117  0.61566  0.87290  1.0000
  Zn  Zn2       1.0  0.57883  0.11566  0.62710  1.0000
  Zn  Zn3       1.0  0.57883  0.38434  0.12710  1.0000
  Zn  Zn4       1.0  0.42117  0.88434  0.37290  1.0000
  P   P1        1.0  0.49007  0.71086  0.15927  1.0000
  P   P2        1.0  0.50993  0.21086  0.34073  1.0000
  P   P3        1.0  0.50993  0.28914  0.84073  1.0000
  P   P4        1.0  0.49007  0.78914  0.65927  1.0000
  H   H1        1.0  0.49070  0.88100  0.10500  1.0000
  H   H2        1.0  0.50930  0.38100  0.39500  1.0000
  H   H3        1.0  0.50930  0.11900  0.89500  1.0000
  H   H4        1.0  0.49070  0.61900  0.60500  1.0000
  O   O1        1.0  0.30888  0.45740  0.76000  1.0000
  O   O2        1.0  0.69112  0.95740  0.74000  1.0000
  O   O3        1.0  0.69112  0.54260  0.24000  1.0000
  O   O4        1.0  0.30888  0.04260  0.26000  1.0000
  O   O5        1.0  0.33734  0.72630  0.83890  1.0000
  O   O6        1.0  0.66266  0.22630  0.66110  1.0000
  O   O7        1.0  0.66266  0.27370  0.16110  1.0000
  O   O8        1.0  0.33734  0.77370  0.33890  1.0000
  O   O9        1.0  0.47335  0.72350  0.29304  1.0000
  O   O10       1.0  0.52665  0.22350  0.20696  1.0000
  O   O11       1.0  0.52665  0.27650  0.70696  1.0000
  O   O12       1.0  0.47335  0.77650  0.79304  1.0000
  O   O13       1.0  0.55557  0.63360  0.16953  1.0000
  O   O14       1.0  0.44443  0.13360  0.33047  1.0000
  O   O15       1.0  0.44443  0.36640  0.83047  1.0000
  O   O16       1.0  0.55557  0.86640  0.66953  1.0000
  O   O17       1.0  0.44197  0.60750  0.06327  1.0000
  O   O18       1.0  0.55803  0.10750  0.43673  1.0000
  O   O19       1.0  0.55803  0.39250  0.93673  1.0000
  O   O20       1.0  0.44197  0.89250  0.56327  1.0000
  C   C1        1.0  0.29784  0.61910  0.77830  1.0000
  C   C2        1.0  0.70216  0.11910  0.72170  1.0000
  C   C3        1.0  0.70216  0.38090  0.22170  1.0000
  C   C4        1.0  0.29784  0.88090  0.27830  1.0000
  C   C5        1.0  0.23420  0.69520  0.72750  1.0000
  C   C6        1.0  0.76580  0.19520  0.77250  1.0000
  C   C7        1.0  0.76580  0.30480  0.27250  1.0000
  C   C8        1.0  0.23420  0.80480  0.22750  1.0000
  C   C9        1.0  0.19429  0.60290  0.63230  1.0000
  C   C10       1.0  0.80571  0.10290  0.86770  1.0000
  C   C11       1.0  0.80571  0.39710  0.36770  1.0000
  C   C12       1.0  0.19429  0.89710  0.13230  1.0000
  H   H5        1.0  0.20620  0.49060  0.60390  1.0000
  H   H6        1.0  0.79380  0.99060  0.89610  1.0000
  H   H7        1.0  0.79380  0.50940  0.39610  1.0000
  H   H8        1.0  0.20620  0.00940  0.10390  1.0000
  C   C13       1.0  0.13684  0.67430  0.57830  1.0000
  C   C14       1.0  0.86316  0.17430  0.92170  1.0000
  C   C15       1.0  0.86316  0.32570  0.42170  1.0000
  C   C16       1.0  0.13684  0.82570  0.07830  1.0000
  H   H9        1.0  0.11070  0.60970  0.51350  1.0000
  H   H10       1.0  0.88930  0.10970  0.98650  1.0000
  H   H11       1.0  0.88930  0.39030  0.48650  1.0000
  H   H12       1.0  0.11070  0.89030  0.01350  1.0000
  C   C17       1.0  0.11748  0.83970  0.61880  1.0000
  C   C18       1.0  0.88252  0.33970  0.88120  1.0000
  C   C19       1.0  0.88252  0.16030  0.38120  1.0000
  C   C20       1.0  0.11748  0.66030  0.11880  1.0000
  C   C21       1.0  0.21464  0.85790  0.77030  1.0000
  C   C22       1.0  0.78536  0.35790  0.72970  1.0000
  C   C23       1.0  0.78536  0.14210  0.22970  1.0000
  C   C24       1.0  0.21464  0.64210  0.27030  1.0000
  H   H13       1.0  0.24070  0.92150  0.83580  1.0000
  H   H14       1.0  0.75930  0.42150  0.66420  1.0000
  H   H15       1.0  0.75930  0.07850  0.16420  1.0000
  H   H16       1.0  0.24070  0.57850  0.33580  1.0000
  C   C25       1.0  0.15660  0.92840  0.71720  1.0000
  C   C26       1.0  0.84340  0.42840  0.78280  1.0000
  C   C27       1.0  0.84340  0.07160  0.28280  1.0000
  C   C28       1.0  0.15660  0.57160  0.21720  1.0000
  H   H17       1.0  0.14390  0.03790  0.74870  1.0000
  H   H18       1.0  0.85610  0.53790  0.75130  1.0000
  H   H19       1.0  0.85610  0.96210  0.25130  1.0000
  H   H20       1.0  0.14390  0.46210  0.24870  1.0000
  C   C29       1.0  0.05642  0.92160  0.55680  1.0000
  C   C30       1.0  0.94358  0.42160  0.94320  1.0000
  C   C31       1.0  0.94358  0.07840  0.44320  1.0000
  C   C32       1.0  0.05642  0.57840  0.05680  1.0000
  C   C33       1.0  0.00079  0.85650  0.58980  1.0000
  C   C34       1.0  0.99921  0.35650  0.91020  1.0000
  C   C35       1.0  0.99921  0.14350  0.41020  1.0000
  C   C36       1.0  0.00079  0.64350  0.08980  1.0000
  C   C37       1.0  0.05580  0.06330  0.46760  1.0000
  C   C38       1.0  0.94420  0.56330  0.03240  1.0000
  C   C39       1.0  0.94420  0.93670  0.53240  1.0000
  C   C40       1.0  0.05580  0.43670  0.96760  1.0000
  C   C41       1.0  0.11607  0.12640  0.42840  1.0000
  C   C42       1.0  0.88393  0.62640  0.07160  1.0000
  C   C43       1.0  0.88393  0.87360  0.57160  1.0000
  C   C44       1.0  0.11607  0.37360  0.92840  1.0000
  H   H21       1.0  0.12490  0.24900  0.45780  1.0000
  H   H22       1.0  0.87510  0.74900  0.04220  1.0000
  H   H23       1.0  0.87510  0.75100  0.54220  1.0000
  H   H24       1.0  0.12490  0.25100  0.95780  1.0000
  H   H25       1.0  0.11170  0.12180  0.33540  1.0000
  H   H26       1.0  0.88830  0.62180  0.16460  1.0000
  H   H27       1.0  0.88830  0.87820  0.66460  1.0000
  H   H28       1.0  0.11170  0.37820  0.83540  1.0000
  H   H29       1.0  0.14970  0.04810  0.46730  1.0000
  H   H30       1.0  0.85030  0.54810  0.03270  1.0000
  H   H31       1.0  0.85030  0.95190  0.53270  1.0000
  H   H32       1.0  0.14970  0.45190  0.96730  1.0000
  C   C45       1.0  0.00208  0.70710  0.68830  1.0000
  C   C46       1.0  0.99792  0.20710  0.81170  1.0000
  C   C47       1.0  0.99792  0.29290  0.31170  1.0000
  C   C48       1.0  0.00208  0.79290  0.18830  1.0000
  H   H33       1.0  0.96020  0.67980  0.69890  1.0000
  H   H34       1.0  0.03980  0.17980  0.80110  1.0000
  H   H35       1.0  0.03980  0.32020  0.30110  1.0000
  H   H36       1.0  0.96020  0.82020  0.19890  1.0000
  H   H37       1.0  0.02610  0.74570  0.77020  1.0000
  H   H38       1.0  0.97390  0.24570  0.72980  1.0000
  H   H39       1.0  0.97390  0.25430  0.22980  1.0000
  H   H40       1.0  0.02610  0.75430  0.27020  1.0000
  H   H41       1.0  0.02070  0.60030  0.65890  1.0000
  H   H42       1.0  0.97930  0.10030  0.84110  1.0000
  H   H43       1.0  0.97930  0.39970  0.34110  1.0000
  H   H44       1.0  0.02070  0.89970  0.15890  1.0000
