data_image0
_chemical_formula_structural       Re8Te6C6Te2C18N24Yb2O8N4H16C10H2C2H2C6H2C4H2C2H8
_chemical_formula_sum              "Re8 Te8 C48 N28 Yb2 O8 H32"
_cell_length_a       13.0788
_cell_length_b       13.8259
_cell_length_c       16.1336
_cell_angle_alpha    73.5436
_cell_angle_beta     77.3377
_cell_angle_gamma    77.158

_space_group_name_H-M_alt    "P 1"
_space_group_IT_number       1

loop_
  _space_group_symop_operation_xyz
  'x, y, z'

loop_
  _atom_site_type_symbol
  _atom_site_label
  _atom_site_symmetry_multiplicity
  _atom_site_fract_x
  _atom_site_fract_y
  _atom_site_fract_z
  _atom_site_occupancy
  Re  Re1       1.0  0.20226  0.68630  0.12748  1.0000
  Re  Re2       1.0  0.79774  0.31370  0.87252  1.0000
  Re  Re3       1.0  0.35712  0.80993  0.02475  1.0000
  Re  Re4       1.0  0.64288  0.19007  0.97525  1.0000
  Re  Re5       1.0  0.17564  0.89403  0.13533  1.0000
  Re  Re6       1.0  0.82436  0.10597  0.86467  1.0000
  Re  Re7       1.0  0.34169  0.74488  0.21230  1.0000
  Re  Re8       1.0  0.65831  0.25512  0.78770  1.0000
  Te  Te1       1.0  0.13853  0.74457  0.27527  1.0000
  Te  Te2       1.0  0.86147  0.25543  0.72473  1.0000
  Te  Te3       1.0  0.40831  0.61714  0.10886  1.0000
  Te  Te4       1.0  0.59169  0.38286  0.89114  1.0000
  Te  Te5       1.0  0.16091  0.84273  0.99328  1.0000
  Te  Te6       1.0  0.83909  0.15727  0.00672  1.0000
  C   C1        1.0  0.03990  0.68490  0.14350  1.0000
  C   C2        1.0  0.96010  0.31510  0.85650  1.0000
  C   C3        1.0  0.20940  0.60190  0.03560  1.0000
  C   C4        1.0  0.79060  0.39810  0.96440  1.0000
  C   C5        1.0  0.18960  0.54220  0.21360  1.0000
  C   C6        1.0  0.81040  0.45780  0.78640  1.0000
  Te  Te7       1.0  0.36980  0.93120  0.11964  1.0000
  Te  Te8       1.0  0.63019  0.06880  0.88036  1.0000
  C   C7        1.0  0.52350  0.79820  0.99520  1.0000
  C   C8        1.0  0.47650  0.20180  0.00480  1.0000
  C   C9        1.0  0.39250  0.74830  0.91430  1.0000
  C   C10       1.0  0.60750  0.25170  0.08570  1.0000
  C   C11       1.0  0.37290  0.94530  0.92650  1.0000
  C   C12       1.0  0.62710  0.05470  0.07350  1.0000
  C   C13       1.0  0.14670  0.04300  0.05670  1.0000
  C   C14       1.0  0.85330  0.95700  0.94330  1.0000
  C   C15       1.0  0.00890  0.92310  0.15000  1.0000
  C   C16       1.0  0.99110  0.07690  0.85000  1.0000
  C   C17       1.0  0.14150  0.97740  0.23040  1.0000
  C   C18       1.0  0.85850  0.02260  0.76960  1.0000
  C   C19       1.0  0.35340  0.60990  0.31350  1.0000
  C   C20       1.0  0.64660  0.39010  0.68650  1.0000
  C   C21       1.0  0.33560  0.81390  0.31460  1.0000
  C   C22       1.0  0.66440  0.18610  0.68540  1.0000
  C   C23       1.0  0.50230  0.72190  0.22040  1.0000
  C   C24       1.0  0.49770  0.27810  0.77960  1.0000
  N   N1        1.0  0.95150  0.67800  0.15710  1.0000
  N   N2        1.0  0.04850  0.32200  0.84290  1.0000
  N   N3        1.0  0.21240  0.55340  0.98730  1.0000
  N   N4        1.0  0.78760  0.44660  0.01270  1.0000
  N   N5        1.0  0.17440  0.46460  0.26190  1.0000
  N   N6        1.0  0.82560  0.53540  0.73810  1.0000
  N   N7        1.0  0.61520  0.79090  0.97690  1.0000
  N   N8        1.0  0.38480  0.20910  0.02310  1.0000
  N   N9        1.0  0.41550  0.71890  0.85220  1.0000
  N   N10       1.0  0.58450  0.28110  0.14780  1.0000
  N   N11       1.0  0.38740  0.02010  0.87500  1.0000
  N   N12       1.0  0.61260  0.97990  0.12500  1.0000
  N   N13       1.0  0.12300  0.12670  0.01770  1.0000
  N   N14       1.0  0.87700  0.87330  0.98230  1.0000
  N   N15       1.0  0.91720  0.94000  0.15960  1.0000
  N   N16       1.0  0.08280  0.06000  0.84040  1.0000
  N   N17       1.0  0.12230  0.02320  0.28330  1.0000
  N   N18       1.0  0.87770  0.97680  0.71670  1.0000
  N   N19       1.0  0.35950  0.53610  0.37050  1.0000
  N   N20       1.0  0.64050  0.46390  0.62950  1.0000
  N   N21       1.0  0.33560  0.85600  0.36740  1.0000
  N   N22       1.0  0.66440  0.14400  0.63260  1.0000
  N   N23       1.0  0.59050  0.70310  0.23040  1.0000
  N   N24       1.0  0.40950  0.29690  0.76960  1.0000
  Yb  Yb1       1.0  0.77603  0.63595  0.20097  1.0000
  Yb  Yb2       1.0  0.22397  0.36405  0.79903  1.0000
  O   O1        1.0  0.79620  0.69780  0.05250  1.0000
  O   O2        1.0  0.20380  0.30220  0.94750  1.0000
  O   O3        1.0  0.80730  0.65070  0.33020  1.0000
  O   O4        1.0  0.19270  0.34930  0.66980  1.0000
  O   O5        1.0  0.75950  0.81100  0.18740  1.0000
  O   O6        1.0  0.24050  0.18900  0.81260  1.0000
  O   O7        1.0  0.68680  0.54950  0.14140  1.0000
  O   O8        1.0  0.31320  0.45050  0.85860  1.0000
  N   N25       1.0  0.72450  0.48920  0.31920  1.0000
  N   N26       1.0  0.27550  0.51080  0.68080  1.0000
  N   N27       1.0  0.89730  0.47520  0.19040  1.0000
  N   N28       1.0  0.10270  0.52480  0.80960  1.0000
  H   H1        1.0  0.83800  0.74380  0.03460  1.0000
  H   H2        1.0  0.16200  0.25620  0.96540  1.0000
  H   H3        1.0  0.73470  0.72660  0.03610  1.0000
  H   H4        1.0  0.26530  0.27340  0.96390  1.0000
  H   H5        1.0  0.82260  0.59020  0.36500  1.0000
  H   H6        1.0  0.17740  0.40980  0.63500  1.0000
  H   H7        1.0  0.75130  0.68460  0.35680  1.0000
  H   H8        1.0  0.24870  0.31540  0.64320  1.0000
  H   H9        1.0  0.70630  0.84500  0.16060  1.0000
  H   H10       1.0  0.29370  0.15500  0.83940  1.0000
  H   H11       1.0  0.81730  0.83350  0.15730  1.0000
  H   H12       1.0  0.18270  0.16650  0.84270  1.0000
  H   H13       1.0  0.64830  0.50740  0.18320  1.0000
  H   H14       1.0  0.35170  0.49260  0.81680  1.0000
  H   H15       1.0  0.73230  0.51090  0.10810  1.0000
  H   H16       1.0  0.26770  0.48910  0.89190  1.0000
  C   C25       1.0  0.63980  0.49550  0.38120  1.0000
  C   C26       1.0  0.36020  0.50450  0.61880  1.0000
  C   C27       1.0  0.78330  0.39470  0.31900  1.0000
  C   C28       1.0  0.21670  0.60530  0.68100  1.0000
  C   C29       1.0  0.97900  0.46660  0.12670  1.0000
  C   C30       1.0  0.02100  0.53340  0.87330  1.0000
  C   C31       1.0  0.87470  0.38750  0.25080  1.0000
  C   C32       1.0  0.12530  0.61250  0.74920  1.0000
  C   C33       1.0  0.60700  0.41000  0.44560  1.0000
  C   C34       1.0  0.39300  0.59000  0.55440  1.0000
  H   H17       1.0  0.59890  0.56130  0.38250  1.0000
  H   H18       1.0  0.40110  0.43870  0.61750  1.0000
  C   C35       1.0  0.75820  0.30470  0.38160  1.0000
  C   C36       1.0  0.24180  0.69530  0.61840  1.0000
  H   H19       1.0  0.99480  0.52730  0.08460  1.0000
  H   H20       1.0  0.00520  0.47270  0.91540  1.0000
  C   C37       1.0  0.04430  0.37330  0.11740  1.0000
  C   C38       1.0  0.95570  0.62670  0.88260  1.0000
  C   C39       1.0  0.93570  0.29040  0.24630  1.0000
  C   C40       1.0  0.06430  0.70960  0.75370  1.0000
  C   C41       1.0  0.66730  0.31430  0.44490  1.0000
  C   C42       1.0  0.33270  0.68570  0.55510  1.0000
  H   H21       1.0  0.54510  0.41800  0.48830  1.0000
  H   H22       1.0  0.45490  0.58200  0.51170  1.0000
  C   C43       1.0  0.82290  0.20850  0.37610  1.0000
  C   C44       1.0  0.17710  0.79150  0.62390  1.0000
  C   C45       1.0  0.02260  0.28550  0.17770  1.0000
  C   C46       1.0  0.97740  0.71450  0.82230  1.0000
  H   H23       1.0  0.10210  0.37150  0.07010  1.0000
  H   H24       1.0  0.89790  0.62850  0.92990  1.0000
  C   C47       1.0  0.90700  0.20130  0.31200  1.0000
  C   C48       1.0  0.09300  0.79870  0.68800  1.0000
  H   H25       1.0  0.64690  0.25540  0.48730  1.0000
  H   H26       1.0  0.35310  0.74460  0.51270  1.0000
  H   H27       1.0  0.80620  0.14830  0.41860  1.0000
  H   H28       1.0  0.19380  0.85170  0.58140  1.0000
  H   H29       1.0  0.06590  0.22150  0.17330  1.0000
  H   H30       1.0  0.93410  0.77850  0.82670  1.0000
  H   H31       1.0  0.94860  0.13600  0.31000  1.0000
  H   H32       1.0  0.05140  0.86400  0.69000  1.0000
