data_image0
_chemical_formula_structural       Ce8Cl32O72H16C96
_chemical_formula_sum              "Ce8 Cl32 O72 H16 C96"
_cell_length_a       25.8876
_cell_length_b       15.6809
_cell_length_c       20.242
_cell_angle_alpha    90
_cell_angle_beta     96.934
_cell_angle_gamma    90

_space_group_name_H-M_alt    "P 1"
_space_group_IT_number       1

loop_
  _space_group_symop_operation_xyz
  'x, y, z'

loop_
  _atom_site_type_symbol
  _atom_site_label
  _atom_site_symmetry_multiplicity
  _atom_site_fract_x
  _atom_site_fract_y
  _atom_site_fract_z
  _atom_site_occupancy
  Ce  Ce1       1.0  0.57527  0.74997  0.46311  1.0000
  Ce  Ce2       1.0  0.42473  0.74997  0.03689  1.0000
  Ce  Ce3       1.0  0.07527  0.24997  0.46311  1.0000
  Ce  Ce4       1.0  0.92473  0.24997  0.03689  1.0000
  Ce  Ce5       1.0  0.42473  0.25003  0.53689  1.0000
  Ce  Ce6       1.0  0.57527  0.25003  0.96311  1.0000
  Ce  Ce7       1.0  0.92473  0.75003  0.53689  1.0000
  Ce  Ce8       1.0  0.07527  0.75003  0.96311  1.0000
  Cl  Cl1       1.0  0.75069  0.93428  0.43531  1.0000
  Cl  Cl2       1.0  0.24931  0.93428  0.06469  1.0000
  Cl  Cl3       1.0  0.25069  0.43428  0.43531  1.0000
  Cl  Cl4       1.0  0.74931  0.43428  0.06469  1.0000
  Cl  Cl5       1.0  0.24931  0.06572  0.56469  1.0000
  Cl  Cl6       1.0  0.75069  0.06572  0.93531  1.0000
  Cl  Cl7       1.0  0.74931  0.56572  0.56469  1.0000
  Cl  Cl8       1.0  0.25069  0.56572  0.93531  1.0000
  Cl  Cl9       1.0  0.56623  0.09000  0.39717  1.0000
  Cl  Cl10      1.0  0.43377  0.09000  0.10283  1.0000
  Cl  Cl11      1.0  0.06623  0.59000  0.39717  1.0000
  Cl  Cl12      1.0  0.93377  0.59000  0.10283  1.0000
  Cl  Cl13      1.0  0.43377  0.91000  0.60283  1.0000
  Cl  Cl14      1.0  0.56623  0.91000  0.89717  1.0000
  Cl  Cl15      1.0  0.93377  0.41000  0.60283  1.0000
  Cl  Cl16      1.0  0.06623  0.41000  0.89717  1.0000
  Cl  Cl17      1.0  0.48196  0.56529  0.64417  1.0000
  Cl  Cl18      1.0  0.51804  0.56529  0.85583  1.0000
  Cl  Cl19      1.0  0.98196  0.06529  0.64417  1.0000
  Cl  Cl20      1.0  0.01804  0.06529  0.85583  1.0000
  Cl  Cl21      1.0  0.51804  0.43471  0.35583  1.0000
  Cl  Cl22      1.0  0.48196  0.43471  0.14417  1.0000
  Cl  Cl23      1.0  0.01804  0.93471  0.35583  1.0000
  Cl  Cl24      1.0  0.98196  0.93471  0.14417  1.0000
  Cl  Cl25      1.0  0.61114  0.73815  0.19876  1.0000
  Cl  Cl26      1.0  0.38886  0.73815  0.30124  1.0000
  Cl  Cl27      1.0  0.11114  0.23815  0.19876  1.0000
  Cl  Cl28      1.0  0.88886  0.23815  0.30124  1.0000
  Cl  Cl29      1.0  0.38886  0.26185  0.80124  1.0000
  Cl  Cl30      1.0  0.61114  0.26185  0.69876  1.0000
  Cl  Cl31      1.0  0.88886  0.76185  0.80124  1.0000
  Cl  Cl32      1.0  0.11114  0.76185  0.69876  1.0000
  O   O1        1.0  0.65961  0.82190  0.44953  1.0000
  O   O2        1.0  0.34039  0.82190  0.05047  1.0000
  O   O3        1.0  0.15961  0.32190  0.44953  1.0000
  O   O4        1.0  0.84039  0.32190  0.05047  1.0000
  O   O5        1.0  0.34039  0.17810  0.55047  1.0000
  O   O6        1.0  0.65961  0.17810  0.94953  1.0000
  O   O7        1.0  0.84039  0.67810  0.55047  1.0000
  O   O8        1.0  0.15961  0.67810  0.94953  1.0000
  O   O9        1.0  0.54002  0.65153  0.54324  1.0000
  O   O10       1.0  0.45998  0.65153  0.95676  1.0000
  O   O11       1.0  0.04002  0.15153  0.54324  1.0000
  O   O12       1.0  0.95998  0.15153  0.95676  1.0000
  O   O13       1.0  0.45998  0.34847  0.45676  1.0000
  O   O14       1.0  0.54002  0.34847  0.04324  1.0000
  O   O15       1.0  0.95998  0.84847  0.45676  1.0000
  O   O16       1.0  0.04002  0.84847  0.04324  1.0000
  O   O17       1.0  0.84173  0.83222  0.49995  1.0000
  O   O18       1.0  0.15827  0.83222  0.00005  1.0000
  O   O19       1.0  0.34173  0.33222  0.49995  1.0000
  O   O20       1.0  0.65827  0.33222  0.00005  1.0000
  O   O21       1.0  0.15827  0.16778  0.50005  1.0000
  O   O22       1.0  0.84173  0.16778  0.99995  1.0000
  O   O23       1.0  0.65827  0.66778  0.50005  1.0000
  O   O24       1.0  0.34173  0.66778  0.99995  1.0000
  O   O25       1.0  0.58608  0.74443  0.34070  1.0000
  O   O26       1.0  0.41392  0.74443  0.15930  1.0000
  O   O27       1.0  0.08608  0.24443  0.34070  1.0000
  O   O28       1.0  0.91392  0.24443  0.15930  1.0000
  O   O29       1.0  0.41392  0.25557  0.65930  1.0000
  O   O30       1.0  0.58608  0.25557  0.84070  1.0000
  O   O31       1.0  0.91392  0.75557  0.65930  1.0000
  O   O32       1.0  0.08608  0.75557  0.84070  1.0000
  O   O33       1.0  0.44410  0.40302  0.57495  1.0000
  O   O34       1.0  0.55590  0.40302  0.92505  1.0000
  O   O35       1.0  0.94410  0.90302  0.57495  1.0000
  O   O36       1.0  0.05590  0.90302  0.92505  1.0000
  O   O37       1.0  0.55590  0.59698  0.42505  1.0000
  O   O38       1.0  0.44410  0.59698  0.07495  1.0000
  O   O39       1.0  0.05590  0.09698  0.42505  1.0000
  O   O40       1.0  0.94410  0.09698  0.07495  1.0000
  O   O41       1.0  0.50701  0.74271  0.11877  1.0000
  O   O42       1.0  0.49299  0.74271  0.38123  1.0000
  O   O43       1.0  0.00701  0.24271  0.11877  1.0000
  O   O44       1.0  0.99299  0.24271  0.38123  1.0000
  O   O45       1.0  0.49299  0.25729  0.88123  1.0000
  O   O46       1.0  0.50701  0.25729  0.61877  1.0000
  O   O47       1.0  0.99299  0.75729  0.88123  1.0000
  O   O48       1.0  0.00701  0.75729  0.61877  1.0000
  O   O49       1.0  0.56005  0.90379  0.42932  1.0000
  O   O50       1.0  0.43995  0.90379  0.07068  1.0000
  O   O51       1.0  0.06005  0.40379  0.42932  1.0000
  O   O52       1.0  0.93995  0.40379  0.07068  1.0000
  O   O53       1.0  0.43995  0.09621  0.57068  1.0000
  O   O54       1.0  0.56005  0.09621  0.92932  1.0000
  O   O55       1.0  0.93995  0.59621  0.57068  1.0000
  O   O56       1.0  0.06005  0.59621  0.92932  1.0000
  O   O57       1.0  0.49529  0.17039  0.48613  1.0000
  O   O58       1.0  0.50471  0.17039  0.01387  1.0000
  O   O59       1.0  0.99529  0.67039  0.48613  1.0000
  O   O60       1.0  0.00471  0.67039  0.01387  1.0000
  O   O61       1.0  0.50471  0.82961  0.51387  1.0000
  O   O62       1.0  0.49529  0.82961  0.98613  1.0000
  O   O63       1.0  0.00471  0.32961  0.51387  1.0000
  O   O64       1.0  0.99529  0.32961  0.98613  1.0000
  O   O65       1.0  0.60884  0.81382  0.57573  1.0000
  O   O66       1.0  0.39116  0.81382  0.92427  1.0000
  O   O67       1.0  0.10884  0.31382  0.57573  1.0000
  O   O68       1.0  0.89116  0.31382  0.92427  1.0000
  O   O69       1.0  0.39116  0.18618  0.42427  1.0000
  O   O70       1.0  0.60884  0.18618  0.07573  1.0000
  O   O71       1.0  0.89116  0.68618  0.42427  1.0000
  O   O72       1.0  0.10884  0.68618  0.07573  1.0000
  H   H1        1.0  0.58905  0.83013  0.61013  1.0000
  H   H2        1.0  0.41095  0.83013  0.88987  1.0000
  H   H3        1.0  0.08905  0.33013  0.61013  1.0000
  H   H4        1.0  0.91095  0.33013  0.88987  1.0000
  H   H5        1.0  0.41095  0.16987  0.38987  1.0000
  H   H6        1.0  0.58905  0.16987  0.11013  1.0000
  H   H7        1.0  0.91095  0.66987  0.38987  1.0000
  H   H8        1.0  0.08905  0.66987  0.11013  1.0000
  H   H9        1.0  0.64379  0.82657  0.59237  1.0000
  H   H10       1.0  0.35621  0.82657  0.90763  1.0000
  H   H11       1.0  0.14379  0.32657  0.59237  1.0000
  H   H12       1.0  0.85621  0.32657  0.90763  1.0000
  H   H13       1.0  0.35621  0.17343  0.40763  1.0000
  H   H14       1.0  0.64379  0.17343  0.09237  1.0000
  H   H15       1.0  0.85621  0.67343  0.40763  1.0000
  H   H16       1.0  0.14379  0.67343  0.09237  1.0000
  C   C1        1.0  0.75047  0.83408  0.47173  1.0000
  C   C2        1.0  0.24953  0.83408  0.02827  1.0000
  C   C3        1.0  0.25047  0.33408  0.47173  1.0000
  C   C4        1.0  0.74953  0.33408  0.02827  1.0000
  C   C5        1.0  0.24953  0.16592  0.52827  1.0000
  C   C6        1.0  0.75047  0.16592  0.97173  1.0000
  C   C7        1.0  0.74953  0.66592  0.52827  1.0000
  C   C8        1.0  0.25047  0.66592  0.97173  1.0000
  C   C9        1.0  0.52059  0.58005  0.52677  1.0000
  C   C10       1.0  0.47941  0.58005  0.97323  1.0000
  C   C11       1.0  0.02059  0.08005  0.52677  1.0000
  C   C12       1.0  0.97941  0.08005  0.97323  1.0000
  C   C13       1.0  0.47941  0.41995  0.47323  1.0000
  C   C14       1.0  0.52059  0.41995  0.02677  1.0000
  C   C15       1.0  0.97941  0.91995  0.47323  1.0000
  C   C16       1.0  0.02059  0.91995  0.02677  1.0000
  C   C17       1.0  0.49290  0.52874  0.56632  1.0000
  C   C18       1.0  0.50710  0.52874  0.93368  1.0000
  C   C19       1.0  0.99290  0.02874  0.56632  1.0000
  C   C20       1.0  0.00710  0.02874  0.93368  1.0000
  C   C21       1.0  0.50710  0.47126  0.43368  1.0000
  C   C22       1.0  0.49290  0.47126  0.06632  1.0000
  C   C23       1.0  0.00710  0.97126  0.43368  1.0000
  C   C24       1.0  0.99290  0.97126  0.06632  1.0000
  C   C25       1.0  0.50626  0.74016  0.18016  1.0000
  C   C26       1.0  0.49374  0.74016  0.31984  1.0000
  C   C27       1.0  0.00626  0.24016  0.18016  1.0000
  C   C28       1.0  0.99374  0.24016  0.31984  1.0000
  C   C29       1.0  0.49374  0.25984  0.81984  1.0000
  C   C30       1.0  0.50626  0.25984  0.68016  1.0000
  C   C31       1.0  0.99374  0.75984  0.81984  1.0000
  C   C32       1.0  0.00626  0.75984  0.68016  1.0000
  C   C33       1.0  0.47099  0.45111  0.54349  1.0000
  C   C34       1.0  0.52901  0.45111  0.95651  1.0000
  C   C35       1.0  0.97099  0.95111  0.54349  1.0000
  C   C36       1.0  0.02901  0.95111  0.95651  1.0000
  C   C37       1.0  0.52901  0.54889  0.45651  1.0000
  C   C38       1.0  0.47099  0.54889  0.04349  1.0000
  C   C39       1.0  0.02901  0.04889  0.45651  1.0000
  C   C40       1.0  0.97099  0.04889  0.04349  1.0000
  C   C41       1.0  0.79767  0.79804  0.49786  1.0000
  C   C42       1.0  0.20233  0.79804  0.00214  1.0000
  C   C43       1.0  0.29767  0.29804  0.49786  1.0000
  C   C44       1.0  0.70233  0.29804  0.00214  1.0000
  C   C45       1.0  0.20233  0.20196  0.50214  1.0000
  C   C46       1.0  0.79767  0.20196  0.99786  1.0000
  C   C47       1.0  0.70233  0.70196  0.50214  1.0000
  C   C48       1.0  0.29767  0.70196  0.99786  1.0000
  C   C49       1.0  0.70292  0.79246  0.47219  1.0000
  C   C50       1.0  0.29708  0.79246  0.02781  1.0000
  C   C51       1.0  0.20292  0.29246  0.47219  1.0000
  C   C52       1.0  0.79708  0.29246  0.02781  1.0000
  C   C53       1.0  0.29708  0.20754  0.52781  1.0000
  C   C54       1.0  0.70292  0.20754  0.97219  1.0000
  C   C55       1.0  0.79708  0.70754  0.52781  1.0000
  C   C56       1.0  0.20292  0.70754  0.97219  1.0000
  C   C57       1.0  0.53294  0.95265  0.46015  1.0000
  C   C58       1.0  0.46706  0.95265  0.03985  1.0000
  C   C59       1.0  0.03294  0.45265  0.46015  1.0000
  C   C60       1.0  0.96706  0.45265  0.03985  1.0000
  C   C61       1.0  0.46706  0.04735  0.53985  1.0000
  C   C62       1.0  0.53294  0.04735  0.96015  1.0000
  C   C63       1.0  0.96706  0.54735  0.53985  1.0000
  C   C64       1.0  0.03294  0.54735  0.96015  1.0000
  C   C65       1.0  0.54790  0.74051  0.29558  1.0000
  C   C66       1.0  0.45210  0.74051  0.20442  1.0000
  C   C67       1.0  0.04790  0.24051  0.29558  1.0000
  C   C68       1.0  0.95210  0.24051  0.20442  1.0000
  C   C69       1.0  0.45210  0.25949  0.70442  1.0000
  C   C70       1.0  0.54790  0.25949  0.79558  1.0000
  C   C71       1.0  0.95210  0.75949  0.70442  1.0000
  C   C72       1.0  0.04790  0.75949  0.79558  1.0000
  C   C73       1.0  0.55072  0.73794  0.22751  1.0000
  C   C74       1.0  0.44928  0.73794  0.27249  1.0000
  C   C75       1.0  0.05072  0.23794  0.22751  1.0000
  C   C76       1.0  0.94928  0.23794  0.27249  1.0000
  C   C77       1.0  0.44928  0.26206  0.77249  1.0000
  C   C78       1.0  0.55072  0.26206  0.72751  1.0000
  C   C79       1.0  0.94928  0.76206  0.77249  1.0000
  C   C80       1.0  0.05072  0.76206  0.72751  1.0000
  C   C81       1.0  0.52994  0.04065  0.45311  1.0000
  C   C82       1.0  0.47006  0.04065  0.04689  1.0000
  C   C83       1.0  0.02994  0.54065  0.45311  1.0000
  C   C84       1.0  0.97006  0.54065  0.04689  1.0000
  C   C85       1.0  0.47006  0.95935  0.54689  1.0000
  C   C86       1.0  0.52994  0.95935  0.95311  1.0000
  C   C87       1.0  0.97006  0.45935  0.54689  1.0000
  C   C88       1.0  0.02994  0.45935  0.95311  1.0000
  C   C89       1.0  0.49924  0.09132  0.48998  1.0000
  C   C90       1.0  0.50076  0.09132  0.01002  1.0000
  C   C91       1.0  0.99924  0.59132  0.48998  1.0000
  C   C92       1.0  0.00076  0.59132  0.01002  1.0000
  C   C93       1.0  0.50076  0.90868  0.51002  1.0000
  C   C94       1.0  0.49924  0.90868  0.98998  1.0000
  C   C95       1.0  0.00076  0.40868  0.51002  1.0000
  C   C96       1.0  0.99924  0.40868  0.98998  1.0000
