data_image0
_chemical_formula_structural       Ce2Cl8O18H4C24
_chemical_formula_sum              "Ce2 Cl8 O18 H4 C24"
_cell_length_a       10.9811
_cell_length_b       12.4783
_cell_length_c       14.0253
_cell_angle_alpha    102.349
_cell_angle_beta     107.044
_cell_angle_gamma    97.194

_space_group_name_H-M_alt    "P 1"
_space_group_IT_number       1

loop_
  _space_group_symop_operation_xyz
  'x, y, z'

loop_
  _atom_site_type_symbol
  _atom_site_label
  _atom_site_symmetry_multiplicity
  _atom_site_fract_x
  _atom_site_fract_y
  _atom_site_fract_z
  _atom_site_occupancy
  Ce  Ce1       1.0  0.71469  0.67552  0.33332  1.0000
  Ce  Ce2       1.0  0.28531  0.32448  0.66668  1.0000
  Cl  Cl1       1.0  0.94229  0.60250  0.70658  1.0000
  Cl  Cl2       1.0  0.05771  0.39750  0.29342  1.0000
  Cl  Cl3       1.0  0.76252  0.54907  0.94982  1.0000
  Cl  Cl4       1.0  0.23748  0.45093  0.05018  1.0000
  Cl  Cl5       1.0  0.36970  0.70998  0.54770  1.0000
  Cl  Cl6       1.0  0.63030  0.29002  0.45230  1.0000
  Cl  Cl7       1.0  0.79300  0.08655  0.59833  1.0000
  Cl  Cl8       1.0  0.20700  0.91345  0.40167  1.0000
  O   O1        1.0  0.85380  0.65763  0.50348  1.0000
  O   O2        1.0  0.14620  0.34237  0.49652  1.0000
  O   O3        1.0  0.12100  0.44339  0.67312  1.0000
  O   O4        1.0  0.87900  0.55661  0.32688  1.0000
  O   O5        1.0  0.36150  0.50726  0.62930  1.0000
  O   O6        1.0  0.63850  0.49274  0.37070  1.0000
  O   O7        1.0  0.54570  0.67430  0.41981  1.0000
  O   O8        1.0  0.45430  0.32570  0.58019  1.0000
  O   O9        1.0  0.49920  0.42055  0.80591  1.0000
  O   O10       1.0  0.50080  0.57945  0.19409  1.0000
  O   O11       1.0  0.71700  0.62170  0.15260  1.0000
  O   O12       1.0  0.28300  0.37830  0.84740  1.0000
  O   O13       1.0  0.06960  0.20253  0.63759  1.0000
  O   O14       1.0  0.93040  0.79747  0.36241  1.0000
  O   O15       1.0  0.76980  0.86490  0.45780  1.0000
  O   O16       1.0  0.23020  0.13510  0.54220  1.0000
  O   O17       1.0  0.61490  0.82510  0.25140  1.0000
  O   O18       1.0  0.38510  0.17490  0.74860  1.0000
  H   H1        1.0  0.58871  0.80384  0.18071  1.0000
  H   H2        1.0  0.41129  0.19616  0.81929  1.0000
  H   H3        1.0  0.67522  0.88903  0.26632  1.0000
  H   H4        1.0  0.32478  0.11097  0.73368  1.0000
  C   C1        1.0  0.91990  0.58240  0.50670  1.0000
  C   C2        1.0  0.08010  0.41760  0.49330  1.0000
  C   C3        1.0  0.03020  0.10890  0.57370  1.0000
  C   C4        1.0  0.96980  0.89110  0.42630  1.0000
  C   C5        1.0  0.51830  0.59520  0.45860  1.0000
  C   C6        1.0  0.48170  0.40480  0.54140  1.0000
  C   C7        1.0  0.50680  0.46050  0.89830  1.0000
  C   C8        1.0  0.49320  0.53950  0.10170  1.0000
  C   C9        1.0  0.05890  0.47160  0.59460  1.0000
  C   C10       1.0  0.94110  0.52840  0.40540  1.0000
  C   C11       1.0  0.42310  0.50810  0.56740  1.0000
  C   C12       1.0  0.57690  0.49190  0.43260  1.0000
  C   C13       1.0  0.44140  0.59590  0.52150  1.0000
  C   C14       1.0  0.55860  0.40410  0.47850  1.0000
  C   C15       1.0  0.90760  0.03920  0.54690  1.0000
  C   C16       1.0  0.09240  0.96080  0.45310  1.0000
  C   C17       1.0  0.97470  0.54650  0.59430  1.0000
  C   C18       1.0  0.02530  0.45350  0.40570  1.0000
  C   C19       1.0  0.61880  0.52330  0.97670  1.0000
  C   C20       1.0  0.38120  0.47670  0.02330  1.0000
  C   C21       1.0  0.61990  0.56480  0.07760  1.0000
  C   C22       1.0  0.38010  0.43520  0.92240  1.0000
  C   C23       1.0  0.87460  0.93310  0.47970  1.0000
  C   C24       1.0  0.12540  0.06690  0.52030  1.0000
