data_image0
_chemical_formula_structural       Cd4O6H2O18H2O8C4H2C2H2C4H2C2H2C8H2C2H2C4H2C2H2C8H2C2H2C4H2C2H2C8H2C2H2C6H2C2H2C2O2H4
_chemical_formula_sum              "Cd4 O34 H40 C64"
_cell_length_a       10.101
_cell_length_b       15.191
_cell_length_c       23.331
_cell_angle_alpha    87.722
_cell_angle_beta     88.484
_cell_angle_gamma    88.785

_space_group_name_H-M_alt    "P 1"
_space_group_IT_number       1

loop_
  _space_group_symop_operation_xyz
  'x, y, z'

loop_
  _atom_site_type_symbol
  _atom_site_label
  _atom_site_symmetry_multiplicity
  _atom_site_fract_x
  _atom_site_fract_y
  _atom_site_fract_z
  _atom_site_occupancy
  Cd  Cd1       1.0  0.02686  0.61665  0.01921  1.0000
  Cd  Cd2       1.0  0.97314  0.38335  0.98079  1.0000
  Cd  Cd3       1.0  0.10387  0.11562  0.65291  1.0000
  Cd  Cd4       1.0  0.89613  0.88438  0.34709  1.0000
  O   O1        1.0  0.22380  0.67460  0.06314  1.0000
  O   O2        1.0  0.77620  0.32540  0.93686  1.0000
  O   O3        1.0  0.04270  0.65020  0.11516  1.0000
  O   O4        1.0  0.95730  0.34980  0.88484  1.0000
  O   O5        1.0  0.54060  0.80690  0.30445  1.0000
  O   O6        1.0  0.45940  0.19310  0.69555  1.0000
  H   H1        1.0  0.57050  0.84060  0.32900  1.0000
  H   H2        1.0  0.42950  0.15940  0.67100  1.0000
  O   O7        1.0  0.34660  0.83990  0.34503  1.0000
  O   O8        1.0  0.65340  0.16010  0.65497  1.0000
  O   O9        1.0  0.10110  0.65150  0.92407  1.0000
  O   O10       1.0  0.89890  0.34850  0.07593  1.0000
  O   O11       1.0  0.99690  0.75480  0.97165  1.0000
  O   O12       1.0  0.00310  0.24520  0.02835  1.0000
  O   O13       1.0  0.14670  0.95120  0.68690  1.0000
  O   O14       1.0  0.85330  0.04880  0.31310  1.0000
  O   O15       1.0  0.06570  0.05360  0.73960  1.0000
  O   O16       1.0  0.93430  0.94640  0.26040  1.0000
  O   O17       1.0  0.09030  0.26000  0.68240  1.0000
  O   O18       1.0  0.90970  0.74000  0.31760  1.0000
  O   O19       1.0  0.11090  0.24650  0.59080  1.0000
  O   O20       1.0  0.88910  0.75350  0.40920  1.0000
  O   O21       1.0  0.98570  0.71100  0.63010  1.0000
  O   O22       1.0  0.01430  0.28900  0.36990  1.0000
  O   O23       1.0  0.06900  0.69720  0.53970  1.0000
  O   O24       1.0  0.93100  0.30280  0.46030  1.0000
  H   H3        1.0  0.04830  0.74970  0.53740  1.0000
  H   H4        1.0  0.95170  0.25030  0.46260  1.0000
  O   O25       1.0  0.86120  0.51740  0.97335  1.0000
  O   O26       1.0  0.13880  0.48260  0.02665  1.0000
  O   O27       1.0  0.80290  0.60510  0.04233  1.0000
  O   O28       1.0  0.19710  0.39490  0.95767  1.0000
  O   O29       1.0  0.17840  0.05140  0.56773  1.0000
  O   O30       1.0  0.82160  0.94860  0.43227  1.0000
  O   O31       1.0  0.32930  0.10010  0.62326  1.0000
  O   O32       1.0  0.67070  0.89990  0.37674  1.0000
  C   C1        1.0  0.22760  0.70240  0.16270  1.0000
  C   C2        1.0  0.77240  0.29760  0.83730  1.0000
  C   C3        1.0  0.15440  0.72410  0.21090  1.0000
  C   C4        1.0  0.84560  0.27590  0.78910  1.0000
  H   H5        1.0  0.06330  0.71600  0.21210  1.0000
  H   H6        1.0  0.93670  0.28400  0.78790  1.0000
  C   C5        1.0  0.21510  0.75770  0.25720  1.0000
  C   C6        1.0  0.78490  0.24230  0.74280  1.0000
  H   H7        1.0  0.16430  0.77330  0.28920  1.0000
  H   H8        1.0  0.83570  0.22670  0.71080  1.0000
  C   C7        1.0  0.35080  0.76850  0.25670  1.0000
  C   C8        1.0  0.64920  0.23150  0.74330  1.0000
  C   C9        1.0  0.42700  0.74300  0.20890  1.0000
  C   C10       1.0  0.57300  0.25700  0.79110  1.0000
  H   H9        1.0  0.51870  0.74770  0.20850  1.0000
  H   H10       1.0  0.48130  0.25230  0.79150  1.0000
  C   C11       1.0  0.36470  0.71070  0.16230  1.0000
  C   C12       1.0  0.63530  0.28930  0.83770  1.0000
  H   H11       1.0  0.41490  0.69430  0.13030  1.0000
  H   H12       1.0  0.58510  0.30570  0.86970  1.0000
  C   C13       1.0  0.16040  0.67310  0.10940  1.0000
  C   C14       1.0  0.83960  0.32690  0.89060  1.0000
  C   C15       1.0  0.41090  0.80840  0.30590  1.0000
  C   C16       1.0  0.58910  0.19160  0.69410  1.0000
  C   C17       1.0  0.07140  0.79200  0.87730  1.0000
  C   C18       1.0  0.92860  0.20800  0.12270  1.0000
  C   C19       1.0  0.13570  0.76840  0.82690  1.0000
  C   C20       1.0  0.86430  0.23160  0.17310  1.0000
  H   H13       1.0  0.17220  0.71190  0.82430  1.0000
  H   H14       1.0  0.82780  0.28810  0.17570  1.0000
  C   C21       1.0  0.14670  0.82730  0.78030  1.0000
  C   C22       1.0  0.85330  0.17270  0.21970  1.0000
  H   H15       1.0  0.18940  0.81000  0.74660  1.0000
  H   H16       1.0  0.81060  0.19000  0.25340  1.0000
  C   C23       1.0  0.09440  0.91180  0.78380  1.0000
  C   C24       1.0  0.90560  0.08820  0.21620  1.0000
  C   C25       1.0  0.03480  0.93570  0.83390  1.0000
  C   C26       1.0  0.96520  0.06430  0.16610  1.0000
  H   H17       1.0  0.00160  0.99290  0.83700  1.0000
  H   H18       1.0  0.99840  0.00710  0.16300  1.0000
  C   C27       1.0  0.02280  0.87780  0.87960  1.0000
  C   C28       1.0  0.97720  0.12220  0.12040  1.0000
  H   H19       1.0  0.98110  0.89620  0.91320  1.0000
  H   H20       1.0  0.01890  0.10380  0.08680  1.0000
  C   C29       1.0  0.05470  0.72830  0.92780  1.0000
  C   C30       1.0  0.94530  0.27170  0.07220  1.0000
  C   C31       1.0  0.10470  0.97560  0.73320  1.0000
  C   C32       1.0  0.89530  0.02440  0.26680  1.0000
  C   C33       1.0  0.08800  0.39050  0.62430  1.0000
  C   C34       1.0  0.91200  0.60950  0.37570  1.0000
  C   C35       1.0  0.11550  0.42670  0.56910  1.0000
  C   C36       1.0  0.88450  0.57330  0.43090  1.0000
  H   H21       1.0  0.14140  0.39050  0.53940  1.0000
  H   H22       1.0  0.85860  0.60950  0.46060  1.0000
  C   C37       1.0  0.10360  0.51730  0.55930  1.0000
  C   C38       1.0  0.89640  0.48270  0.44070  1.0000
  H   H23       1.0  0.12870  0.54270  0.52390  1.0000
  H   H24       1.0  0.87130  0.45730  0.47610  1.0000
  C   C39       1.0  0.05460  0.56920  0.60220  1.0000
  C   C40       1.0  0.94540  0.43080  0.39780  1.0000
  C   C41       1.0  0.02910  0.53360  0.65610  1.0000
  C   C42       1.0  0.97090  0.46640  0.34390  1.0000
  H   H25       1.0  0.00010  0.56970  0.68530  1.0000
  H   H26       1.0  0.99990  0.43030  0.31470  1.0000
  C   C43       1.0  0.04630  0.44420  0.66720  1.0000
  C   C44       1.0  0.95370  0.55580  0.33280  1.0000
  H   H27       1.0  0.02950  0.42030  0.70400  1.0000
  H   H28       1.0  0.97050  0.57970  0.29600  1.0000
  C   C45       1.0  0.09690  0.29200  0.63390  1.0000
  C   C46       1.0  0.90310  0.70800  0.36610  1.0000
  C   C47       1.0  0.02740  0.66430  0.58660  1.0000
  C   C48       1.0  0.97260  0.33570  0.41340  1.0000
  C   C49       1.0  0.63230  0.52420  0.00280  1.0000
  C   C50       1.0  0.36770  0.47580  0.99720  1.0000
  C   C51       1.0  0.54350  0.53860  0.04850  1.0000
  C   C52       1.0  0.45650  0.46140  0.95150  1.0000
  H   H29       1.0  0.57270  0.56450  0.08120  1.0000
  H   H30       1.0  0.42730  0.43550  0.91880  1.0000
  C   C53       1.0  0.58710  0.48520  0.95440  1.0000
  C   C54       1.0  0.41290  0.51480  0.04560  1.0000
  H   H31       1.0  0.64520  0.47510  0.92370  1.0000
  H   H32       1.0  0.35480  0.52490  0.07630  1.0000
  C   C55       1.0  0.77410  0.54990  0.00680  1.0000
  C   C56       1.0  0.22590  0.45010  0.99320  1.0000
  C   C57       1.0  0.40230  0.03230  0.53720  1.0000
  C   C58       1.0  0.59770  0.96770  0.46280  1.0000
  C   C59       1.0  0.36800  0.99130  0.48830  1.0000
  C   C60       1.0  0.63200  0.00870  0.51170  1.0000
  H   H33       1.0  0.27910  0.98530  0.48020  1.0000
  H   H34       1.0  0.72090  0.01470  0.51980  1.0000
  C   C61       1.0  0.53510  0.04100  0.54910  1.0000
  C   C62       1.0  0.46490  0.95900  0.45090  1.0000
  H   H35       1.0  0.55930  0.06850  0.58210  1.0000
  H   H36       1.0  0.44070  0.93150  0.41790  1.0000
  C   C63       1.0  0.29720  0.06370  0.57850  1.0000
  C   C64       1.0  0.70280  0.93630  0.42150  1.0000
  O   O33       1.0  0.89670  0.09490  0.61760  1.0000
  O   O34       1.0  0.10330  0.90510  0.38240  1.0000
  H   H37       1.0  0.86680  0.06110  0.59300  1.0000
  H   H38       1.0  0.13320  0.93890  0.40700  1.0000
  H   H39       1.0  0.82540  0.10940  0.63530  1.0000
  H   H40       1.0  0.17460  0.89060  0.36470  1.0000
