data_image0
_chemical_formula_structural       O4C4Co4O20C8H4C4H4C4H4C16H4C8H4C8H4C8O4C4O4
_chemical_formula_sum              "O32 C64 Co4 H24"
_cell_length_a       19.601
_cell_length_b       9.3797
_cell_length_c       18.63
_cell_angle_alpha    90
_cell_angle_beta     95.69
_cell_angle_gamma    90

_space_group_name_H-M_alt    "P 1"
_space_group_IT_number       1

loop_
  _space_group_symop_operation_xyz
  'x, y, z'

loop_
  _atom_site_type_symbol
  _atom_site_label
  _atom_site_symmetry_multiplicity
  _atom_site_fract_x
  _atom_site_fract_y
  _atom_site_fract_z
  _atom_site_occupancy
  O   O1        1.0  0.18150  0.79800  0.50130  1.0000
  O   O2        1.0  0.81850  0.79800  0.99870  1.0000
  O   O3        1.0  0.81850  0.20200  0.49870  1.0000
  O   O4        1.0  0.18150  0.20200  0.00130  1.0000
  C   C1        1.0  0.20420  0.66880  0.50140  1.0000
  C   C2        1.0  0.79580  0.66880  0.99860  1.0000
  C   C3        1.0  0.79580  0.33120  0.49860  1.0000
  C   C4        1.0  0.20420  0.33120  0.00140  1.0000
  Co  Co1       1.0  0.24933  0.94614  0.50094  1.0000
  Co  Co2       1.0  0.75067  0.94614  0.99906  1.0000
  Co  Co3       1.0  0.75067  0.05386  0.49906  1.0000
  Co  Co4       1.0  0.24933  0.05386  0.00094  1.0000
  O   O5        1.0  0.28830  0.95320  0.41020  1.0000
  O   O6        1.0  0.71170  0.95320  0.08980  1.0000
  O   O7        1.0  0.71170  0.04680  0.58980  1.0000
  O   O8        1.0  0.28830  0.04680  0.91020  1.0000
  O   O9        1.0  0.32020  0.06720  0.08220  1.0000
  O   O10       1.0  0.67980  0.06720  0.41780  1.0000
  O   O11       1.0  0.67980  0.93280  0.91780  1.0000
  O   O12       1.0  0.32020  0.93280  0.58220  1.0000
  O   O13       1.0  0.23650  0.04270  0.15000  1.0000
  O   O14       1.0  0.76350  0.04270  0.35000  1.0000
  O   O15       1.0  0.76350  0.95730  0.85000  1.0000
  O   O16       1.0  0.23650  0.95730  0.65000  1.0000
  O   O17       1.0  0.11120  0.07730  0.54020  1.0000
  O   O18       1.0  0.88880  0.07730  0.95980  1.0000
  O   O19       1.0  0.88880  0.92270  0.45980  1.0000
  O   O20       1.0  0.11120  0.92270  0.04020  1.0000
  O   O21       1.0  0.20980  0.13450  0.49830  1.0000
  O   O22       1.0  0.79020  0.13450  0.00170  1.0000
  O   O23       1.0  0.79020  0.86550  0.50170  1.0000
  O   O24       1.0  0.20980  0.86550  0.99830  1.0000
  C   C5        1.0  0.15450  0.55350  0.49820  1.0000
  C   C6        1.0  0.84550  0.55350  0.00180  1.0000
  C   C7        1.0  0.84550  0.44650  0.50180  1.0000
  C   C8        1.0  0.15450  0.44650  0.99820  1.0000
  C   C9        1.0  0.17630  0.41550  0.50460  1.0000
  C   C10       1.0  0.82370  0.41550  0.99540  1.0000
  C   C11       1.0  0.82370  0.58450  0.49540  1.0000
  C   C12       1.0  0.17630  0.58450  0.00460  1.0000
  H   H1        1.0  0.22360  0.39240  0.50590  1.0000
  H   H2        1.0  0.77640  0.39240  0.99410  1.0000
  H   H3        1.0  0.77640  0.60760  0.49410  1.0000
  H   H4        1.0  0.22360  0.60760  0.00590  1.0000
  C   C13       1.0  0.08630  0.58760  0.49760  1.0000
  C   C14       1.0  0.91370  0.58760  0.00240  1.0000
  C   C15       1.0  0.91370  0.41240  0.50240  1.0000
  C   C16       1.0  0.08630  0.41240  0.99760  1.0000
  H   H5        1.0  0.07310  0.68500  0.49460  1.0000
  H   H6        1.0  0.92690  0.68500  0.00540  1.0000
  H   H7        1.0  0.92690  0.31500  0.50540  1.0000
  H   H8        1.0  0.07310  0.31500  0.99460  1.0000
  C   C17       1.0  0.32330  0.98380  0.26970  1.0000
  C   C18       1.0  0.67670  0.98380  0.23030  1.0000
  C   C19       1.0  0.67670  0.01620  0.73030  1.0000
  C   C20       1.0  0.32330  0.01620  0.76970  1.0000
  H   H9        1.0  0.27560  0.98630  0.27470  1.0000
  H   H10       1.0  0.72440  0.98630  0.22530  1.0000
  H   H11       1.0  0.72440  0.01370  0.72530  1.0000
  H   H12       1.0  0.27560  0.01370  0.77470  1.0000
  C   C21       1.0  0.46160  0.97420  0.25190  1.0000
  C   C22       1.0  0.53840  0.97420  0.24810  1.0000
  C   C23       1.0  0.53840  0.02580  0.74810  1.0000
  C   C24       1.0  0.46160  0.02580  0.75190  1.0000
  C   C25       1.0  0.12840  0.31210  0.50910  1.0000
  C   C26       1.0  0.87160  0.31210  0.99090  1.0000
  C   C27       1.0  0.87160  0.68790  0.49090  1.0000
  C   C28       1.0  0.12840  0.68790  0.00910  1.0000
  C   C29       1.0  0.36950  0.95230  0.32700  1.0000
  C   C30       1.0  0.63050  0.95230  0.17300  1.0000
  C   C31       1.0  0.63050  0.04770  0.67300  1.0000
  C   C32       1.0  0.36950  0.04770  0.82700  1.0000
  C   C33       1.0  0.44100  0.94230  0.32140  1.0000
  C   C34       1.0  0.55900  0.94230  0.17860  1.0000
  C   C35       1.0  0.55900  0.05770  0.67860  1.0000
  C   C36       1.0  0.44100  0.05770  0.82140  1.0000
  H   H13       1.0  0.47270  0.91610  0.36100  1.0000
  H   H14       1.0  0.52730  0.91610  0.13900  1.0000
  H   H15       1.0  0.52730  0.08390  0.63900  1.0000
  H   H16       1.0  0.47270  0.08390  0.86100  1.0000
  C   C37       1.0  0.03590  0.48370  0.50110  1.0000
  C   C38       1.0  0.96410  0.48370  0.99890  1.0000
  C   C39       1.0  0.96410  0.51630  0.49890  1.0000
  C   C40       1.0  0.03590  0.51630  0.00110  1.0000
  C   C41       1.0  0.05990  0.34280  0.50880  1.0000
  C   C42       1.0  0.94010  0.34280  0.99120  1.0000
  C   C43       1.0  0.94010  0.65720  0.49120  1.0000
  C   C44       1.0  0.05990  0.65720  0.00880  1.0000
  H   H17       1.0  0.02830  0.26760  0.51390  1.0000
  H   H18       1.0  0.97170  0.26760  0.98610  1.0000
  H   H19       1.0  0.97170  0.73240  0.48610  1.0000
  H   H20       1.0  0.02830  0.73240  0.01390  1.0000
  C   C45       1.0  0.34700  0.01100  0.20610  1.0000
  C   C46       1.0  0.65300  0.01100  0.29390  1.0000
  C   C47       1.0  0.65300  0.98900  0.79390  1.0000
  C   C48       1.0  0.34700  0.98900  0.70610  1.0000
  C   C49       1.0  0.41620  0.00730  0.19740  1.0000
  C   C50       1.0  0.58380  0.00730  0.30260  1.0000
  C   C51       1.0  0.58380  0.99270  0.80260  1.0000
  C   C52       1.0  0.41620  0.99270  0.69740  1.0000
  H   H21       1.0  0.43120  0.02890  0.15170  1.0000
  H   H22       1.0  0.56880  0.02890  0.34830  1.0000
  H   H23       1.0  0.56880  0.97110  0.84830  1.0000
  H   H24       1.0  0.43120  0.97110  0.65170  1.0000
  C   C53       1.0  0.15010  0.16090  0.51640  1.0000
  C   C54       1.0  0.84990  0.16090  0.98360  1.0000
  C   C55       1.0  0.84990  0.83910  0.48360  1.0000
  C   C56       1.0  0.15010  0.83910  0.01640  1.0000
  C   C57       1.0  0.34710  0.91890  0.40040  1.0000
  C   C58       1.0  0.65290  0.91890  0.09960  1.0000
  C   C59       1.0  0.65290  0.08110  0.59960  1.0000
  C   C60       1.0  0.34710  0.08110  0.90040  1.0000
  O   O25       1.0  0.38580  0.85340  0.44300  1.0000
  O   O26       1.0  0.61420  0.85340  0.05700  1.0000
  O   O27       1.0  0.61420  0.14660  0.55700  1.0000
  O   O28       1.0  0.38580  0.14660  0.94300  1.0000
  C   C61       1.0  0.29590  0.04470  0.14220  1.0000
  C   C62       1.0  0.70410  0.04470  0.35780  1.0000
  C   C63       1.0  0.70410  0.95530  0.85780  1.0000
  C   C64       1.0  0.29590  0.95530  0.64220  1.0000
  O   O29       1.0  0.26550  0.64490  0.49880  1.0000
  O   O30       1.0  0.73450  0.64490  0.00120  1.0000
  O   O31       1.0  0.73450  0.35510  0.50120  1.0000
  O   O32       1.0  0.26550  0.35510  0.99880  1.0000
