data_image0
_chemical_formula_structural       La4O32C16
_chemical_formula_sum              "La4 O32 C16"
_cell_length_a       6.0553
_cell_length_b       15.6165
_cell_length_c       8.9388
_cell_angle_alpha    90
_cell_angle_beta     95.279
_cell_angle_gamma    90

_space_group_name_H-M_alt    "P 1"
_space_group_IT_number       1

loop_
  _space_group_symop_operation_xyz
  'x, y, z'

loop_
  _atom_site_type_symbol
  _atom_site_label
  _atom_site_symmetry_multiplicity
  _atom_site_fract_x
  _atom_site_fract_y
  _atom_site_fract_z
  _atom_site_occupancy
  La  La1       1.0  0.06350  0.40327  0.32693  1.0000
  La  La2       1.0  0.93650  0.90327  0.17307  1.0000
  La  La3       1.0  0.93650  0.59673  0.67307  1.0000
  La  La4       1.0  0.06350  0.09673  0.82693  1.0000
  O   O1        1.0  0.48256  0.42859  0.34997  1.0000
  O   O2        1.0  0.51744  0.92859  0.15003  1.0000
  O   O3        1.0  0.51744  0.57141  0.65003  1.0000
  O   O4        1.0  0.48256  0.07141  0.84997  1.0000
  O   O5        1.0  0.78186  0.47856  0.48620  1.0000
  O   O6        1.0  0.21814  0.97856  0.01380  1.0000
  O   O7        1.0  0.21814  0.52144  0.51380  1.0000
  O   O8        1.0  0.78186  0.02144  0.98620  1.0000
  O   O9        1.0  0.20906  0.43120  0.07247  1.0000
  O   O10       1.0  0.79094  0.93120  0.42753  1.0000
  O   O11       1.0  0.79094  0.56880  0.92753  1.0000
  O   O12       1.0  0.20906  0.06880  0.57247  1.0000
  O   O13       1.0  0.15907  0.49228  0.84681  1.0000
  O   O14       1.0  0.84093  0.99228  0.65319  1.0000
  O   O15       1.0  0.84093  0.50772  0.15319  1.0000
  O   O16       1.0  0.15907  0.00772  0.34681  1.0000
  O   O17       1.0  0.84050  0.31633  0.12111  1.0000
  O   O18       1.0  0.15950  0.81633  0.37889  1.0000
  O   O19       1.0  0.15950  0.68367  0.87889  1.0000
  O   O20       1.0  0.84050  0.18367  0.62111  1.0000
  O   O21       1.0  0.84908  0.21306  0.94985  1.0000
  O   O22       1.0  0.15092  0.71306  0.55015  1.0000
  O   O23       1.0  0.15092  0.78694  0.05015  1.0000
  O   O24       1.0  0.84908  0.28694  0.44985  1.0000
  O   O25       1.0  0.22988  0.26118  0.25459  1.0000
  O   O26       1.0  0.77012  0.76118  0.24541  1.0000
  O   O27       1.0  0.77012  0.73882  0.74541  1.0000
  O   O28       1.0  0.22988  0.23882  0.75459  1.0000
  O   O29       1.0  0.24490  0.16222  0.07540  1.0000
  O   O30       1.0  0.75510  0.66222  0.42460  1.0000
  O   O31       1.0  0.75510  0.83778  0.92460  1.0000
  O   O32       1.0  0.24490  0.33778  0.57540  1.0000
  C   C1        1.0  0.57410  0.47297  0.45176  1.0000
  C   C2        1.0  0.42590  0.97297  0.04824  1.0000
  C   C3        1.0  0.42590  0.52703  0.54824  1.0000
  C   C4        1.0  0.57410  0.02703  0.95176  1.0000
  C   C5        1.0  0.10560  0.47796  0.97689  1.0000
  C   C6        1.0  0.89440  0.97796  0.52311  1.0000
  C   C7        1.0  0.89440  0.52204  0.02311  1.0000
  C   C8        1.0  0.10560  0.02204  0.47689  1.0000
  C   C9        1.0  0.92880  0.25348  0.06239  1.0000
  C   C10       1.0  0.07120  0.75348  0.43761  1.0000
  C   C11       1.0  0.07120  0.74652  0.93761  1.0000
  C   C12       1.0  0.92880  0.24652  0.56239  1.0000
  C   C13       1.0  0.15520  0.22286  0.13667  1.0000
  C   C14       1.0  0.84480  0.72286  0.36333  1.0000
  C   C15       1.0  0.84480  0.77714  0.86333  1.0000
  C   C16       1.0  0.15520  0.27714  0.63667  1.0000
