data_image0
_chemical_formula_structural       Lu16O128C64
_chemical_formula_sum              "Lu16 O128 C64"
_cell_length_a       9.1768
_cell_length_b       15.5835
_cell_length_c       32.1614
_cell_angle_alpha    90
_cell_angle_beta     90
_cell_angle_gamma    90

_space_group_name_H-M_alt    "P 1"
_space_group_IT_number       1

loop_
  _space_group_symop_operation_xyz
  'x, y, z'

loop_
  _atom_site_type_symbol
  _atom_site_label
  _atom_site_symmetry_multiplicity
  _atom_site_fract_x
  _atom_site_fract_y
  _atom_site_fract_z
  _atom_site_occupancy
  Lu  Lu1       1.0  0.12500  0.62500  0.43695  1.0000
  Lu  Lu2       1.0  0.62500  0.12500  0.43695  1.0000
  Lu  Lu3       1.0  0.62500  0.62500  0.31305  1.0000
  Lu  Lu4       1.0  0.12500  0.12500  0.31305  1.0000
  Lu  Lu5       1.0  0.12500  0.12500  0.93695  1.0000
  Lu  Lu6       1.0  0.62500  0.62500  0.93695  1.0000
  Lu  Lu7       1.0  0.62500  0.12500  0.81305  1.0000
  Lu  Lu8       1.0  0.12500  0.62500  0.81305  1.0000
  Lu  Lu9       1.0  0.87500  0.37500  0.56305  1.0000
  Lu  Lu10      1.0  0.37500  0.87500  0.56305  1.0000
  Lu  Lu11      1.0  0.37500  0.37500  0.68695  1.0000
  Lu  Lu12      1.0  0.87500  0.87500  0.68695  1.0000
  Lu  Lu13      1.0  0.87500  0.87500  0.06305  1.0000
  Lu  Lu14      1.0  0.37500  0.37500  0.06305  1.0000
  Lu  Lu15      1.0  0.37500  0.87500  0.18695  1.0000
  Lu  Lu16      1.0  0.87500  0.37500  0.18695  1.0000
  O   O1        1.0  0.28320  0.71560  0.39754  1.0000
  O   O2        1.0  0.46680  0.03440  0.39754  1.0000
  O   O3        1.0  0.46680  0.71560  0.35246  1.0000
  O   O4        1.0  0.28320  0.03440  0.35246  1.0000
  O   O5        1.0  0.28320  0.21560  0.89754  1.0000
  O   O6        1.0  0.46680  0.53440  0.89754  1.0000
  O   O7        1.0  0.46680  0.21560  0.85246  1.0000
  O   O8        1.0  0.28320  0.53440  0.85246  1.0000
  O   O9        1.0  0.78320  0.71560  0.89754  1.0000
  O   O10       1.0  0.96680  0.03440  0.89754  1.0000
  O   O11       1.0  0.96680  0.71560  0.85246  1.0000
  O   O12       1.0  0.78320  0.03440  0.85246  1.0000
  O   O13       1.0  0.78320  0.21560  0.39754  1.0000
  O   O14       1.0  0.96680  0.53440  0.39754  1.0000
  O   O15       1.0  0.96680  0.21560  0.35246  1.0000
  O   O16       1.0  0.78320  0.53440  0.35246  1.0000
  O   O17       1.0  0.71680  0.28440  0.60246  1.0000
  O   O18       1.0  0.53320  0.96560  0.60246  1.0000
  O   O19       1.0  0.53320  0.28440  0.64754  1.0000
  O   O20       1.0  0.71680  0.96560  0.64754  1.0000
  O   O21       1.0  0.71680  0.78440  0.10246  1.0000
  O   O22       1.0  0.53320  0.46560  0.10246  1.0000
  O   O23       1.0  0.53320  0.78440  0.14754  1.0000
  O   O24       1.0  0.71680  0.46560  0.14754  1.0000
  O   O25       1.0  0.21680  0.28440  0.10246  1.0000
  O   O26       1.0  0.03320  0.96560  0.10246  1.0000
  O   O27       1.0  0.03320  0.28440  0.14754  1.0000
  O   O28       1.0  0.21680  0.96560  0.14754  1.0000
  O   O29       1.0  0.21680  0.78440  0.60246  1.0000
  O   O30       1.0  0.03320  0.46560  0.60246  1.0000
  O   O31       1.0  0.03320  0.78440  0.64754  1.0000
  O   O32       1.0  0.21680  0.46560  0.64754  1.0000
  O   O33       1.0  0.28600  0.54550  0.39868  1.0000
  O   O34       1.0  0.46400  0.20450  0.39868  1.0000
  O   O35       1.0  0.46400  0.54550  0.35132  1.0000
  O   O36       1.0  0.28600  0.20450  0.35132  1.0000
  O   O37       1.0  0.28600  0.04550  0.89868  1.0000
  O   O38       1.0  0.46400  0.70450  0.89868  1.0000
  O   O39       1.0  0.46400  0.04550  0.85132  1.0000
  O   O40       1.0  0.28600  0.70450  0.85132  1.0000
  O   O41       1.0  0.78600  0.54550  0.89868  1.0000
  O   O42       1.0  0.96400  0.20450  0.89868  1.0000
  O   O43       1.0  0.96400  0.54550  0.85132  1.0000
  O   O44       1.0  0.78600  0.20450  0.85132  1.0000
  O   O45       1.0  0.78600  0.04550  0.39868  1.0000
  O   O46       1.0  0.96400  0.70450  0.39868  1.0000
  O   O47       1.0  0.96400  0.04550  0.35132  1.0000
  O   O48       1.0  0.78600  0.70450  0.35132  1.0000
  O   O49       1.0  0.71400  0.45450  0.60132  1.0000
  O   O50       1.0  0.53600  0.79550  0.60132  1.0000
  O   O51       1.0  0.53600  0.45450  0.64868  1.0000
  O   O52       1.0  0.71400  0.79550  0.64868  1.0000
  O   O53       1.0  0.71400  0.95450  0.10132  1.0000
  O   O54       1.0  0.53600  0.29550  0.10132  1.0000
  O   O55       1.0  0.53600  0.95450  0.14868  1.0000
  O   O56       1.0  0.71400  0.29550  0.14868  1.0000
  O   O57       1.0  0.21400  0.45450  0.10132  1.0000
  O   O58       1.0  0.03600  0.79550  0.10132  1.0000
  O   O59       1.0  0.03600  0.45450  0.14868  1.0000
  O   O60       1.0  0.21400  0.79550  0.14868  1.0000
  O   O61       1.0  0.21400  0.95450  0.60132  1.0000
  O   O62       1.0  0.03600  0.29550  0.60132  1.0000
  O   O63       1.0  0.03600  0.95450  0.64868  1.0000
  O   O64       1.0  0.21400  0.29550  0.64868  1.0000
  O   O65       1.0  0.94400  0.60230  0.48503  1.0000
  O   O66       1.0  0.80600  0.14770  0.48503  1.0000
  O   O67       1.0  0.80600  0.60230  0.26497  1.0000
  O   O68       1.0  0.94400  0.14770  0.26497  1.0000
  O   O69       1.0  0.94400  0.10230  0.98503  1.0000
  O   O70       1.0  0.80600  0.64770  0.98503  1.0000
  O   O71       1.0  0.80600  0.10230  0.76497  1.0000
  O   O72       1.0  0.94400  0.64770  0.76497  1.0000
  O   O73       1.0  0.44400  0.60230  0.98503  1.0000
  O   O74       1.0  0.30600  0.14770  0.98503  1.0000
  O   O75       1.0  0.30600  0.60230  0.76497  1.0000
  O   O76       1.0  0.44400  0.14770  0.76497  1.0000
  O   O77       1.0  0.44400  0.10230  0.48503  1.0000
  O   O78       1.0  0.30600  0.64770  0.48503  1.0000
  O   O79       1.0  0.30600  0.10230  0.26497  1.0000
  O   O80       1.0  0.44400  0.64770  0.26497  1.0000
  O   O81       1.0  0.05600  0.39770  0.51497  1.0000
  O   O82       1.0  0.19400  0.85230  0.51497  1.0000
  O   O83       1.0  0.19400  0.39770  0.73503  1.0000
  O   O84       1.0  0.05600  0.85230  0.73503  1.0000
  O   O85       1.0  0.05600  0.89770  0.01497  1.0000
  O   O86       1.0  0.19400  0.35230  0.01497  1.0000
  O   O87       1.0  0.19400  0.89770  0.23503  1.0000
  O   O88       1.0  0.05600  0.35230  0.23503  1.0000
  O   O89       1.0  0.55600  0.39770  0.01497  1.0000
  O   O90       1.0  0.69400  0.85230  0.01497  1.0000
  O   O91       1.0  0.69400  0.39770  0.23503  1.0000
  O   O92       1.0  0.55600  0.85230  0.23503  1.0000
  O   O93       1.0  0.55600  0.89770  0.51497  1.0000
  O   O94       1.0  0.69400  0.35230  0.51497  1.0000
  O   O95       1.0  0.69400  0.89770  0.73503  1.0000
  O   O96       1.0  0.55600  0.35230  0.73503  1.0000
  O   O97       1.0  0.84620  0.50830  0.53086  1.0000
  O   O98       1.0  0.90380  0.24170  0.53086  1.0000
  O   O99       1.0  0.90380  0.50830  0.21914  1.0000
  O   O100      1.0  0.84620  0.24170  0.21914  1.0000
  O   O101      1.0  0.84620  0.00830  0.03086  1.0000
  O   O102      1.0  0.90380  0.74170  0.03086  1.0000
  O   O103      1.0  0.90380  0.00830  0.71914  1.0000
  O   O104      1.0  0.84620  0.74170  0.71914  1.0000
  O   O105      1.0  0.34620  0.50830  0.03086  1.0000
  O   O106      1.0  0.40380  0.24170  0.03086  1.0000
  O   O107      1.0  0.40380  0.50830  0.71914  1.0000
  O   O108      1.0  0.34620  0.24170  0.71914  1.0000
  O   O109      1.0  0.34620  0.00830  0.53086  1.0000
  O   O110      1.0  0.40380  0.74170  0.53086  1.0000
  O   O111      1.0  0.40380  0.00830  0.21914  1.0000
  O   O112      1.0  0.34620  0.74170  0.21914  1.0000
  O   O113      1.0  0.15380  0.49170  0.46914  1.0000
  O   O114      1.0  0.09620  0.75830  0.46914  1.0000
  O   O115      1.0  0.09620  0.49170  0.78086  1.0000
  O   O116      1.0  0.15380  0.75830  0.78086  1.0000
  O   O117      1.0  0.15380  0.99170  0.96914  1.0000
  O   O118      1.0  0.09620  0.25830  0.96914  1.0000
  O   O119      1.0  0.09620  0.99170  0.28086  1.0000
  O   O120      1.0  0.15380  0.25830  0.28086  1.0000
  O   O121      1.0  0.65380  0.49170  0.96914  1.0000
  O   O122      1.0  0.59620  0.75830  0.96914  1.0000
  O   O123      1.0  0.59620  0.49170  0.28086  1.0000
  O   O124      1.0  0.65380  0.75830  0.28086  1.0000
  O   O125      1.0  0.65380  0.99170  0.46914  1.0000
  O   O126      1.0  0.59620  0.25830  0.46914  1.0000
  O   O127      1.0  0.59620  0.99170  0.78086  1.0000
  O   O128      1.0  0.65380  0.25830  0.78086  1.0000
  C   C1        1.0  0.37500  0.68080  0.37500  1.0000
  C   C2        1.0  0.37500  0.06920  0.37500  1.0000
  C   C3        1.0  0.37500  0.18080  0.87500  1.0000
  C   C4        1.0  0.37500  0.56920  0.87500  1.0000
  C   C5        1.0  0.87500  0.68080  0.87500  1.0000
  C   C6        1.0  0.87500  0.06920  0.87500  1.0000
  C   C7        1.0  0.87500  0.18080  0.37500  1.0000
  C   C8        1.0  0.87500  0.56920  0.37500  1.0000
  C   C9        1.0  0.62500  0.31920  0.62500  1.0000
  C   C10       1.0  0.62500  0.93080  0.62500  1.0000
  C   C11       1.0  0.62500  0.81920  0.12500  1.0000
  C   C12       1.0  0.62500  0.43080  0.12500  1.0000
  C   C13       1.0  0.12500  0.31920  0.12500  1.0000
  C   C14       1.0  0.12500  0.93080  0.12500  1.0000
  C   C15       1.0  0.12500  0.81920  0.62500  1.0000
  C   C16       1.0  0.12500  0.43080  0.62500  1.0000
  C   C17       1.0  0.37500  0.58290  0.37500  1.0000
  C   C18       1.0  0.37500  0.16710  0.37500  1.0000
  C   C19       1.0  0.37500  0.08290  0.87500  1.0000
  C   C20       1.0  0.37500  0.66710  0.87500  1.0000
  C   C21       1.0  0.87500  0.58290  0.87500  1.0000
  C   C22       1.0  0.87500  0.16710  0.87500  1.0000
  C   C23       1.0  0.87500  0.08290  0.37500  1.0000
  C   C24       1.0  0.87500  0.66710  0.37500  1.0000
  C   C25       1.0  0.62500  0.41710  0.62500  1.0000
  C   C26       1.0  0.62500  0.83290  0.62500  1.0000
  C   C27       1.0  0.62500  0.91710  0.12500  1.0000
  C   C28       1.0  0.62500  0.33290  0.12500  1.0000
  C   C29       1.0  0.12500  0.41710  0.12500  1.0000
  C   C30       1.0  0.12500  0.83290  0.12500  1.0000
  C   C31       1.0  0.12500  0.91710  0.62500  1.0000
  C   C32       1.0  0.12500  0.33290  0.62500  1.0000
  C   C33       1.0  0.93800  0.53220  0.50500  1.0000
  C   C34       1.0  0.81200  0.21780  0.50500  1.0000
  C   C35       1.0  0.81200  0.53220  0.24500  1.0000
  C   C36       1.0  0.93800  0.21780  0.24500  1.0000
  C   C37       1.0  0.93800  0.03220  0.00500  1.0000
  C   C38       1.0  0.81200  0.71780  0.00500  1.0000
  C   C39       1.0  0.81200  0.03220  0.74500  1.0000
  C   C40       1.0  0.93800  0.71780  0.74500  1.0000
  C   C41       1.0  0.43800  0.53220  0.00500  1.0000
  C   C42       1.0  0.31200  0.21780  0.00500  1.0000
  C   C43       1.0  0.31200  0.53220  0.74500  1.0000
  C   C44       1.0  0.43800  0.21780  0.74500  1.0000
  C   C45       1.0  0.43800  0.03220  0.50500  1.0000
  C   C46       1.0  0.31200  0.71780  0.50500  1.0000
  C   C47       1.0  0.31200  0.03220  0.24500  1.0000
  C   C48       1.0  0.43800  0.71780  0.24500  1.0000
  C   C49       1.0  0.06200  0.46780  0.49500  1.0000
  C   C50       1.0  0.18800  0.78220  0.49500  1.0000
  C   C51       1.0  0.18800  0.46780  0.75500  1.0000
  C   C52       1.0  0.06200  0.78220  0.75500  1.0000
  C   C53       1.0  0.06200  0.96780  0.99500  1.0000
  C   C54       1.0  0.18800  0.28220  0.99500  1.0000
  C   C55       1.0  0.18800  0.96780  0.25500  1.0000
  C   C56       1.0  0.06200  0.28220  0.25500  1.0000
  C   C57       1.0  0.56200  0.46780  0.99500  1.0000
  C   C58       1.0  0.68800  0.78220  0.99500  1.0000
  C   C59       1.0  0.68800  0.46780  0.25500  1.0000
  C   C60       1.0  0.56200  0.78220  0.25500  1.0000
  C   C61       1.0  0.56200  0.96780  0.49500  1.0000
  C   C62       1.0  0.68800  0.28220  0.49500  1.0000
  C   C63       1.0  0.68800  0.96780  0.75500  1.0000
  C   C64       1.0  0.56200  0.28220  0.75500  1.0000
