data_image0
_chemical_formula_structural       Ho8C32O72H16
_chemical_formula_sum              "Ho8 C32 O72 H16"
_cell_length_a       12.5556
_cell_length_b       11.8848
_cell_length_c       12.5875
_cell_angle_alpha    90
_cell_angle_beta     90
_cell_angle_gamma    90

_space_group_name_H-M_alt    "P 1"
_space_group_IT_number       1

loop_
  _space_group_symop_operation_xyz
  'x, y, z'

loop_
  _atom_site_type_symbol
  _atom_site_label
  _atom_site_symmetry_multiplicity
  _atom_site_fract_x
  _atom_site_fract_y
  _atom_site_fract_z
  _atom_site_occupancy
  Ho  Ho1       1.0  0.43596  0.24869  0.51194  1.0000
  Ho  Ho2       1.0  0.06404  0.75131  0.01194  1.0000
  Ho  Ho3       1.0  0.56404  0.74869  0.98806  1.0000
  Ho  Ho4       1.0  0.93596  0.25131  0.48806  1.0000
  Ho  Ho5       1.0  0.56404  0.75131  0.48806  1.0000
  Ho  Ho6       1.0  0.93596  0.24869  0.98806  1.0000
  Ho  Ho7       1.0  0.43596  0.25131  0.01194  1.0000
  Ho  Ho8       1.0  0.06404  0.74869  0.51194  1.0000
  C   C1        1.0  0.44390  0.98530  0.47750  1.0000
  C   C2        1.0  0.05610  0.01470  0.97750  1.0000
  C   C3        1.0  0.55610  0.48530  0.02250  1.0000
  C   C4        1.0  0.94390  0.51470  0.52250  1.0000
  C   C5        1.0  0.55610  0.01470  0.52250  1.0000
  C   C6        1.0  0.94390  0.98530  0.02250  1.0000
  C   C7        1.0  0.44390  0.51470  0.97750  1.0000
  C   C8        1.0  0.05610  0.48530  0.47750  1.0000
  C   C9        1.0  0.40100  0.29410  0.26260  1.0000
  C   C10       1.0  0.09900  0.70590  0.76260  1.0000
  C   C11       1.0  0.59900  0.79410  0.23740  1.0000
  C   C12       1.0  0.90100  0.20590  0.73740  1.0000
  C   C13       1.0  0.59900  0.70590  0.73740  1.0000
  C   C14       1.0  0.90100  0.29410  0.23740  1.0000
  C   C15       1.0  0.40100  0.20590  0.76260  1.0000
  C   C16       1.0  0.09900  0.79410  0.26260  1.0000
  C   C17       1.0  0.49390  0.21040  0.26080  1.0000
  C   C18       1.0  0.00610  0.78960  0.76080  1.0000
  C   C19       1.0  0.50610  0.71040  0.23920  1.0000
  C   C20       1.0  0.99390  0.28960  0.73920  1.0000
  C   C21       1.0  0.50610  0.78960  0.73920  1.0000
  C   C22       1.0  0.99390  0.21040  0.23920  1.0000
  C   C23       1.0  0.49390  0.28960  0.76080  1.0000
  C   C24       1.0  0.00610  0.71040  0.26080  1.0000
  C   C25       1.0  0.44570  0.51710  0.52450  1.0000
  C   C26       1.0  0.05430  0.48290  0.02450  1.0000
  C   C27       1.0  0.55430  0.01710  0.97550  1.0000
  C   C28       1.0  0.94570  0.98290  0.47550  1.0000
  C   C29       1.0  0.55430  0.48290  0.47550  1.0000
  C   C30       1.0  0.94570  0.51710  0.97550  1.0000
  C   C31       1.0  0.44570  0.98290  0.02450  1.0000
  C   C32       1.0  0.05430  0.01710  0.52450  1.0000
  O   O1        1.0  0.43080  0.88600  0.44452  1.0000
  O   O2        1.0  0.06920  0.11400  0.94452  1.0000
  O   O3        1.0  0.56920  0.38600  0.05548  1.0000
  O   O4        1.0  0.93080  0.61400  0.55548  1.0000
  O   O5        1.0  0.56920  0.11400  0.55548  1.0000
  O   O6        1.0  0.93080  0.88600  0.05548  1.0000
  O   O7        1.0  0.43080  0.61400  0.94452  1.0000
  O   O8        1.0  0.06920  0.38600  0.44452  1.0000
  O   O9        1.0  0.37580  0.06150  0.47922  1.0000
  O   O10       1.0  0.12420  0.93850  0.97922  1.0000
  O   O11       1.0  0.62420  0.56150  0.02078  1.0000
  O   O12       1.0  0.87580  0.43850  0.52078  1.0000
  O   O13       1.0  0.62420  0.93850  0.52078  1.0000
  O   O14       1.0  0.87580  0.06150  0.02078  1.0000
  O   O15       1.0  0.37580  0.43850  0.97922  1.0000
  O   O16       1.0  0.12420  0.56150  0.47922  1.0000
  O   O17       1.0  0.36590  0.32540  0.17338  1.0000
  O   O18       1.0  0.13410  0.67460  0.67338  1.0000
  O   O19       1.0  0.63410  0.82540  0.32662  1.0000
  O   O20       1.0  0.86590  0.17460  0.82662  1.0000
  O   O21       1.0  0.63410  0.67460  0.82662  1.0000
  O   O22       1.0  0.86590  0.32540  0.32662  1.0000
  O   O23       1.0  0.36590  0.17460  0.67338  1.0000
  O   O24       1.0  0.13410  0.82540  0.17338  1.0000
  O   O25       1.0  0.36970  0.32950  0.35088  1.0000
  O   O26       1.0  0.13030  0.67050  0.85088  1.0000
  O   O27       1.0  0.63030  0.82950  0.14912  1.0000
  O   O28       1.0  0.86970  0.17050  0.64912  1.0000
  O   O29       1.0  0.63030  0.67050  0.64912  1.0000
  O   O30       1.0  0.86970  0.32950  0.14912  1.0000
  O   O31       1.0  0.36970  0.17050  0.85088  1.0000
  O   O32       1.0  0.13030  0.82950  0.35088  1.0000
  O   O33       1.0  0.52970  0.18330  0.17214  1.0000
  O   O34       1.0  0.97030  0.81670  0.67214  1.0000
  O   O35       1.0  0.47030  0.68330  0.32786  1.0000
  O   O36       1.0  0.02970  0.31670  0.82786  1.0000
  O   O37       1.0  0.47030  0.81670  0.82786  1.0000
  O   O38       1.0  0.02970  0.18330  0.32786  1.0000
  O   O39       1.0  0.52970  0.31670  0.67214  1.0000
  O   O40       1.0  0.97030  0.68330  0.17214  1.0000
  O   O41       1.0  0.52680  0.17840  0.35047  1.0000
  O   O42       1.0  0.97320  0.82160  0.85047  1.0000
  O   O43       1.0  0.47320  0.67840  0.14953  1.0000
  O   O44       1.0  0.02680  0.32160  0.64953  1.0000
  O   O45       1.0  0.47320  0.82160  0.64953  1.0000
  O   O46       1.0  0.02680  0.17840  0.14953  1.0000
  O   O47       1.0  0.52680  0.32160  0.85047  1.0000
  O   O48       1.0  0.97320  0.67840  0.35047  1.0000
  O   O49       1.0  0.42870  0.62000  0.53775  1.0000
  O   O50       1.0  0.07130  0.38000  0.03775  1.0000
  O   O51       1.0  0.57130  0.12000  0.96225  1.0000
  O   O52       1.0  0.92870  0.88000  0.46225  1.0000
  O   O53       1.0  0.57130  0.38000  0.46225  1.0000
  O   O54       1.0  0.92870  0.62000  0.96225  1.0000
  O   O55       1.0  0.42870  0.88000  0.03775  1.0000
  O   O56       1.0  0.07130  0.12000  0.53775  1.0000
  O   O57       1.0  0.38370  0.43800  0.54795  1.0000
  O   O58       1.0  0.11630  0.56200  0.04795  1.0000
  O   O59       1.0  0.61630  0.93800  0.95205  1.0000
  O   O60       1.0  0.88370  0.06200  0.45205  1.0000
  O   O61       1.0  0.61630  0.56200  0.45205  1.0000
  O   O62       1.0  0.88370  0.43800  0.95205  1.0000
  O   O63       1.0  0.38370  0.06200  0.04795  1.0000
  O   O64       1.0  0.11630  0.93800  0.54795  1.0000
  O   O65       1.0  0.24720  0.25770  0.51283  1.0000
  O   O66       1.0  0.25280  0.74230  0.01283  1.0000
  O   O67       1.0  0.75280  0.75770  0.98717  1.0000
  O   O68       1.0  0.74720  0.24230  0.48717  1.0000
  O   O69       1.0  0.75280  0.74230  0.48717  1.0000
  O   O70       1.0  0.74720  0.25770  0.98717  1.0000
  O   O71       1.0  0.24720  0.24230  0.01283  1.0000
  O   O72       1.0  0.25280  0.75770  0.51283  1.0000
  H   H1        1.0  0.21600  0.30100  0.47400  1.0000
  H   H2        1.0  0.28400  0.69900  0.97400  1.0000
  H   H3        1.0  0.78400  0.80100  0.02600  1.0000
  H   H4        1.0  0.71600  0.19900  0.52600  1.0000
  H   H5        1.0  0.78400  0.69900  0.52600  1.0000
  H   H6        1.0  0.71600  0.30100  0.02600  1.0000
  H   H7        1.0  0.21600  0.19900  0.97400  1.0000
  H   H8        1.0  0.28400  0.80100  0.47400  1.0000
  H   H9        1.0  0.20300  0.21000  0.52800  1.0000
  H   H10       1.0  0.29700  0.79000  0.02800  1.0000
  H   H11       1.0  0.79700  0.71000  0.97200  1.0000
  H   H12       1.0  0.70300  0.29000  0.47200  1.0000
  H   H13       1.0  0.79700  0.79000  0.47200  1.0000
  H   H14       1.0  0.70300  0.21000  0.97200  1.0000
  H   H15       1.0  0.20300  0.29000  0.02800  1.0000
  H   H16       1.0  0.29700  0.71000  0.52800  1.0000
