data_image0
_chemical_formula_structural       Tb8C32O72H16
_chemical_formula_sum              "Tb8 C32 O72 H16"
_cell_length_a       12.6067
_cell_length_b       12
_cell_length_c       12.6864
_cell_angle_alpha    90
_cell_angle_beta     90
_cell_angle_gamma    90

_space_group_name_H-M_alt    "P 1"
_space_group_IT_number       1

loop_
  _space_group_symop_operation_xyz
  'x, y, z'

loop_
  _atom_site_type_symbol
  _atom_site_label
  _atom_site_symmetry_multiplicity
  _atom_site_fract_x
  _atom_site_fract_y
  _atom_site_fract_z
  _atom_site_occupancy
  Tb  Tb1       1.0  0.43635  0.24901  0.50939  1.0000
  Tb  Tb2       1.0  0.06365  0.75099  0.00939  1.0000
  Tb  Tb3       1.0  0.93635  0.25099  0.49061  1.0000
  Tb  Tb4       1.0  0.56365  0.74901  0.99061  1.0000
  Tb  Tb5       1.0  0.56365  0.75099  0.49061  1.0000
  Tb  Tb6       1.0  0.93635  0.24901  0.99061  1.0000
  Tb  Tb7       1.0  0.06365  0.74901  0.50939  1.0000
  Tb  Tb8       1.0  0.43635  0.25099  0.00939  1.0000
  C   C1        1.0  0.44380  0.98480  0.47830  1.0000
  C   C2        1.0  0.05620  0.01520  0.97830  1.0000
  C   C3        1.0  0.94380  0.51520  0.52170  1.0000
  C   C4        1.0  0.55620  0.48480  0.02170  1.0000
  C   C5        1.0  0.55620  0.01520  0.52170  1.0000
  C   C6        1.0  0.94380  0.98480  0.02170  1.0000
  C   C7        1.0  0.05620  0.48480  0.47830  1.0000
  C   C8        1.0  0.44380  0.51520  0.97830  1.0000
  C   C9        1.0  0.40160  0.29490  0.26060  1.0000
  C   C10       1.0  0.09840  0.70510  0.76060  1.0000
  C   C11       1.0  0.90160  0.20510  0.73940  1.0000
  C   C12       1.0  0.59840  0.79490  0.23940  1.0000
  C   C13       1.0  0.59840  0.70510  0.73940  1.0000
  C   C14       1.0  0.90160  0.29490  0.23940  1.0000
  C   C15       1.0  0.09840  0.79490  0.26060  1.0000
  C   C16       1.0  0.40160  0.20510  0.76060  1.0000
  C   C17       1.0  0.49410  0.21140  0.25890  1.0000
  C   C18       1.0  0.00590  0.78860  0.75890  1.0000
  C   C19       1.0  0.99410  0.28860  0.74110  1.0000
  C   C20       1.0  0.50590  0.71140  0.24110  1.0000
  C   C21       1.0  0.50590  0.78860  0.74110  1.0000
  C   C22       1.0  0.99410  0.21140  0.24110  1.0000
  C   C23       1.0  0.00590  0.71140  0.25890  1.0000
  C   C24       1.0  0.49410  0.28860  0.75890  1.0000
  C   C25       1.0  0.44540  0.51670  0.52360  1.0000
  C   C26       1.0  0.05460  0.48330  0.02360  1.0000
  C   C27       1.0  0.94540  0.98330  0.47640  1.0000
  C   C28       1.0  0.55460  0.01670  0.97640  1.0000
  C   C29       1.0  0.55460  0.48330  0.47640  1.0000
  C   C30       1.0  0.94540  0.51670  0.97640  1.0000
  C   C31       1.0  0.05460  0.01670  0.52360  1.0000
  C   C32       1.0  0.44540  0.98330  0.02360  1.0000
  O   O1        1.0  0.43030  0.88720  0.44670  1.0000
  O   O2        1.0  0.06970  0.11280  0.94670  1.0000
  O   O3        1.0  0.93030  0.61280  0.55330  1.0000
  O   O4        1.0  0.56970  0.38720  0.05330  1.0000
  O   O5        1.0  0.56970  0.11280  0.55330  1.0000
  O   O6        1.0  0.93030  0.88720  0.05330  1.0000
  O   O7        1.0  0.06970  0.38720  0.44670  1.0000
  O   O8        1.0  0.43030  0.61280  0.94670  1.0000
  O   O9        1.0  0.37670  0.06030  0.47730  1.0000
  O   O10       1.0  0.12330  0.93970  0.97730  1.0000
  O   O11       1.0  0.87670  0.43970  0.52270  1.0000
  O   O12       1.0  0.62330  0.56030  0.02270  1.0000
  O   O13       1.0  0.62330  0.93970  0.52270  1.0000
  O   O14       1.0  0.87670  0.06030  0.02270  1.0000
  O   O15       1.0  0.12330  0.56030  0.47730  1.0000
  O   O16       1.0  0.37670  0.43970  0.97730  1.0000
  O   O17       1.0  0.36700  0.32500  0.17200  1.0000
  O   O18       1.0  0.13300  0.67500  0.67200  1.0000
  O   O19       1.0  0.86700  0.17500  0.82800  1.0000
  O   O20       1.0  0.63300  0.82500  0.32800  1.0000
  O   O21       1.0  0.63300  0.67500  0.82800  1.0000
  O   O22       1.0  0.86700  0.32500  0.32800  1.0000
  O   O23       1.0  0.13300  0.82500  0.17200  1.0000
  O   O24       1.0  0.36700  0.17500  0.67200  1.0000
  O   O25       1.0  0.37000  0.32800  0.34740  1.0000
  O   O26       1.0  0.13000  0.67200  0.84740  1.0000
  O   O27       1.0  0.87000  0.17200  0.65260  1.0000
  O   O28       1.0  0.63000  0.82800  0.15260  1.0000
  O   O29       1.0  0.63000  0.67200  0.65260  1.0000
  O   O30       1.0  0.87000  0.32800  0.15260  1.0000
  O   O31       1.0  0.13000  0.82800  0.34740  1.0000
  O   O32       1.0  0.37000  0.17200  0.84740  1.0000
  O   O33       1.0  0.52940  0.18360  0.17030  1.0000
  O   O34       1.0  0.97060  0.81640  0.67030  1.0000
  O   O35       1.0  0.02940  0.31640  0.82970  1.0000
  O   O36       1.0  0.47060  0.68360  0.32970  1.0000
  O   O37       1.0  0.47060  0.81640  0.82970  1.0000
  O   O38       1.0  0.02940  0.18360  0.32970  1.0000
  O   O39       1.0  0.97060  0.68360  0.17030  1.0000
  O   O40       1.0  0.52940  0.31640  0.67030  1.0000
  O   O41       1.0  0.52720  0.17960  0.34670  1.0000
  O   O42       1.0  0.97280  0.82040  0.84670  1.0000
  O   O43       1.0  0.02720  0.32040  0.65330  1.0000
  O   O44       1.0  0.47280  0.67960  0.15330  1.0000
  O   O45       1.0  0.47280  0.82040  0.65330  1.0000
  O   O46       1.0  0.02720  0.17960  0.15330  1.0000
  O   O47       1.0  0.97280  0.67960  0.34670  1.0000
  O   O48       1.0  0.52720  0.32040  0.84670  1.0000
  O   O49       1.0  0.42880  0.61820  0.53960  1.0000
  O   O50       1.0  0.07120  0.38180  0.03960  1.0000
  O   O51       1.0  0.92880  0.88180  0.46040  1.0000
  O   O52       1.0  0.57120  0.11820  0.96040  1.0000
  O   O53       1.0  0.57120  0.38180  0.46040  1.0000
  O   O54       1.0  0.92880  0.61820  0.96040  1.0000
  O   O55       1.0  0.07120  0.11820  0.53960  1.0000
  O   O56       1.0  0.42880  0.88180  0.03960  1.0000
  O   O57       1.0  0.38310  0.43870  0.54410  1.0000
  O   O58       1.0  0.11690  0.56130  0.04410  1.0000
  O   O59       1.0  0.88310  0.06130  0.45590  1.0000
  O   O60       1.0  0.61690  0.93870  0.95590  1.0000
  O   O61       1.0  0.61690  0.56130  0.45590  1.0000
  O   O62       1.0  0.88310  0.43870  0.95590  1.0000
  O   O63       1.0  0.11690  0.93870  0.54410  1.0000
  O   O64       1.0  0.38310  0.06130  0.04410  1.0000
  O   O65       1.0  0.24550  0.25620  0.51050  1.0000
  O   O66       1.0  0.25450  0.74380  0.01050  1.0000
  O   O67       1.0  0.74550  0.24380  0.48950  1.0000
  O   O68       1.0  0.75450  0.75620  0.98950  1.0000
  O   O69       1.0  0.75450  0.74380  0.48950  1.0000
  O   O70       1.0  0.74550  0.25620  0.98950  1.0000
  O   O71       1.0  0.25450  0.75620  0.51050  1.0000
  O   O72       1.0  0.24550  0.24380  0.01050  1.0000
  H   H1        1.0  0.21500  0.29100  0.46500  1.0000
  H   H2        1.0  0.28500  0.70900  0.96500  1.0000
  H   H3        1.0  0.71500  0.20900  0.53500  1.0000
  H   H4        1.0  0.78500  0.79100  0.03500  1.0000
  H   H5        1.0  0.78500  0.70900  0.53500  1.0000
  H   H6        1.0  0.71500  0.29100  0.03500  1.0000
  H   H7        1.0  0.28500  0.79100  0.46500  1.0000
  H   H8        1.0  0.21500  0.20900  0.96500  1.0000
  H   H9        1.0  0.20400  0.20500  0.51800  1.0000
  H   H10       1.0  0.29600  0.79500  0.01800  1.0000
  H   H11       1.0  0.70400  0.29500  0.48200  1.0000
  H   H12       1.0  0.79600  0.70500  0.98200  1.0000
  H   H13       1.0  0.79600  0.79500  0.48200  1.0000
  H   H14       1.0  0.70400  0.20500  0.98200  1.0000
  H   H15       1.0  0.29600  0.70500  0.51800  1.0000
  H   H16       1.0  0.20400  0.29500  0.01800  1.0000
