data_image0
_chemical_formula_structural       Yb16C64O128
_chemical_formula_sum              "Yb16 C64 O128"
_cell_length_a       9.1317
_cell_length_b       15.5888
_cell_length_c       32.2917
_cell_angle_alpha    90
_cell_angle_beta     90
_cell_angle_gamma    90

_space_group_name_H-M_alt    "P 1"
_space_group_IT_number       1

loop_
  _space_group_symop_operation_xyz
  'x, y, z'

loop_
  _atom_site_type_symbol
  _atom_site_label
  _atom_site_symmetry_multiplicity
  _atom_site_fract_x
  _atom_site_fract_y
  _atom_site_fract_z
  _atom_site_occupancy
  Yb  Yb1       1.0  0.87500  0.37500  0.56300  1.0000
  Yb  Yb2       1.0  0.87500  0.37500  0.18700  1.0000
  Yb  Yb3       1.0  0.87500  0.87500  0.06300  1.0000
  Yb  Yb4       1.0  0.87500  0.87500  0.68700  1.0000
  Yb  Yb5       1.0  0.37500  0.37500  0.06300  1.0000
  Yb  Yb6       1.0  0.37500  0.37500  0.68700  1.0000
  Yb  Yb7       1.0  0.37500  0.87500  0.56300  1.0000
  Yb  Yb8       1.0  0.37500  0.87500  0.18700  1.0000
  Yb  Yb9       1.0  0.12500  0.62500  0.43700  1.0000
  Yb  Yb10      1.0  0.12500  0.62500  0.81300  1.0000
  Yb  Yb11      1.0  0.12500  0.12500  0.93700  1.0000
  Yb  Yb12      1.0  0.12500  0.12500  0.31300  1.0000
  Yb  Yb13      1.0  0.62500  0.62500  0.93700  1.0000
  Yb  Yb14      1.0  0.62500  0.62500  0.31300  1.0000
  Yb  Yb15      1.0  0.62500  0.12500  0.43700  1.0000
  Yb  Yb16      1.0  0.62500  0.12500  0.81300  1.0000
  C   C1        1.0  0.12500  0.43090  0.62500  1.0000
  C   C2        1.0  0.62500  0.31910  0.62500  1.0000
  C   C3        1.0  0.62500  0.43090  0.12500  1.0000
  C   C4        1.0  0.12500  0.31910  0.12500  1.0000
  C   C5        1.0  0.12500  0.93090  0.12500  1.0000
  C   C6        1.0  0.62500  0.81910  0.12500  1.0000
  C   C7        1.0  0.62500  0.93090  0.62500  1.0000
  C   C8        1.0  0.12500  0.81910  0.62500  1.0000
  C   C9        1.0  0.87500  0.56910  0.37500  1.0000
  C   C10       1.0  0.37500  0.68090  0.37500  1.0000
  C   C11       1.0  0.37500  0.56910  0.87500  1.0000
  C   C12       1.0  0.87500  0.68090  0.87500  1.0000
  C   C13       1.0  0.87500  0.06910  0.87500  1.0000
  C   C14       1.0  0.37500  0.18090  0.87500  1.0000
  C   C15       1.0  0.37500  0.06910  0.37500  1.0000
  C   C16       1.0  0.87500  0.18090  0.37500  1.0000
  C   C17       1.0  0.12500  0.33070  0.62500  1.0000
  C   C18       1.0  0.62500  0.41930  0.62500  1.0000
  C   C19       1.0  0.62500  0.33070  0.12500  1.0000
  C   C20       1.0  0.12500  0.41930  0.12500  1.0000
  C   C21       1.0  0.12500  0.83070  0.12500  1.0000
  C   C22       1.0  0.62500  0.91930  0.12500  1.0000
  C   C23       1.0  0.62500  0.83070  0.62500  1.0000
  C   C24       1.0  0.12500  0.91930  0.62500  1.0000
  C   C25       1.0  0.87500  0.66930  0.37500  1.0000
  C   C26       1.0  0.37500  0.58070  0.37500  1.0000
  C   C27       1.0  0.37500  0.66930  0.87500  1.0000
  C   C28       1.0  0.87500  0.58070  0.87500  1.0000
  C   C29       1.0  0.87500  0.16930  0.87500  1.0000
  C   C30       1.0  0.37500  0.08070  0.87500  1.0000
  C   C31       1.0  0.37500  0.16930  0.37500  1.0000
  C   C32       1.0  0.87500  0.08070  0.37500  1.0000
  C   C33       1.0  0.68590  0.28060  0.49580  1.0000
  C   C34       1.0  0.06410  0.46940  0.49580  1.0000
  C   C35       1.0  0.06410  0.28060  0.25420  1.0000
  C   C36       1.0  0.68590  0.46940  0.25420  1.0000
  C   C37       1.0  0.68590  0.78060  0.99580  1.0000
  C   C38       1.0  0.06410  0.96940  0.99580  1.0000
  C   C39       1.0  0.06410  0.78060  0.75420  1.0000
  C   C40       1.0  0.68590  0.96940  0.75420  1.0000
  C   C41       1.0  0.18590  0.28060  0.99580  1.0000
  C   C42       1.0  0.56410  0.46940  0.99580  1.0000
  C   C43       1.0  0.56410  0.28060  0.75420  1.0000
  C   C44       1.0  0.18590  0.46940  0.75420  1.0000
  C   C45       1.0  0.18590  0.78060  0.49580  1.0000
  C   C46       1.0  0.56410  0.96940  0.49580  1.0000
  C   C47       1.0  0.56410  0.78060  0.25420  1.0000
  C   C48       1.0  0.18590  0.96940  0.25420  1.0000
  C   C49       1.0  0.31410  0.71940  0.50420  1.0000
  C   C50       1.0  0.93590  0.53060  0.50420  1.0000
  C   C51       1.0  0.93590  0.71940  0.74580  1.0000
  C   C52       1.0  0.31410  0.53060  0.74580  1.0000
  C   C53       1.0  0.31410  0.21940  0.00420  1.0000
  C   C54       1.0  0.93590  0.03060  0.00420  1.0000
  C   C55       1.0  0.93590  0.21940  0.24580  1.0000
  C   C56       1.0  0.31410  0.03060  0.24580  1.0000
  C   C57       1.0  0.81410  0.71940  0.00420  1.0000
  C   C58       1.0  0.43590  0.53060  0.00420  1.0000
  C   C59       1.0  0.43590  0.71940  0.24580  1.0000
  C   C60       1.0  0.81410  0.53060  0.24580  1.0000
  C   C61       1.0  0.81410  0.21940  0.50420  1.0000
  C   C62       1.0  0.43590  0.03060  0.50420  1.0000
  C   C63       1.0  0.43590  0.21940  0.74580  1.0000
  C   C64       1.0  0.81410  0.03060  0.74580  1.0000
  O   O1        1.0  0.03310  0.46620  0.60220  1.0000
  O   O2        1.0  0.71690  0.28380  0.60220  1.0000
  O   O3        1.0  0.71690  0.46620  0.14780  1.0000
  O   O4        1.0  0.03310  0.28380  0.14780  1.0000
  O   O5        1.0  0.03310  0.96620  0.10220  1.0000
  O   O6        1.0  0.71690  0.78380  0.10220  1.0000
  O   O7        1.0  0.71690  0.96620  0.64780  1.0000
  O   O8        1.0  0.03310  0.78380  0.64780  1.0000
  O   O9        1.0  0.53310  0.46620  0.10220  1.0000
  O   O10       1.0  0.21690  0.28380  0.10220  1.0000
  O   O11       1.0  0.21690  0.46620  0.64780  1.0000
  O   O12       1.0  0.53310  0.28380  0.64780  1.0000
  O   O13       1.0  0.53310  0.96620  0.60220  1.0000
  O   O14       1.0  0.21690  0.78380  0.60220  1.0000
  O   O15       1.0  0.21690  0.96620  0.14780  1.0000
  O   O16       1.0  0.53310  0.78380  0.14780  1.0000
  O   O17       1.0  0.96690  0.53380  0.39780  1.0000
  O   O18       1.0  0.28310  0.71620  0.39780  1.0000
  O   O19       1.0  0.28310  0.53380  0.85220  1.0000
  O   O20       1.0  0.96690  0.71620  0.85220  1.0000
  O   O21       1.0  0.96690  0.03380  0.89780  1.0000
  O   O22       1.0  0.28310  0.21620  0.89780  1.0000
  O   O23       1.0  0.28310  0.03380  0.35220  1.0000
  O   O24       1.0  0.96690  0.21620  0.35220  1.0000
  O   O25       1.0  0.46690  0.53380  0.89780  1.0000
  O   O26       1.0  0.78310  0.71620  0.89780  1.0000
  O   O27       1.0  0.78310  0.53380  0.35220  1.0000
  O   O28       1.0  0.46690  0.71620  0.35220  1.0000
  O   O29       1.0  0.46690  0.03380  0.39780  1.0000
  O   O30       1.0  0.78310  0.21620  0.39780  1.0000
  O   O31       1.0  0.78310  0.03380  0.85220  1.0000
  O   O32       1.0  0.46690  0.21620  0.85220  1.0000
  O   O33       1.0  0.03750  0.29560  0.60120  1.0000
  O   O34       1.0  0.71250  0.45440  0.60120  1.0000
  O   O35       1.0  0.71250  0.29560  0.14880  1.0000
  O   O36       1.0  0.03750  0.45440  0.14880  1.0000
  O   O37       1.0  0.03750  0.79560  0.10120  1.0000
  O   O38       1.0  0.71250  0.95440  0.10120  1.0000
  O   O39       1.0  0.71250  0.79560  0.64880  1.0000
  O   O40       1.0  0.03750  0.95440  0.64880  1.0000
  O   O41       1.0  0.53750  0.29560  0.10120  1.0000
  O   O42       1.0  0.21250  0.45440  0.10120  1.0000
  O   O43       1.0  0.21250  0.29560  0.64880  1.0000
  O   O44       1.0  0.53750  0.45440  0.64880  1.0000
  O   O45       1.0  0.53750  0.79560  0.60120  1.0000
  O   O46       1.0  0.21250  0.95440  0.60120  1.0000
  O   O47       1.0  0.21250  0.79560  0.14880  1.0000
  O   O48       1.0  0.53750  0.95440  0.14880  1.0000
  O   O49       1.0  0.96250  0.70440  0.39880  1.0000
  O   O50       1.0  0.28750  0.54560  0.39880  1.0000
  O   O51       1.0  0.28750  0.70440  0.85120  1.0000
  O   O52       1.0  0.96250  0.54560  0.85120  1.0000
  O   O53       1.0  0.96250  0.20440  0.89880  1.0000
  O   O54       1.0  0.28750  0.04560  0.89880  1.0000
  O   O55       1.0  0.28750  0.20440  0.35120  1.0000
  O   O56       1.0  0.96250  0.04560  0.35120  1.0000
  O   O57       1.0  0.46250  0.70440  0.89880  1.0000
  O   O58       1.0  0.78750  0.54560  0.89880  1.0000
  O   O59       1.0  0.78750  0.70440  0.35120  1.0000
  O   O60       1.0  0.46250  0.54560  0.35120  1.0000
  O   O61       1.0  0.46250  0.20440  0.39880  1.0000
  O   O62       1.0  0.78750  0.04560  0.39880  1.0000
  O   O63       1.0  0.78750  0.20440  0.85120  1.0000
  O   O64       1.0  0.46250  0.04560  0.85120  1.0000
  O   O65       1.0  0.69110  0.35110  0.51530  1.0000
  O   O66       1.0  0.05890  0.39890  0.51530  1.0000
  O   O67       1.0  0.05890  0.35110  0.23470  1.0000
  O   O68       1.0  0.69110  0.39890  0.23470  1.0000
  O   O69       1.0  0.69110  0.85110  0.01530  1.0000
  O   O70       1.0  0.05890  0.89890  0.01530  1.0000
  O   O71       1.0  0.05890  0.85110  0.73470  1.0000
  O   O72       1.0  0.69110  0.89890  0.73470  1.0000
  O   O73       1.0  0.19110  0.35110  0.01530  1.0000
  O   O74       1.0  0.55890  0.39890  0.01530  1.0000
  O   O75       1.0  0.55890  0.35110  0.73470  1.0000
  O   O76       1.0  0.19110  0.39890  0.73470  1.0000
  O   O77       1.0  0.19110  0.85110  0.51530  1.0000
  O   O78       1.0  0.55890  0.89890  0.51530  1.0000
  O   O79       1.0  0.55890  0.85110  0.23470  1.0000
  O   O80       1.0  0.19110  0.89890  0.23470  1.0000
  O   O81       1.0  0.30890  0.64890  0.48470  1.0000
  O   O82       1.0  0.94110  0.60110  0.48470  1.0000
  O   O83       1.0  0.94110  0.64890  0.76530  1.0000
  O   O84       1.0  0.30890  0.60110  0.76530  1.0000
  O   O85       1.0  0.30890  0.14890  0.98470  1.0000
  O   O86       1.0  0.94110  0.10110  0.98470  1.0000
  O   O87       1.0  0.94110  0.14890  0.26530  1.0000
  O   O88       1.0  0.30890  0.10110  0.26530  1.0000
  O   O89       1.0  0.80890  0.64890  0.98470  1.0000
  O   O90       1.0  0.44110  0.60110  0.98470  1.0000
  O   O91       1.0  0.44110  0.64890  0.26530  1.0000
  O   O92       1.0  0.80890  0.60110  0.26530  1.0000
  O   O93       1.0  0.80890  0.14890  0.48470  1.0000
  O   O94       1.0  0.44110  0.10110  0.48470  1.0000
  O   O95       1.0  0.44110  0.14890  0.76530  1.0000
  O   O96       1.0  0.80890  0.10110  0.76530  1.0000
  O   O97       1.0  0.59390  0.25860  0.46960  1.0000
  O   O98       1.0  0.15610  0.49140  0.46960  1.0000
  O   O99       1.0  0.15610  0.25860  0.28040  1.0000
  O   O100      1.0  0.59390  0.49140  0.28040  1.0000
  O   O101      1.0  0.59390  0.75860  0.96960  1.0000
  O   O102      1.0  0.15610  0.99140  0.96960  1.0000
  O   O103      1.0  0.15610  0.75860  0.78040  1.0000
  O   O104      1.0  0.59390  0.99140  0.78040  1.0000
  O   O105      1.0  0.09390  0.25860  0.96960  1.0000
  O   O106      1.0  0.65610  0.49140  0.96960  1.0000
  O   O107      1.0  0.65610  0.25860  0.78040  1.0000
  O   O108      1.0  0.09390  0.49140  0.78040  1.0000
  O   O109      1.0  0.09390  0.75860  0.46960  1.0000
  O   O110      1.0  0.65610  0.99140  0.46960  1.0000
  O   O111      1.0  0.65610  0.75860  0.28040  1.0000
  O   O112      1.0  0.09390  0.99140  0.28040  1.0000
  O   O113      1.0  0.40610  0.74140  0.53040  1.0000
  O   O114      1.0  0.84390  0.50860  0.53040  1.0000
  O   O115      1.0  0.84390  0.74140  0.71960  1.0000
  O   O116      1.0  0.40610  0.50860  0.71960  1.0000
  O   O117      1.0  0.40610  0.24140  0.03040  1.0000
  O   O118      1.0  0.84390  0.00860  0.03040  1.0000
  O   O119      1.0  0.84390  0.24140  0.21960  1.0000
  O   O120      1.0  0.40610  0.00860  0.21960  1.0000
  O   O121      1.0  0.90610  0.74140  0.03040  1.0000
  O   O122      1.0  0.34390  0.50860  0.03040  1.0000
  O   O123      1.0  0.34390  0.74140  0.21960  1.0000
  O   O124      1.0  0.90610  0.50860  0.21960  1.0000
  O   O125      1.0  0.90610  0.24140  0.53040  1.0000
  O   O126      1.0  0.34390  0.00860  0.53040  1.0000
  O   O127      1.0  0.34390  0.24140  0.71960  1.0000
  O   O128      1.0  0.90610  0.00860  0.71960  1.0000
