data_image0
_chemical_formula_structural       U2O16H2O4C8H2C6H2C6
_chemical_formula_sum              "U2 O20 H6 C20"
_cell_length_a       11.407
_cell_length_b       6.77
_cell_length_c       11.633
_cell_angle_alpha    90
_cell_angle_beta     100.787
_cell_angle_gamma    90

_space_group_name_H-M_alt    "P 1"
_space_group_IT_number       1

loop_
  _space_group_symop_operation_xyz
  'x, y, z'

loop_
  _atom_site_type_symbol
  _atom_site_label
  _atom_site_symmetry_multiplicity
  _atom_site_fract_x
  _atom_site_fract_y
  _atom_site_fract_z
  _atom_site_occupancy
  U   U1        1.0  0.33011  0.25000  0.70499  1.0000
  U   U2        1.0  0.66989  0.75000  0.29501  1.0000
  O   O1        1.0  0.33920  0.25000  0.50950  1.0000
  O   O2        1.0  0.66080  0.75000  0.49050  1.0000
  O   O3        1.0  0.53160  0.25000  0.49990  1.0000
  O   O4        1.0  0.46840  0.75000  0.50010  1.0000
  O   O5        1.0  0.66940  0.08970  0.32740  1.0000
  O   O6        1.0  0.33060  0.58970  0.67260  1.0000
  O   O7        1.0  0.33060  0.91030  0.67260  1.0000
  O   O8        1.0  0.66940  0.41030  0.32740  1.0000
  O   O9        1.0  0.31070  0.41150  0.89437  1.0000
  O   O10       1.0  0.68930  0.91150  0.10563  1.0000
  O   O11       1.0  0.68930  0.58850  0.10563  1.0000
  O   O12       1.0  0.31070  0.08850  0.89437  1.0000
  O   O13       1.0  0.08570  0.25000  0.98260  1.0000
  O   O14       1.0  0.91430  0.75000  0.01740  1.0000
  O   O15       1.0  0.04230  0.25000  0.15950  1.0000
  O   O16       1.0  0.95770  0.75000  0.84050  1.0000
  H   H1        1.0  0.96720  0.25000  0.13800  1.0000
  H   H2        1.0  0.03280  0.75000  0.86200  1.0000
  O   O17       1.0  0.17380  0.25000  0.66310  1.0000
  O   O18       1.0  0.82620  0.75000  0.33690  1.0000
  O   O19       1.0  0.48550  0.25000  0.75370  1.0000
  O   O20       1.0  0.51450  0.75000  0.24630  1.0000
  C   C1        1.0  0.42720  0.25000  0.45490  1.0000
  C   C2        1.0  0.57280  0.75000  0.54510  1.0000
  C   C3        1.0  0.39450  0.25000  0.32410  1.0000
  C   C4        1.0  0.60550  0.75000  0.67590  1.0000
  C   C5        1.0  0.48470  0.25000  0.25620  1.0000
  C   C6        1.0  0.51530  0.75000  0.74380  1.0000
  C   C7        1.0  0.45330  0.25000  0.13500  1.0000
  C   C8        1.0  0.54670  0.75000  0.86500  1.0000
  H   H3        1.0  0.51310  0.25000  0.09050  1.0000
  H   H4        1.0  0.48690  0.75000  0.90950  1.0000
  C   C9        1.0  0.33500  0.25000  0.07870  1.0000
  C   C10       1.0  0.66500  0.75000  0.92130  1.0000
  C   C11       1.0  0.24430  0.25000  0.14610  1.0000
  C   C12       1.0  0.75570  0.75000  0.85390  1.0000
  C   C13       1.0  0.27640  0.25000  0.26700  1.0000
  C   C14       1.0  0.72360  0.75000  0.73300  1.0000
  H   H5        1.0  0.21660  0.25000  0.31140  1.0000
  H   H6        1.0  0.78340  0.75000  0.68860  1.0000
  C   C15       1.0  0.61600  0.25000  0.31030  1.0000
  C   C16       1.0  0.38400  0.75000  0.68970  1.0000
  C   C17       1.0  0.31340  0.25000  0.94880  1.0000
  C   C18       1.0  0.68660  0.75000  0.05120  1.0000
  C   C19       1.0  0.11700  0.25000  0.08690  1.0000
  C   C20       1.0  0.88300  0.75000  0.91310  1.0000
