data_image0
_chemical_formula_structural       Co4O28H8C24
_chemical_formula_sum              "Co4 O28 H8 C24"
_cell_length_a       8.4267
_cell_length_b       10.9735
_cell_length_c       9.0131
_cell_angle_alpha    90
_cell_angle_beta     116.383
_cell_angle_gamma    90

_space_group_name_H-M_alt    "P 1"
_space_group_IT_number       1

loop_
  _space_group_symop_operation_xyz
  'x, y, z'

loop_
  _atom_site_type_symbol
  _atom_site_label
  _atom_site_symmetry_multiplicity
  _atom_site_fract_x
  _atom_site_fract_y
  _atom_site_fract_z
  _atom_site_occupancy
  Co  Co1       1.0  0.23254  0.90064  0.81303  1.0000
  Co  Co2       1.0  0.26746  0.40064  0.68697  1.0000
  Co  Co3       1.0  0.76746  0.09936  0.18697  1.0000
  Co  Co4       1.0  0.73254  0.59936  0.31303  1.0000
  O   O1        1.0  0.96310  0.93360  0.71950  1.0000
  O   O2        1.0  0.53690  0.43360  0.78050  1.0000
  O   O3        1.0  0.03690  0.06640  0.28050  1.0000
  O   O4        1.0  0.46310  0.56640  0.21950  1.0000
  O   O5        1.0  0.83030  0.79370  0.80710  1.0000
  O   O6        1.0  0.66970  0.29370  0.69290  1.0000
  O   O7        1.0  0.16970  0.20630  0.19290  1.0000
  O   O8        1.0  0.33030  0.70630  0.30710  1.0000
  O   O9        1.0  0.72690  0.02970  0.95280  1.0000
  O   O10       1.0  0.77310  0.52970  0.54720  1.0000
  O   O11       1.0  0.27310  0.97030  0.04720  1.0000
  O   O12       1.0  0.22690  0.47030  0.45280  1.0000
  O   O13       1.0  0.50550  0.89600  0.89030  1.0000
  O   O14       1.0  0.99450  0.39600  0.60970  1.0000
  O   O15       1.0  0.49450  0.10400  0.10970  1.0000
  O   O16       1.0  0.00550  0.60400  0.39030  1.0000
  O   O17       1.0  0.22970  0.07680  0.72560  1.0000
  O   O18       1.0  0.27030  0.57680  0.77440  1.0000
  O   O19       1.0  0.77030  0.92320  0.27440  1.0000
  O   O20       1.0  0.72970  0.42320  0.22560  1.0000
  O   O21       1.0  0.26150  0.23360  0.58440  1.0000
  O   O22       1.0  0.23850  0.73360  0.91560  1.0000
  O   O23       1.0  0.73850  0.76640  0.41560  1.0000
  O   O24       1.0  0.76150  0.26640  0.08440  1.0000
  O   O25       1.0  0.16740  0.82210  0.57160  1.0000
  O   O26       1.0  0.33260  0.32210  0.92840  1.0000
  O   O27       1.0  0.83260  0.17790  0.42840  1.0000
  O   O28       1.0  0.66740  0.67790  0.07160  1.0000
  H   H1        1.0  0.12490  0.74130  0.54260  1.0000
  H   H2        1.0  0.37510  0.24130  0.95740  1.0000
  H   H3        1.0  0.87510  0.25870  0.45740  1.0000
  H   H4        1.0  0.62490  0.75870  0.04260  1.0000
  H   H5        1.0  0.09970  0.88290  0.49480  1.0000
  H   H6        1.0  0.40030  0.38290  0.00520  1.0000
  H   H7        1.0  0.90030  0.11710  0.50520  1.0000
  H   H8        1.0  0.59970  0.61710  0.99480  1.0000
  C   C1        1.0  0.65380  0.93860  0.60400  1.0000
  C   C2        1.0  0.84620  0.43860  0.89600  1.0000
  C   C3        1.0  0.34620  0.06140  0.39600  1.0000
  C   C4        1.0  0.15380  0.56140  0.10400  1.0000
  C   C5        1.0  0.54440  0.98820  0.66970  1.0000
  C   C6        1.0  0.95560  0.48820  0.83030  1.0000
  C   C7        1.0  0.45560  0.01180  0.33030  1.0000
  C   C8        1.0  0.04440  0.51180  0.16970  1.0000
  C   C9        1.0  0.39230  0.05070  0.56450  1.0000
  C   C10       1.0  0.10770  0.55070  0.93550  1.0000
  C   C11       1.0  0.60770  0.94930  0.43550  1.0000
  C   C12       1.0  0.89230  0.44930  0.06450  1.0000
  C   C13       1.0  0.82870  0.88090  0.71910  1.0000
  C   C14       1.0  0.67130  0.38090  0.78090  1.0000
  C   C15       1.0  0.17130  0.11910  0.28090  1.0000
  C   C16       1.0  0.32870  0.61910  0.21910  1.0000
  C   C17       1.0  0.59580  0.97130  0.85300  1.0000
  C   C18       1.0  0.90420  0.47130  0.64700  1.0000
  C   C19       1.0  0.40420  0.02870  0.14700  1.0000
  C   C20       1.0  0.09580  0.52870  0.35300  1.0000
  C   C21       1.0  0.28540  0.12440  0.63100  1.0000
  C   C22       1.0  0.21460  0.62440  0.86900  1.0000
  C   C23       1.0  0.71460  0.87560  0.36900  1.0000
  C   C24       1.0  0.78540  0.37560  0.13100  1.0000
