data_image0
_chemical_formula_structural       Cd6Cl2O16H4O10H4O6N4C10H2C6H2C2H2C6H2C2H2C2H2C2H2C6H2C10H2C2H2C2H2C6H2
_chemical_formula_sum              "Cd6 Cl2 O32 H32 N4 C56"
_cell_length_a       7.802
_cell_length_b       13.978
_cell_length_c       14.298
_cell_angle_alpha    83.186
_cell_angle_beta     81.655
_cell_angle_gamma    81.877

_space_group_name_H-M_alt    "P 1"
_space_group_IT_number       1

loop_
  _space_group_symop_operation_xyz
  'x, y, z'

loop_
  _atom_site_type_symbol
  _atom_site_label
  _atom_site_symmetry_multiplicity
  _atom_site_fract_x
  _atom_site_fract_y
  _atom_site_fract_z
  _atom_site_occupancy
  Cd  Cd1       1.0  0.58893  0.56423  0.58935  1.0000
  Cd  Cd2       1.0  0.41107  0.43577  0.41065  1.0000
  Cd  Cd3       1.0  0.63772  0.16554  0.38495  1.0000
  Cd  Cd4       1.0  0.36228  0.83446  0.61505  1.0000
  Cd  Cd5       1.0  0.49564  0.96358  0.82387  1.0000
  Cd  Cd6       1.0  0.50436  0.03642  0.17613  1.0000
  Cl  Cl1       1.0  0.72113  0.44373  0.46582  1.0000
  Cl  Cl2       1.0  0.27887  0.55627  0.53418  1.0000
  O   O1        1.0  0.57260  0.70960  0.49930  1.0000
  O   O2        1.0  0.42740  0.29040  0.50070  1.0000
  O   O3        1.0  0.58520  0.86650  0.49910  1.0000
  O   O4        1.0  0.41480  0.13350  0.50090  1.0000
  O   O5        1.0  0.63900  0.01280  0.31560  1.0000
  O   O6        1.0  0.36100  0.98720  0.68440  1.0000
  O   O7        1.0  0.84060  0.00890  0.40860  1.0000
  O   O8        1.0  0.15940  0.99110  0.59140  1.0000
  O   O9        1.0  0.16560  0.76410  0.14820  1.0000
  O   O10       1.0  0.83440  0.23590  0.85180  1.0000
  O   O11       1.0  0.65690  0.89020  0.95200  1.0000
  O   O12       1.0  0.34310  0.10980  0.04800  1.0000
  O   O13       1.0  0.79510  0.95580  0.81990  1.0000
  O   O14       1.0  0.20490  0.04420  0.18010  1.0000
  O   O15       1.0  0.86800  0.57540  0.61330  1.0000
  O   O16       1.0  0.13200  0.42460  0.38670  1.0000
  H   H1        1.0  0.93900  0.54755  0.57625  1.0000
  H   H2        1.0  0.06100  0.45245  0.42375  1.0000
  H   H3        1.0  0.88241  0.62773  0.62096  1.0000
  H   H4        1.0  0.11759  0.37227  0.37904  1.0000
  O   O17       1.0  0.30560  0.45560  0.95330  1.0000
  O   O18       1.0  0.69440  0.54440  0.04670  1.0000
  O   O19       1.0  0.46460  0.32090  0.29530  1.0000
  O   O20       1.0  0.53540  0.67910  0.70470  1.0000
  O   O21       1.0  0.42740  0.17460  0.26810  1.0000
  O   O22       1.0  0.57260  0.82540  0.73190  1.0000
  O   O23       1.0  0.85260  0.21890  0.27970  1.0000
  O   O24       1.0  0.14740  0.78110  0.72030  1.0000
  O   O25       1.0  0.80560  0.18570  0.50360  1.0000
  O   O26       1.0  0.19440  0.81430  0.49640  1.0000
  H   H5        1.0  0.82687  0.12922  0.52669  1.0000
  H   H6        1.0  0.17313  0.87078  0.47331  1.0000
  H   H7        1.0  0.89650  0.21248  0.47835  1.0000
  H   H8        1.0  0.10350  0.78752  0.52165  1.0000
  O   O27       1.0  0.06220  0.24480  0.36200  1.0000
  O   O28       1.0  0.93780  0.75520  0.63800  1.0000
  O   O29       1.0  0.44850  0.12230  0.82930  1.0000
  O   O30       1.0  0.55150  0.87770  0.17070  1.0000
  O   O31       1.0  0.61840  0.15180  0.69050  1.0000
  O   O32       1.0  0.38160  0.84820  0.30950  1.0000
  N   N1        1.0  0.27020  0.89750  0.91880  1.0000
  N   N2        1.0  0.72980  0.10250  0.08120  1.0000
  N   N3        1.0  0.51370  0.44900  0.71300  1.0000
  N   N4        1.0  0.48630  0.55100  0.28700  1.0000
  C   C1        1.0  0.63840  0.78550  0.46650  1.0000
  C   C2        1.0  0.36160  0.21450  0.53350  1.0000
  C   C3        1.0  0.78130  0.78190  0.38370  1.0000
  C   C4        1.0  0.21870  0.21810  0.61630  1.0000
  C   C5        1.0  0.83720  0.86670  0.33260  1.0000
  C   C6        1.0  0.16280  0.13330  0.66740  1.0000
  C   C7        1.0  0.76390  0.96870  0.35580  1.0000
  C   C8        1.0  0.23610  0.03130  0.64420  1.0000
  C   C9        1.0  0.96760  0.86030  0.25510  1.0000
  C   C10       1.0  0.03240  0.13970  0.74490  1.0000
  H   H9        1.0  0.00830  0.91624  0.22310  1.0000
  H   H10       1.0  0.99170  0.08376  0.77690  1.0000
  C   C11       1.0  0.03620  0.77050  0.22600  1.0000
  C   C12       1.0  0.96380  0.22950  0.77400  1.0000
  C   C13       1.0  0.13590  0.82140  0.06510  1.0000
  C   C14       1.0  0.86410  0.17860  0.93490  1.0000
  C   C15       1.0  0.28170  0.85170  0.00700  1.0000
  C   C16       1.0  0.71830  0.14830  0.99300  1.0000
  H   H11       1.0  0.38959  0.84011  0.02939  1.0000
  H   H12       1.0  0.61041  0.15989  0.97061  1.0000
  C   C17       1.0  0.11430  0.91290  0.88770  1.0000
  C   C18       1.0  0.88570  0.08710  0.11230  1.0000
  H   H13       1.0  0.10763  0.94006  0.82553  1.0000
  H   H14       1.0  0.89237  0.05994  0.17447  1.0000
  C   C19       1.0  0.96280  0.89030  0.94340  1.0000
  C   C20       1.0  0.03720  0.10970  0.05660  1.0000
  C   C21       1.0  0.79300  0.91360  0.90250  1.0000
  C   C22       1.0  0.20700  0.08640  0.09750  1.0000
  C   C23       1.0  0.97160  0.84430  0.03460  1.0000
  C   C24       1.0  0.02840  0.15570  0.96540  1.0000
  H   H15       1.0  0.87129  0.82927  0.07402  1.0000
  H   H16       1.0  0.12871  0.17073  0.92598  1.0000
  C   C25       1.0  0.98530  0.68520  0.27580  1.0000
  C   C26       1.0  0.01470  0.31480  0.72420  1.0000
  H   H17       1.0  0.03482  0.62495  0.25680  1.0000
  H   H18       1.0  0.96518  0.37505  0.74320  1.0000
  C   C27       1.0  0.85920  0.69210  0.35440  1.0000
  C   C28       1.0  0.14080  0.30790  0.64560  1.0000
  H   H19       1.0  0.82534  0.63550  0.38860  1.0000
  H   H20       1.0  0.17466  0.36450  0.61140  1.0000
  C   C29       1.0  0.43260  0.47890  0.79570  1.0000
  C   C30       1.0  0.56740  0.52110  0.20430  1.0000
  H   H21       1.0  0.41167  0.54515  0.80214  1.0000
  H   H22       1.0  0.58833  0.45485  0.19786  1.0000
  C   C31       1.0  0.37900  0.41410  0.87200  1.0000
  C   C32       1.0  0.62100  0.58590  0.12800  1.0000
  C   C33       1.0  0.23620  0.39660  0.03150  1.0000
  C   C34       1.0  0.76380  0.60340  0.96850  1.0000
  C   C35       1.0  0.33910  0.35980  0.10160  1.0000
  C   C36       1.0  0.66090  0.64020  0.89840  1.0000
  H   H23       1.0  0.45611  0.36936  0.09396  1.0000
  H   H24       1.0  0.54389  0.63064  0.90604  1.0000
  C   C37       1.0  0.26700  0.30840  0.18320  1.0000
  C   C38       1.0  0.73300  0.69160  0.81680  1.0000
  C   C39       1.0  0.39120  0.26560  0.25590  1.0000
  C   C40       1.0  0.60880  0.73440  0.74410  1.0000
  C   C41       1.0  0.08820  0.29480  0.19610  1.0000
  C   C42       1.0  0.91180  0.70520  0.80390  1.0000
  C   C43       1.0  0.99480  0.24850  0.28700  1.0000
  C   C44       1.0  0.00520  0.75150  0.71300  1.0000
  C   C45       1.0  0.99020  0.33150  0.12200  1.0000
  C   C46       1.0  0.00980  0.66850  0.87800  1.0000
  H   H25       1.0  0.87327  0.32202  0.12824  1.0000
  H   H26       1.0  0.12673  0.67798  0.87176  1.0000
  C   C47       1.0  0.06280  0.38140  0.03990  1.0000
  C   C48       1.0  0.93720  0.61860  0.96010  1.0000
  H   H27       1.0  0.99629  0.40432  0.99104  1.0000
  H   H28       1.0  0.00371  0.59568  0.00896  1.0000
  C   C49       1.0  0.40370  0.31480  0.86280  1.0000
  C   C50       1.0  0.59630  0.68520  0.13720  1.0000
  H   H29       1.0  0.36618  0.27023  0.91249  1.0000
  H   H30       1.0  0.63382  0.72977  0.08751  1.0000
  C   C51       1.0  0.48680  0.28510  0.77650  1.0000
  C   C52       1.0  0.51320  0.71490  0.22350  1.0000
  C   C53       1.0  0.52190  0.17780  0.76280  1.0000
  C   C54       1.0  0.47810  0.82220  0.23720  1.0000
  C   C55       1.0  0.54220  0.35320  0.70350  1.0000
  C   C56       1.0  0.45780  0.64680  0.29650  1.0000
  H   H31       1.0  0.60029  0.33199  0.64670  1.0000
  H   H32       1.0  0.39971  0.66801  0.35330  1.0000
