data_image0
_chemical_formula_structural       Ba4O20H8O8C12H4C4H4C8H4C4H4C12H4C4H4C8H4C4H4C8H4C8H4C8H4C8H4C4H4C4H4C4H4C8
_chemical_formula_sum              "Ba4 O28 H68 C108"
_cell_length_a       7.2993
_cell_length_b       19.3615
_cell_length_c       26.0984
_cell_angle_alpha    90
_cell_angle_beta     90
_cell_angle_gamma    90

_space_group_name_H-M_alt    "P 1"
_space_group_IT_number       1

loop_
  _space_group_symop_operation_xyz
  'x, y, z'

loop_
  _atom_site_type_symbol
  _atom_site_label
  _atom_site_symmetry_multiplicity
  _atom_site_fract_x
  _atom_site_fract_y
  _atom_site_fract_z
  _atom_site_occupancy
  Ba  Ba1       1.0  0.12795  0.69239  0.98982  1.0000
  Ba  Ba2       1.0  0.87205  0.30761  0.48982  1.0000
  Ba  Ba3       1.0  0.37205  0.19239  0.48982  1.0000
  Ba  Ba4       1.0  0.62795  0.80761  0.98982  1.0000
  O   O1        1.0  0.55130  0.12890  0.40570  1.0000
  O   O2        1.0  0.44870  0.87110  0.90570  1.0000
  O   O3        1.0  0.94870  0.62890  0.90570  1.0000
  O   O4        1.0  0.05130  0.37110  0.40570  1.0000
  O   O5        1.0  0.67020  0.23200  0.41890  1.0000
  O   O6        1.0  0.32980  0.76800  0.91890  1.0000
  O   O7        1.0  0.82980  0.73200  0.91890  1.0000
  O   O8        1.0  0.17020  0.26800  0.41890  1.0000
  O   O9        1.0  0.00380  0.82630  0.99680  1.0000
  O   O10       1.0  0.99620  0.17370  0.49680  1.0000
  O   O11       1.0  0.49620  0.32630  0.49680  1.0000
  O   O12       1.0  0.50380  0.67370  0.99680  1.0000
  O   O13       1.0  0.27670  0.81620  0.03270  1.0000
  O   O14       1.0  0.72330  0.18380  0.53270  1.0000
  O   O15       1.0  0.22330  0.31620  0.53270  1.0000
  O   O16       1.0  0.77670  0.68380  0.03270  1.0000
  O   O17       1.0  0.17600  0.66530  0.09420  1.0000
  O   O18       1.0  0.82400  0.33470  0.59420  1.0000
  O   O19       1.0  0.32400  0.16530  0.59420  1.0000
  O   O20       1.0  0.67600  0.83470  0.09420  1.0000
  H   H1        1.0  0.12790  0.69580  0.12350  1.0000
  H   H2        1.0  0.87210  0.30420  0.62350  1.0000
  H   H3        1.0  0.37210  0.19580  0.62350  1.0000
  H   H4        1.0  0.62790  0.80420  0.12350  1.0000
  H   H5        1.0  0.24570  0.62390  0.10940  1.0000
  H   H6        1.0  0.75430  0.37610  0.60940  1.0000
  H   H7        1.0  0.25430  0.12390  0.60940  1.0000
  H   H8        1.0  0.74570  0.87610  0.10940  1.0000
  O   O21       1.0  0.07360  0.55070  0.00360  1.0000
  O   O22       1.0  0.92640  0.44930  0.50360  1.0000
  O   O23       1.0  0.42640  0.05070  0.50360  1.0000
  O   O24       1.0  0.57360  0.94930  0.00360  1.0000
  O   O25       1.0  0.92650  0.50100  0.93930  1.0000
  O   O26       1.0  0.07350  0.49900  0.43930  1.0000
  O   O27       1.0  0.57350  0.00100  0.43930  1.0000
  O   O28       1.0  0.42650  0.99900  0.93930  1.0000
  C   C1        1.0  0.64600  0.18080  0.39130  1.0000
  C   C2        1.0  0.35400  0.81920  0.89130  1.0000
  C   C3        1.0  0.85400  0.68080  0.89130  1.0000
  C   C4        1.0  0.14600  0.31920  0.39130  1.0000
  C   C5        1.0  0.71430  0.18190  0.33750  1.0000
  C   C6        1.0  0.28570  0.81810  0.83750  1.0000
  C   C7        1.0  0.78570  0.68190  0.83750  1.0000
  C   C8        1.0  0.21430  0.31810  0.33750  1.0000
  C   C9        1.0  0.79830  0.23910  0.31820  1.0000
  C   C10       1.0  0.20170  0.76090  0.81820  1.0000
  C   C11       1.0  0.70170  0.73910  0.81820  1.0000
  C   C12       1.0  0.29830  0.26090  0.31820  1.0000
  H   H9        1.0  0.81560  0.27720  0.33930  1.0000
  H   H10       1.0  0.18440  0.72280  0.83930  1.0000
  H   H11       1.0  0.68440  0.77720  0.83930  1.0000
  H   H12       1.0  0.31560  0.22280  0.33930  1.0000
  C   C13       1.0  0.85910  0.24170  0.26750  1.0000
  C   C14       1.0  0.14090  0.75830  0.76750  1.0000
  C   C15       1.0  0.64090  0.74170  0.76750  1.0000
  C   C16       1.0  0.35910  0.25830  0.26750  1.0000
  H   H13       1.0  0.91880  0.28100  0.25560  1.0000
  H   H14       1.0  0.08120  0.71900  0.75560  1.0000
  H   H15       1.0  0.58120  0.78100  0.75560  1.0000
  H   H16       1.0  0.41880  0.21900  0.25560  1.0000
  C   C17       1.0  0.83160  0.18630  0.23460  1.0000
  C   C18       1.0  0.16840  0.81370  0.73460  1.0000
  C   C19       1.0  0.66840  0.68630  0.73460  1.0000
  C   C20       1.0  0.33160  0.31370  0.23460  1.0000
  C   C21       1.0  0.73980  0.12790  0.25380  1.0000
  C   C22       1.0  0.26020  0.87210  0.75380  1.0000
  C   C23       1.0  0.76020  0.62790  0.75380  1.0000
  C   C24       1.0  0.23980  0.37210  0.25380  1.0000
  H   H17       1.0  0.72180  0.08990  0.23250  1.0000
  H   H18       1.0  0.27820  0.91010  0.73250  1.0000
  H   H19       1.0  0.77820  0.58990  0.73250  1.0000
  H   H20       1.0  0.22180  0.41010  0.23250  1.0000
  C   C25       1.0  0.67640  0.12550  0.30320  1.0000
  C   C26       1.0  0.32360  0.87450  0.80320  1.0000
  C   C27       1.0  0.82360  0.62550  0.80320  1.0000
  C   C28       1.0  0.17640  0.37450  0.30320  1.0000
  H   H21       1.0  0.60910  0.08770  0.31440  1.0000
  H   H22       1.0  0.39090  0.91230  0.81440  1.0000
  H   H23       1.0  0.89090  0.58770  0.81440  1.0000
  H   H24       1.0  0.10910  0.41230  0.31440  1.0000
  C   C29       1.0  0.00350  0.49960  0.98480  1.0000
  C   C30       1.0  0.99650  0.50040  0.48480  1.0000
  C   C31       1.0  0.49650  0.99960  0.48480  1.0000
  C   C32       1.0  0.50350  0.00040  0.98480  1.0000
  C   C33       1.0  0.98960  0.43310  0.01300  1.0000
  C   C34       1.0  0.01040  0.56690  0.51300  1.0000
  C   C35       1.0  0.51040  0.93310  0.51300  1.0000
  C   C36       1.0  0.48960  0.06690  0.01300  1.0000
  C   C37       1.0  0.93010  0.37200  0.99000  1.0000
  C   C38       1.0  0.06990  0.62800  0.49000  1.0000
  C   C39       1.0  0.56990  0.87200  0.49000  1.0000
  C   C40       1.0  0.43010  0.12800  0.99000  1.0000
  H   H25       1.0  0.89390  0.37240  0.95580  1.0000
  H   H26       1.0  0.10610  0.62760  0.45580  1.0000
  H   H27       1.0  0.60610  0.87240  0.45580  1.0000
  H   H28       1.0  0.39390  0.12760  0.95580  1.0000
  C   C41       1.0  0.92440  0.31160  0.01700  1.0000
  C   C42       1.0  0.07560  0.68840  0.51700  1.0000
  C   C43       1.0  0.57560  0.81160  0.51700  1.0000
  C   C44       1.0  0.42440  0.18840  0.01700  1.0000
  H   H29       1.0  0.88960  0.27110  0.00060  1.0000
  H   H30       1.0  0.11040  0.72890  0.50060  1.0000
  H   H31       1.0  0.61040  0.77110  0.50060  1.0000
  H   H32       1.0  0.38960  0.22890  0.00060  1.0000
  C   C45       1.0  0.97080  0.30980  0.06990  1.0000
  C   C46       1.0  0.02920  0.69020  0.56990  1.0000
  C   C47       1.0  0.52920  0.80980  0.56990  1.0000
  C   C48       1.0  0.47080  0.19020  0.06990  1.0000
  C   C49       1.0  0.02790  0.37140  0.09240  1.0000
  C   C50       1.0  0.97210  0.62860  0.59240  1.0000
  C   C51       1.0  0.47210  0.87140  0.59240  1.0000
  C   C52       1.0  0.52790  0.12860  0.09240  1.0000
  H   H33       1.0  0.05920  0.37170  0.12700  1.0000
  H   H34       1.0  0.94080  0.62830  0.62700  1.0000
  H   H35       1.0  0.44080  0.87170  0.62700  1.0000
  H   H36       1.0  0.55920  0.12830  0.12700  1.0000
  C   C53       1.0  0.03930  0.43220  0.06450  1.0000
  C   C54       1.0  0.96070  0.56780  0.56450  1.0000
  C   C55       1.0  0.46070  0.93220  0.56450  1.0000
  C   C56       1.0  0.53930  0.06780  0.06450  1.0000
  H   H37       1.0  0.08010  0.47240  0.08020  1.0000
  H   H38       1.0  0.91990  0.52760  0.58020  1.0000
  H   H39       1.0  0.41990  0.97240  0.58020  1.0000
  H   H40       1.0  0.58010  0.02760  0.08020  1.0000
  C   C57       1.0  0.95430  0.24560  0.10040  1.0000
  C   C58       1.0  0.04570  0.75440  0.60040  1.0000
  C   C59       1.0  0.54570  0.74560  0.60040  1.0000
  C   C60       1.0  0.45430  0.25440  0.10040  1.0000
  C   C61       1.0  0.00190  0.18300  0.07780  1.0000
  C   C62       1.0  0.99810  0.81700  0.57780  1.0000
  C   C63       1.0  0.49810  0.68300  0.57780  1.0000
  C   C64       1.0  0.50190  0.31700  0.07780  1.0000
  H   H41       1.0  0.02960  0.18140  0.04300  1.0000
  H   H42       1.0  0.97040  0.81860  0.54300  1.0000
  H   H43       1.0  0.47040  0.68140  0.54300  1.0000
  H   H44       1.0  0.52960  0.31860  0.04300  1.0000
  C   C65       1.0  0.00830  0.12220  0.10710  1.0000
  C   C66       1.0  0.99170  0.87780  0.60710  1.0000
  C   C67       1.0  0.49170  0.62220  0.60710  1.0000
  C   C68       1.0  0.50830  0.37780  0.10710  1.0000
  C   C69       1.0  0.95440  0.12560  0.15800  1.0000
  C   C70       1.0  0.04560  0.87440  0.65800  1.0000
  C   C71       1.0  0.54560  0.62560  0.65800  1.0000
  C   C72       1.0  0.45440  0.37440  0.15800  1.0000
  H   H45       1.0  0.95360  0.08530  0.17740  1.0000
  H   H46       1.0  0.04640  0.91470  0.67740  1.0000
  H   H47       1.0  0.54640  0.58530  0.67740  1.0000
  H   H48       1.0  0.45360  0.41470  0.17740  1.0000
  C   C73       1.0  0.90190  0.18710  0.18090  1.0000
  C   C74       1.0  0.09810  0.81290  0.68090  1.0000
  C   C75       1.0  0.59810  0.68710  0.68090  1.0000
  C   C76       1.0  0.40190  0.31290  0.18090  1.0000
  C   C77       1.0  0.90380  0.24700  0.15110  1.0000
  C   C78       1.0  0.09620  0.75300  0.65110  1.0000
  C   C79       1.0  0.59620  0.74700  0.65110  1.0000
  C   C80       1.0  0.40380  0.25300  0.15110  1.0000
  H   H49       1.0  0.87010  0.28880  0.16590  1.0000
  H   H50       1.0  0.12990  0.71120  0.66590  1.0000
  H   H51       1.0  0.62990  0.78880  0.66590  1.0000
  H   H52       1.0  0.37010  0.21120  0.16590  1.0000
  C   C81       1.0  0.05430  0.05480  0.08290  1.0000
  C   C82       1.0  0.94570  0.94520  0.58290  1.0000
  C   C83       1.0  0.44570  0.55480  0.58290  1.0000
  C   C84       1.0  0.55430  0.44520  0.08290  1.0000
  C   C85       1.0  0.15800  0.00550  0.11050  1.0000
  C   C86       1.0  0.84200  0.99450  0.61050  1.0000
  C   C87       1.0  0.34200  0.50550  0.61050  1.0000
  C   C88       1.0  0.65800  0.49450  0.11050  1.0000
  H   H53       1.0  0.20540  0.01700  0.14250  1.0000
  H   H54       1.0  0.79460  0.98300  0.64250  1.0000
  H   H55       1.0  0.29460  0.51700  0.64250  1.0000
  H   H56       1.0  0.70540  0.48300  0.14250  1.0000
  C   C89       1.0  0.18950  0.94060  0.09040  1.0000
  C   C90       1.0  0.81050  0.05940  0.59040  1.0000
  C   C91       1.0  0.31050  0.44060  0.59040  1.0000
  C   C92       1.0  0.68950  0.55940  0.09040  1.0000
  H   H57       1.0  0.26070  0.90900  0.10840  1.0000
  H   H58       1.0  0.73930  0.09100  0.60840  1.0000
  H   H59       1.0  0.23930  0.40900  0.60840  1.0000
  H   H60       1.0  0.76070  0.59100  0.10840  1.0000
  C   C93       1.0  0.01990  0.97120  0.01610  1.0000
  C   C94       1.0  0.98010  0.02880  0.51610  1.0000
  C   C95       1.0  0.48010  0.47120  0.51610  1.0000
  C   C96       1.0  0.51990  0.52880  0.01610  1.0000
  H   H61       1.0  0.97260  0.95960  0.98410  1.0000
  H   H62       1.0  0.02740  0.04040  0.48410  1.0000
  H   H63       1.0  0.52740  0.45960  0.48410  1.0000
  H   H64       1.0  0.47260  0.54040  0.98410  1.0000
  C   C97       1.0  0.99230  0.03710  0.03480  1.0000
  C   C98       1.0  0.00770  0.96290  0.53480  1.0000
  C   C99       1.0  0.50770  0.53710  0.53480  1.0000
  C   C100      1.0  0.49230  0.46290  0.03480  1.0000
  H   H65       1.0  0.93150  0.06970  0.01490  1.0000
  H   H66       1.0  0.06850  0.93030  0.51490  1.0000
  H   H67       1.0  0.56850  0.56970  0.51490  1.0000
  H   H68       1.0  0.43150  0.43030  0.01490  1.0000
  C   C101      1.0  0.11500  0.92240  0.04320  1.0000
  C   C102      1.0  0.88500  0.07760  0.54320  1.0000
  C   C103      1.0  0.38500  0.42240  0.54320  1.0000
  C   C104      1.0  0.61500  0.57760  0.04320  1.0000
  C   C105      1.0  0.13390  0.85020  0.02390  1.0000
  C   C106      1.0  0.86610  0.14980  0.52390  1.0000
  C   C107      1.0  0.36610  0.35020  0.52390  1.0000
  C   C108      1.0  0.63390  0.64980  0.02390  1.0000
