data_image0
_chemical_formula_structural       Au6Tl4C12Cl10C12Cl10C12Cl10C12Cl10C12Cl10C12Cl10
_chemical_formula_sum              "Au6 Tl4 C72 Cl60"
_cell_length_a       15.0212
_cell_length_b       15.1626
_cell_length_c       17.7726
_cell_angle_alpha    73.664
_cell_angle_beta     72.235
_cell_angle_gamma    79.629

_space_group_name_H-M_alt    "P 1"
_space_group_IT_number       1

loop_
  _space_group_symop_operation_xyz
  'x, y, z'

loop_
  _atom_site_type_symbol
  _atom_site_label
  _atom_site_symmetry_multiplicity
  _atom_site_fract_x
  _atom_site_fract_y
  _atom_site_fract_z
  _atom_site_occupancy
  Au  Au1       1.0  0.00000  0.00000  0.50000  1.0000
  Au  Au2       1.0  0.59259  0.92406  0.66786  1.0000
  Au  Au3       1.0  0.40741  0.07594  0.33214  1.0000
  Au  Au4       1.0  0.50000  0.00000  0.00000  1.0000
  Au  Au5       1.0  0.80730  0.93202  0.79216  1.0000
  Au  Au6       1.0  0.19270  0.06798  0.20784  1.0000
  Tl  Tl1       1.0  0.80513  0.95008  0.61547  1.0000
  Tl  Tl2       1.0  0.19487  0.04992  0.38453  1.0000
  Tl  Tl3       1.0  0.59593  0.98804  0.82191  1.0000
  Tl  Tl4       1.0  0.40407  0.01196  0.17809  1.0000
  C   C1        1.0  0.95150  0.13770  0.49240  1.0000
  C   C2        1.0  0.04850  0.86230  0.50760  1.0000
  C   C3        1.0  0.87360  0.17900  0.46510  1.0000
  C   C4        1.0  0.12640  0.82100  0.53490  1.0000
  C   C5        1.0  0.84440  0.27310  0.45340  1.0000
  C   C6        1.0  0.15560  0.72690  0.54660  1.0000
  C   C7        1.0  0.89680  0.33040  0.46720  1.0000
  C   C8        1.0  0.10320  0.66960  0.53280  1.0000
  C   C9        1.0  0.97590  0.29190  0.49480  1.0000
  C   C10       1.0  0.02410  0.70810  0.50520  1.0000
  C   C11       1.0  0.99780  0.19730  0.51090  1.0000
  C   C12       1.0  0.00220  0.80270  0.48910  1.0000
  Cl  Cl1       1.0  0.81205  0.11125  0.43765  1.0000
  Cl  Cl2       1.0  0.18795  0.88875  0.56235  1.0000
  Cl  Cl3       1.0  0.73997  0.31834  0.42752  1.0000
  Cl  Cl4       1.0  0.26003  0.68166  0.57248  1.0000
  Cl  Cl5       1.0  0.86545  0.44831  0.44845  1.0000
  Cl  Cl6       1.0  0.13455  0.55169  0.55155  1.0000
  Cl  Cl7       1.0  0.04259  0.36404  0.50983  1.0000
  Cl  Cl8       1.0  0.95741  0.63596  0.49017  1.0000
  Cl  Cl9       1.0  0.09314  0.15014  0.55113  1.0000
  Cl  Cl10      1.0  0.90686  0.84986  0.44887  1.0000
  C   C13       1.0  0.57640  0.04340  0.58090  1.0000
  C   C14       1.0  0.42360  0.95660  0.41910  1.0000
  C   C15       1.0  0.53120  0.12930  0.59250  1.0000
  C   C16       1.0  0.46880  0.87070  0.40750  1.0000
  C   C17       1.0  0.51760  0.20420  0.52960  1.0000
  C   C18       1.0  0.48240  0.79580  0.47040  1.0000
  C   C19       1.0  0.54820  0.19450  0.44970  1.0000
  C   C20       1.0  0.45180  0.80550  0.55030  1.0000
  C   C21       1.0  0.59260  0.11030  0.43400  1.0000
  C   C22       1.0  0.40740  0.88970  0.56600  1.0000
  C   C23       1.0  0.60580  0.03830  0.49910  1.0000
  C   C24       1.0  0.39420  0.96170  0.50090  1.0000
  Cl  Cl11      1.0  0.48492  0.14200  0.69188  1.0000
  Cl  Cl12      1.0  0.51508  0.85800  0.30812  1.0000
  Cl  Cl13      1.0  0.46730  0.31026  0.54703  1.0000
  Cl  Cl14      1.0  0.53270  0.68974  0.45297  1.0000
  Cl  Cl15      1.0  0.53032  0.28592  0.37067  1.0000
  Cl  Cl16      1.0  0.46968  0.71408  0.62933  1.0000
  Cl  Cl17      1.0  0.63350  0.09868  0.33524  1.0000
  Cl  Cl18      1.0  0.36650  0.90132  0.66476  1.0000
  Cl  Cl19      1.0  0.66389  0.93392  0.47739  1.0000
  Cl  Cl20      1.0  0.33611  0.06608  0.52261  1.0000
  C   C25       1.0  0.59280  0.79260  0.74110  1.0000
  C   C26       1.0  0.40720  0.20740  0.25890  1.0000
  C   C27       1.0  0.51860  0.76680  0.80970  1.0000
  C   C28       1.0  0.48140  0.23320  0.19030  1.0000
  C   C29       1.0  0.50480  0.67580  0.85120  1.0000
  C   C30       1.0  0.49520  0.32420  0.14880  1.0000
  C   C31       1.0  0.56770  0.60530  0.82300  1.0000
  C   C32       1.0  0.43230  0.39470  0.17700  1.0000
  C   C33       1.0  0.64420  0.62630  0.75590  1.0000
  C   C34       1.0  0.35580  0.37370  0.24410  1.0000
  C   C35       1.0  0.65560  0.71860  0.71710  1.0000
  C   C36       1.0  0.34440  0.28140  0.28290  1.0000
  Cl  Cl21      1.0  0.43587  0.85250  0.84503  1.0000
  Cl  Cl22      1.0  0.56413  0.14750  0.15497  1.0000
  Cl  Cl23      1.0  0.41322  0.64893  0.93739  1.0000
  Cl  Cl24      1.0  0.58678  0.35107  0.06261  1.0000
  Cl  Cl25      1.0  0.54989  0.49150  0.87134  1.0000
  Cl  Cl26      1.0  0.45011  0.50850  0.12866  1.0000
  Cl  Cl27      1.0  0.72223  0.53884  0.72203  1.0000
  Cl  Cl28      1.0  0.27777  0.46116  0.27797  1.0000
  Cl  Cl29      1.0  0.75084  0.74166  0.63142  1.0000
  Cl  Cl30      1.0  0.24916  0.25834  0.36858  1.0000
  C   C37       1.0  0.38200  0.93990  0.01390  1.0000
  C   C38       1.0  0.61800  0.06010  0.98610  1.0000
  C   C39       1.0  0.31880  0.97930  0.96860  1.0000
  C   C40       1.0  0.68120  0.02070  0.03140  1.0000
  C   C41       1.0  0.24480  0.93300  0.97000  1.0000
  C   C42       1.0  0.75520  0.06700  0.03000  1.0000
  C   C43       1.0  0.23550  0.84440  0.01740  1.0000
  C   C44       1.0  0.76450  0.15560  0.98260  1.0000
  C   C45       1.0  0.29530  0.80310  0.06470  1.0000
  C   C46       1.0  0.70470  0.19690  0.93530  1.0000
  C   C47       1.0  0.36690  0.85190  0.06260  1.0000
  C   C48       1.0  0.63310  0.14810  0.93740  1.0000
  Cl  Cl31      1.0  0.33456  0.08802  0.90166  1.0000
  Cl  Cl32      1.0  0.66544  0.91198  0.09834  1.0000
  Cl  Cl33      1.0  0.16870  0.98520  0.91110  1.0000
  Cl  Cl34      1.0  0.83130  0.01480  0.08890  1.0000
  Cl  Cl35      1.0  0.14950  0.78350  0.01600  1.0000
  Cl  Cl36      1.0  0.85050  0.21650  0.98400  1.0000
  Cl  Cl37      1.0  0.28489  0.69159  0.12304  1.0000
  Cl  Cl38      1.0  0.71511  0.30841  0.87696  1.0000
  Cl  Cl39      1.0  0.44038  0.79727  0.12526  1.0000
  Cl  Cl40      1.0  0.55962  0.20273  0.87474  1.0000
  C   C49       1.0  0.84260  0.06470  0.76590  1.0000
  C   C50       1.0  0.15740  0.93530  0.23410  1.0000
  C   C51       1.0  0.80600  0.14590  0.72160  1.0000
  C   C52       1.0  0.19400  0.85410  0.27840  1.0000
  C   C53       1.0  0.83520  0.23270  0.70910  1.0000
  C   C54       1.0  0.16480  0.76730  0.29090  1.0000
  C   C55       1.0  0.90540  0.23950  0.74180  1.0000
  C   C56       1.0  0.09460  0.76050  0.25820  1.0000
  C   C57       1.0  0.94600  0.16040  0.78450  1.0000
  C   C58       1.0  0.05400  0.83960  0.21550  1.0000
  C   C59       1.0  0.91280  0.07530  0.79780  1.0000
  C   C60       1.0  0.08720  0.92470  0.20220  1.0000
  Cl  Cl41      1.0  0.72019  0.14315  0.67483  1.0000
  Cl  Cl42      1.0  0.27981  0.85685  0.32517  1.0000
  Cl  Cl43      1.0  0.78181  0.33187  0.65853  1.0000
  Cl  Cl44      1.0  0.21819  0.66813  0.34147  1.0000
  Cl  Cl45      1.0  0.94025  0.34620  0.73111  1.0000
  Cl  Cl46      1.0  0.05975  0.65380  0.26889  1.0000
  Cl  Cl47      1.0  0.03760  0.16652  0.82290  1.0000
  Cl  Cl48      1.0  0.96240  0.83348  0.17710  1.0000
  Cl  Cl49      1.0  0.96240  0.97894  0.85630  1.0000
  Cl  Cl50      1.0  0.03760  0.02106  0.14370  1.0000
  C   C61       1.0  0.79780  0.79090  0.82320  1.0000
  C   C62       1.0  0.20220  0.20910  0.17680  1.0000
  C   C63       1.0  0.73270  0.74220  0.88820  1.0000
  C   C64       1.0  0.26730  0.25780  0.11180  1.0000
  C   C65       1.0  0.73760  0.64630  0.91150  1.0000
  C   C66       1.0  0.26240  0.35370  0.08850  1.0000
  C   C67       1.0  0.81180  0.59480  0.86930  1.0000
  C   C68       1.0  0.18820  0.40520  0.13070  1.0000
  C   C69       1.0  0.87820  0.63980  0.80320  1.0000
  C   C70       1.0  0.12180  0.36020  0.19680  1.0000
  C   C71       1.0  0.86980  0.73600  0.78150  1.0000
  C   C72       1.0  0.13020  0.26400  0.21850  1.0000
  Cl  Cl51      1.0  0.64210  0.80238  0.94785  1.0000
  Cl  Cl52      1.0  0.35790  0.19762  0.05215  1.0000
  Cl  Cl53      1.0  0.65119  0.59068  0.99049  1.0000
  Cl  Cl54      1.0  0.34881  0.40932  0.00951  1.0000
  Cl  Cl55      1.0  0.82246  0.47571  0.90000  1.0000
  Cl  Cl56      1.0  0.17754  0.52429  0.10000  1.0000
  Cl  Cl57      1.0  0.96866  0.57611  0.74752  1.0000
  Cl  Cl58      1.0  0.03134  0.42389  0.25248  1.0000
  Cl  Cl59      1.0  0.95584  0.78867  0.69856  1.0000
  Cl  Cl60      1.0  0.04416  0.21133  0.30144  1.0000
