data_image0
_chemical_formula_structural       Tl4Au8C24Cl20C24Cl20C24F4Cl4F4Cl4F4C24F4Cl4F4Cl4F4
_chemical_formula_sum              "Tl4 Au8 C96 Cl56 F24"
_cell_length_a       12.092
_cell_length_b       28.5736
_cell_length_c       15.4221
_cell_angle_alpha    90
_cell_angle_beta     107.365
_cell_angle_gamma    90

_space_group_name_H-M_alt    "P 1"
_space_group_IT_number       1

loop_
  _space_group_symop_operation_xyz
  'x, y, z'

loop_
  _atom_site_type_symbol
  _atom_site_label
  _atom_site_symmetry_multiplicity
  _atom_site_fract_x
  _atom_site_fract_y
  _atom_site_fract_z
  _atom_site_occupancy
  Tl  Tl1       1.0  0.24588  0.01031  0.48033  1.0000
  Tl  Tl2       1.0  0.25412  0.51031  0.01967  1.0000
  Tl  Tl3       1.0  0.75412  0.98969  0.51967  1.0000
  Tl  Tl4       1.0  0.74588  0.48969  0.98033  1.0000
  Au  Au1       1.0  0.00000  0.00000  0.50000  1.0000
  Au  Au2       1.0  0.50000  0.50000  0.00000  1.0000
  Au  Au3       1.0  0.50000  0.00000  0.50000  1.0000
  Au  Au4       1.0  0.00000  0.50000  0.00000  1.0000
  Au  Au5       1.0  0.27818  0.06408  0.32016  1.0000
  Au  Au6       1.0  0.22182  0.56408  0.17984  1.0000
  Au  Au7       1.0  0.72182  0.93592  0.67984  1.0000
  Au  Au8       1.0  0.77818  0.43592  0.82016  1.0000
  C   C1        1.0  0.04670  0.05453  0.58950  1.0000
  C   C2        1.0  0.45330  0.55453  0.91050  1.0000
  C   C3        1.0  0.95330  0.94547  0.41050  1.0000
  C   C4        1.0  0.54670  0.44547  0.08950  1.0000
  C   C5        1.0  0.13880  0.05400  0.66930  1.0000
  C   C6        1.0  0.36120  0.55400  0.83070  1.0000
  C   C7        1.0  0.86120  0.94600  0.33070  1.0000
  C   C8        1.0  0.63880  0.44600  0.16930  1.0000
  C   C9        1.0  0.17090  0.09130  0.72880  1.0000
  C   C10       1.0  0.32910  0.59130  0.77120  1.0000
  C   C11       1.0  0.82910  0.90870  0.27120  1.0000
  C   C12       1.0  0.67090  0.40870  0.22880  1.0000
  C   C13       1.0  0.10680  0.13260  0.70900  1.0000
  C   C14       1.0  0.39320  0.63260  0.79100  1.0000
  C   C15       1.0  0.89320  0.86740  0.29100  1.0000
  C   C16       1.0  0.60680  0.36740  0.20900  1.0000
  C   C17       1.0  0.01420  0.13570  0.63090  1.0000
  C   C18       1.0  0.48580  0.63570  0.86910  1.0000
  C   C19       1.0  0.98580  0.86430  0.36910  1.0000
  C   C20       1.0  0.51420  0.36430  0.13090  1.0000
  C   C21       1.0  0.98910  0.09750  0.57360  1.0000
  C   C22       1.0  0.51090  0.59750  0.92640  1.0000
  C   C23       1.0  0.01090  0.90250  0.42640  1.0000
  C   C24       1.0  0.48910  0.40250  0.07360  1.0000
  Cl  Cl1       1.0  0.21780  0.00185  0.69792  1.0000
  Cl  Cl2       1.0  0.28220  0.50185  0.80208  1.0000
  Cl  Cl3       1.0  0.78220  0.99815  0.30208  1.0000
  Cl  Cl4       1.0  0.71780  0.49815  0.19792  1.0000
  Cl  Cl5       1.0  0.28753  0.08784  0.82576  1.0000
  Cl  Cl6       1.0  0.21247  0.58784  0.67424  1.0000
  Cl  Cl7       1.0  0.71247  0.91216  0.17424  1.0000
  Cl  Cl8       1.0  0.78753  0.41216  0.32576  1.0000
  Cl  Cl9       1.0  0.14230  0.17971  0.78129  1.0000
  Cl  Cl10      1.0  0.35770  0.67971  0.71871  1.0000
  Cl  Cl11      1.0  0.85770  0.82029  0.21871  1.0000
  Cl  Cl12      1.0  0.64230  0.32029  0.28129  1.0000
  Cl  Cl13      1.0  0.93410  0.18630  0.60682  1.0000
  Cl  Cl14      1.0  0.56590  0.68630  0.89318  1.0000
  Cl  Cl15      1.0  0.06590  0.81370  0.39318  1.0000
  Cl  Cl16      1.0  0.43410  0.31370  0.10682  1.0000
  Cl  Cl17      1.0  0.87186  0.10218  0.47495  1.0000
  Cl  Cl18      1.0  0.62814  0.60218  0.02505  1.0000
  Cl  Cl19      1.0  0.12814  0.89782  0.52505  1.0000
  Cl  Cl20      1.0  0.37186  0.39782  0.97495  1.0000
  C   C25       1.0  0.53120  0.06940  0.52930  1.0000
  C   C26       1.0  0.96880  0.56940  0.97070  1.0000
  C   C27       1.0  0.46880  0.93060  0.47070  1.0000
  C   C28       1.0  0.03120  0.43060  0.02930  1.0000
  C   C29       1.0  0.57420  0.10010  0.47590  1.0000
  C   C30       1.0  0.92580  0.60010  0.02410  1.0000
  C   C31       1.0  0.42580  0.89990  0.52410  1.0000
  C   C32       1.0  0.07420  0.39990  0.97590  1.0000
  C   C33       1.0  0.59910  0.14680  0.49650  1.0000
  C   C34       1.0  0.90090  0.64680  0.00350  1.0000
  C   C35       1.0  0.40090  0.85320  0.50350  1.0000
  C   C36       1.0  0.09910  0.35320  0.99650  1.0000
  C   C37       1.0  0.58320  0.16490  0.57540  1.0000
  C   C38       1.0  0.91680  0.66490  0.92460  1.0000
  C   C39       1.0  0.41680  0.83510  0.42460  1.0000
  C   C40       1.0  0.08320  0.33510  0.07540  1.0000
  C   C41       1.0  0.53930  0.13640  0.63050  1.0000
  C   C42       1.0  0.96070  0.63640  0.86950  1.0000
  C   C43       1.0  0.46070  0.86360  0.36950  1.0000
  C   C44       1.0  0.03930  0.36360  0.13050  1.0000
  C   C45       1.0  0.51270  0.09020  0.60560  1.0000
  C   C46       1.0  0.98730  0.59020  0.89440  1.0000
  C   C47       1.0  0.48730  0.90980  0.39440  1.0000
  C   C48       1.0  0.01270  0.40980  0.10560  1.0000
  Cl  Cl21      1.0  0.59055  0.07820  0.37557  1.0000
  Cl  Cl22      1.0  0.90945  0.57820  0.12443  1.0000
  Cl  Cl23      1.0  0.40945  0.92180  0.62443  1.0000
  Cl  Cl24      1.0  0.09055  0.42180  0.87557  1.0000
  Cl  Cl25      1.0  0.64363  0.18337  0.42496  1.0000
  Cl  Cl26      1.0  0.85637  0.68337  0.07504  1.0000
  Cl  Cl27      1.0  0.35637  0.81663  0.57504  1.0000
  Cl  Cl28      1.0  0.14363  0.31663  0.92496  1.0000
  Cl  Cl29      1.0  0.61710  0.22180  0.60500  1.0000
  Cl  Cl30      1.0  0.88290  0.72180  0.89500  1.0000
  Cl  Cl31      1.0  0.38290  0.77820  0.39500  1.0000
  Cl  Cl32      1.0  0.11710  0.27820  0.10500  1.0000
  Cl  Cl33      1.0  0.51900  0.15882  0.72876  1.0000
  Cl  Cl34      1.0  0.98100  0.65882  0.77124  1.0000
  Cl  Cl35      1.0  0.48100  0.84118  0.27124  1.0000
  Cl  Cl36      1.0  0.01900  0.34118  0.22876  1.0000
  Cl  Cl37      1.0  0.44862  0.05695  0.67092  1.0000
  Cl  Cl38      1.0  0.05138  0.55695  0.82908  1.0000
  Cl  Cl39      1.0  0.55138  0.94305  0.32908  1.0000
  Cl  Cl40      1.0  0.94862  0.44305  0.17092  1.0000
  C   C49       1.0  0.27640  0.00460  0.24640  1.0000
  C   C50       1.0  0.22360  0.50460  0.25360  1.0000
  C   C51       1.0  0.72360  0.99540  0.75360  1.0000
  C   C52       1.0  0.77640  0.49540  0.74640  1.0000
  C   C53       1.0  0.22010  0.96260  0.25040  1.0000
  C   C54       1.0  0.27990  0.46260  0.24960  1.0000
  C   C55       1.0  0.77990  0.03740  0.74960  1.0000
  C   C56       1.0  0.72010  0.53740  0.75040  1.0000
  C   C57       1.0  0.22250  0.92310  0.19870  1.0000
  C   C58       1.0  0.27750  0.42310  0.30130  1.0000
  C   C59       1.0  0.77750  0.07690  0.80130  1.0000
  C   C60       1.0  0.72250  0.57690  0.69870  1.0000
  C   C61       1.0  0.28500  0.92520  0.13740  1.0000
  C   C62       1.0  0.21500  0.42520  0.36260  1.0000
  C   C63       1.0  0.71500  0.07480  0.86260  1.0000
  C   C64       1.0  0.78500  0.57480  0.63740  1.0000
  C   C65       1.0  0.34470  0.96590  0.12950  1.0000
  C   C66       1.0  0.15530  0.46590  0.37050  1.0000
  C   C67       1.0  0.65530  0.03410  0.87050  1.0000
  C   C68       1.0  0.84470  0.53410  0.62950  1.0000
  C   C69       1.0  0.33820  0.00400  0.18320  1.0000
  C   C70       1.0  0.16180  0.50400  0.31680  1.0000
  C   C71       1.0  0.66180  0.99600  0.81680  1.0000
  C   C72       1.0  0.83820  0.49600  0.68320  1.0000
  F   F1        1.0  0.15390  0.95857  0.31110  1.0000
  F   F2        1.0  0.34610  0.45857  0.18890  1.0000
  F   F3        1.0  0.84610  0.04143  0.68890  1.0000
  F   F4        1.0  0.65390  0.54143  0.81110  1.0000
  Cl  Cl41      1.0  0.14820  0.87313  0.20702  1.0000
  Cl  Cl42      1.0  0.35180  0.37313  0.29298  1.0000
  Cl  Cl43      1.0  0.85180  0.12687  0.79298  1.0000
  Cl  Cl44      1.0  0.64820  0.62687  0.70702  1.0000
  F   F5        1.0  0.28970  0.88725  0.08470  1.0000
  F   F6        1.0  0.21030  0.38725  0.41530  1.0000
  F   F7        1.0  0.71030  0.11275  0.91530  1.0000
  F   F8        1.0  0.78970  0.61275  0.58470  1.0000
  Cl  Cl45      1.0  0.42530  0.96760  0.05375  1.0000
  Cl  Cl46      1.0  0.07470  0.46760  0.44625  1.0000
  Cl  Cl47      1.0  0.57470  0.03240  0.94625  1.0000
  Cl  Cl48      1.0  0.92530  0.53240  0.55375  1.0000
  F   F9        1.0  0.39840  0.04396  0.17200  1.0000
  F   F10       1.0  0.10160  0.54396  0.32800  1.0000
  F   F11       1.0  0.60160  0.95604  0.82800  1.0000
  F   F12       1.0  0.89840  0.45604  0.67200  1.0000
  C   C73       1.0  0.28970  0.12950  0.37730  1.0000
  C   C74       1.0  0.21030  0.62950  0.12270  1.0000
  C   C75       1.0  0.71030  0.87050  0.62270  1.0000
  C   C76       1.0  0.78970  0.37050  0.87730  1.0000
  C   C77       1.0  0.32980  0.16530  0.33410  1.0000
  C   C78       1.0  0.17020  0.66530  0.16590  1.0000
  C   C79       1.0  0.67020  0.83470  0.66590  1.0000
  C   C80       1.0  0.82980  0.33470  0.83410  1.0000
  C   C81       1.0  0.34170  0.21140  0.36150  1.0000
  C   C82       1.0  0.15830  0.71140  0.13850  1.0000
  C   C83       1.0  0.65830  0.78860  0.63850  1.0000
  C   C84       1.0  0.84170  0.28860  0.86150  1.0000
  C   C85       1.0  0.31300  0.22310  0.43870  1.0000
  C   C86       1.0  0.18700  0.72310  0.06130  1.0000
  C   C87       1.0  0.68700  0.77690  0.56130  1.0000
  C   C88       1.0  0.81300  0.27690  0.93870  1.0000
  C   C89       1.0  0.27350  0.18940  0.48630  1.0000
  C   C90       1.0  0.22650  0.68940  0.01370  1.0000
  C   C91       1.0  0.72650  0.81060  0.51370  1.0000
  C   C92       1.0  0.77350  0.31060  0.98630  1.0000
  C   C93       1.0  0.26230  0.14430  0.45400  1.0000
  C   C94       1.0  0.23770  0.64430  0.04600  1.0000
  C   C95       1.0  0.73770  0.85570  0.54600  1.0000
  C   C96       1.0  0.76230  0.35570  0.95400  1.0000
  F   F13       1.0  0.36260  0.15470  0.25830  1.0000
  F   F14       1.0  0.13740  0.65470  0.24170  1.0000
  F   F15       1.0  0.63740  0.84530  0.74170  1.0000
  F   F16       1.0  0.86260  0.34530  0.75830  1.0000
  Cl  Cl49      1.0  0.39168  0.25373  0.30237  1.0000
  Cl  Cl50      1.0  0.10832  0.75373  0.19763  1.0000
  Cl  Cl51      1.0  0.60832  0.74627  0.69763  1.0000
  Cl  Cl52      1.0  0.89168  0.24627  0.80237  1.0000
  F   F17       1.0  0.32140  0.26813  0.46720  1.0000
  F   F18       1.0  0.17860  0.76813  0.03280  1.0000
  F   F19       1.0  0.67860  0.73187  0.53280  1.0000
  F   F20       1.0  0.82140  0.23187  0.96720  1.0000
  Cl  Cl53      1.0  0.23790  0.20487  0.58325  1.0000
  Cl  Cl54      1.0  0.26210  0.70487  0.91675  1.0000
  Cl  Cl55      1.0  0.76210  0.79513  0.41675  1.0000
  Cl  Cl56      1.0  0.73790  0.29513  0.08325  1.0000
  F   F21       1.0  0.21880  0.11201  0.50190  1.0000
  F   F22       1.0  0.28120  0.61201  0.99810  1.0000
  F   F23       1.0  0.78120  0.88799  0.49810  1.0000
  F   F24       1.0  0.71880  0.38799  0.00190  1.0000
