data_image0
_chemical_formula_structural       Tl4Au8C24F4Cl4F4Cl4F4C24F4Cl4F4Cl4F4C24F4Cl4F4Cl4F4C24F4Cl4F4Cl4F4
_chemical_formula_sum              "Tl4 Au8 C96 F48 Cl32"
_cell_length_a       12.2466
_cell_length_b       28.2173
_cell_length_c       15.1129
_cell_angle_alpha    90
_cell_angle_beta     108.925
_cell_angle_gamma    90

_space_group_name_H-M_alt    "P 1"
_space_group_IT_number       1

loop_
  _space_group_symop_operation_xyz
  'x, y, z'

loop_
  _atom_site_type_symbol
  _atom_site_label
  _atom_site_symmetry_multiplicity
  _atom_site_fract_x
  _atom_site_fract_y
  _atom_site_fract_z
  _atom_site_occupancy
  Tl  Tl1       1.0  0.25012  0.00953  0.00919  1.0000
  Tl  Tl2       1.0  0.24988  0.50953  0.49081  1.0000
  Tl  Tl3       1.0  0.74988  0.99047  0.99081  1.0000
  Tl  Tl4       1.0  0.75012  0.49047  0.50919  1.0000
  Au  Au1       1.0  0.50000  0.00000  0.00000  1.0000
  Au  Au2       1.0  0.00000  0.50000  0.50000  1.0000
  Au  Au3       1.0  0.00000  0.00000  0.00000  1.0000
  Au  Au4       1.0  0.50000  0.50000  0.50000  1.0000
  Au  Au5       1.0  0.21811  0.06372  0.16749  1.0000
  Au  Au6       1.0  0.28189  0.56372  0.33251  1.0000
  Au  Au7       1.0  0.78189  0.93628  0.83251  1.0000
  Au  Au8       1.0  0.71811  0.43628  0.66749  1.0000
  C   C1        1.0  0.45070  0.05490  0.90560  1.0000
  C   C2        1.0  0.04930  0.55490  0.59440  1.0000
  C   C3        1.0  0.54930  0.94510  0.09440  1.0000
  C   C4        1.0  0.95070  0.44510  0.40560  1.0000
  C   C5        1.0  0.51280  0.09600  0.91860  1.0000
  C   C6        1.0  0.98720  0.59600  0.58140  1.0000
  C   C7        1.0  0.48720  0.90400  0.08140  1.0000
  C   C8        1.0  0.01280  0.40400  0.41860  1.0000
  C   C9        1.0  0.48440  0.13480  0.85850  1.0000
  C   C10       1.0  0.01560  0.63480  0.64150  1.0000
  C   C11       1.0  0.51560  0.86520  0.14150  1.0000
  C   C12       1.0  0.98440  0.36520  0.35850  1.0000
  C   C13       1.0  0.38770  0.13060  0.78160  1.0000
  C   C14       1.0  0.11230  0.63060  0.71840  1.0000
  C   C15       1.0  0.61230  0.86940  0.21840  1.0000
  C   C16       1.0  0.88770  0.36940  0.28160  1.0000
  C   C17       1.0  0.32300  0.09050  0.76490  1.0000
  C   C18       1.0  0.17700  0.59050  0.73510  1.0000
  C   C19       1.0  0.67700  0.90950  0.23510  1.0000
  C   C20       1.0  0.82300  0.40950  0.26490  1.0000
  C   C21       1.0  0.35400  0.05330  0.82810  1.0000
  C   C22       1.0  0.14600  0.55330  0.67190  1.0000
  C   C23       1.0  0.64600  0.94670  0.17190  1.0000
  C   C24       1.0  0.85400  0.44670  0.32810  1.0000
  F   F1        1.0  0.61590  0.10130  0.99900  1.0000
  F   F2        1.0  0.88410  0.60130  0.50100  1.0000
  F   F3        1.0  0.38410  0.89870  0.00100  1.0000
  F   F4        1.0  0.11590  0.39870  0.49900  1.0000
  Cl  Cl1       1.0  0.56600  0.18669  0.88020  1.0000
  Cl  Cl2       1.0  0.93400  0.68669  0.61980  1.0000
  Cl  Cl3       1.0  0.43400  0.81331  0.11980  1.0000
  Cl  Cl4       1.0  0.06600  0.31331  0.38020  1.0000
  F   F5        1.0  0.35500  0.17080  0.72080  1.0000
  F   F6        1.0  0.14500  0.67080  0.77920  1.0000
  F   F7        1.0  0.64500  0.82920  0.27920  1.0000
  F   F8        1.0  0.85500  0.32920  0.22080  1.0000
  Cl  Cl5       1.0  0.19990  0.08760  0.66910  1.0000
  Cl  Cl6       1.0  0.30010  0.58760  0.83090  1.0000
  Cl  Cl7       1.0  0.80010  0.91240  0.33090  1.0000
  Cl  Cl8       1.0  0.69990  0.41240  0.16910  1.0000
  F   F9        1.0  0.28480  0.01280  0.80570  1.0000
  F   F10       1.0  0.21520  0.51280  0.69430  1.0000
  F   F11       1.0  0.71520  0.98720  0.19430  1.0000
  F   F12       1.0  0.78480  0.48720  0.30570  1.0000
  C   C25       1.0  0.96170  0.07040  0.96220  1.0000
  C   C26       1.0  0.53830  0.57040  0.53780  1.0000
  C   C27       1.0  0.03830  0.92960  0.03780  1.0000
  C   C28       1.0  0.46170  0.42960  0.46220  1.0000
  C   C29       1.0  0.91690  0.10080  0.01370  1.0000
  C   C30       1.0  0.58310  0.60080  0.48630  1.0000
  C   C31       1.0  0.08310  0.89920  0.98630  1.0000
  C   C32       1.0  0.41690  0.39920  0.51370  1.0000
  C   C33       1.0  0.89630  0.14810  0.99220  1.0000
  C   C34       1.0  0.60370  0.64810  0.50780  1.0000
  C   C35       1.0  0.10370  0.85190  0.00780  1.0000
  C   C36       1.0  0.39630  0.35190  0.49220  1.0000
  C   C37       1.0  0.91930  0.16550  0.91560  1.0000
  C   C38       1.0  0.58070  0.66550  0.58440  1.0000
  C   C39       1.0  0.08070  0.83450  0.08440  1.0000
  C   C40       1.0  0.41930  0.33450  0.41560  1.0000
  C   C41       1.0  0.96340  0.13670  0.86200  1.0000
  C   C42       1.0  0.53660  0.63670  0.63800  1.0000
  C   C43       1.0  0.03660  0.86330  0.13800  1.0000
  C   C44       1.0  0.46340  0.36330  0.36200  1.0000
  C   C45       1.0  0.98760  0.08960  0.88680  1.0000
  C   C46       1.0  0.51240  0.58960  0.61320  1.0000
  C   C47       1.0  0.01240  0.91040  0.11320  1.0000
  C   C48       1.0  0.48760  0.41040  0.38680  1.0000
  F   F13       1.0  0.89370  0.08370  0.09240  1.0000
  F   F14       1.0  0.60630  0.58370  0.40760  1.0000
  F   F15       1.0  0.10630  0.91630  0.90760  1.0000
  F   F16       1.0  0.39370  0.41630  0.59240  1.0000
  Cl  Cl9       1.0  0.84900  0.18540  0.05970  1.0000
  Cl  Cl10      1.0  0.65100  0.68540  0.44030  1.0000
  Cl  Cl11      1.0  0.15100  0.81460  0.94030  1.0000
  Cl  Cl12      1.0  0.34900  0.31460  0.55970  1.0000
  F   F17       1.0  0.89820  0.21290  0.89250  1.0000
  F   F18       1.0  0.60180  0.71290  0.60750  1.0000
  F   F19       1.0  0.10180  0.78710  0.10750  1.0000
  F   F20       1.0  0.39820  0.28710  0.39250  1.0000
  Cl  Cl13      1.0  0.99470  0.15830  0.76660  1.0000
  Cl  Cl14      1.0  0.50530  0.65830  0.73340  1.0000
  Cl  Cl15      1.0  0.00530  0.84170  0.23340  1.0000
  Cl  Cl16      1.0  0.49470  0.34170  0.26660  1.0000
  F   F21       1.0  0.04080  0.06110  0.83520  1.0000
  F   F22       1.0  0.45920  0.56110  0.66480  1.0000
  F   F23       1.0  0.95920  0.93890  0.16480  1.0000
  F   F24       1.0  0.54080  0.43890  0.33520  1.0000
  C   C49       1.0  0.21010  0.13040  0.11060  1.0000
  C   C50       1.0  0.28990  0.63040  0.38940  1.0000
  C   C51       1.0  0.78990  0.86960  0.88940  1.0000
  C   C52       1.0  0.71010  0.36960  0.61060  1.0000
  C   C53       1.0  0.17020  0.16600  0.15610  1.0000
  C   C54       1.0  0.32980  0.66600  0.34390  1.0000
  C   C55       1.0  0.82980  0.83400  0.84390  1.0000
  C   C56       1.0  0.67020  0.33400  0.65610  1.0000
  C   C57       1.0  0.16060  0.21290  0.13170  1.0000
  C   C58       1.0  0.33940  0.71290  0.36830  1.0000
  C   C59       1.0  0.83940  0.78710  0.86830  1.0000
  C   C60       1.0  0.66060  0.28710  0.63170  1.0000
  C   C61       1.0  0.19270  0.22570  0.05490  1.0000
  C   C62       1.0  0.30730  0.72570  0.44510  1.0000
  C   C63       1.0  0.80730  0.77430  0.94510  1.0000
  C   C64       1.0  0.69270  0.27430  0.55490  1.0000
  C   C65       1.0  0.23410  0.19260  0.00490  1.0000
  C   C66       1.0  0.26590  0.69260  0.49510  1.0000
  C   C67       1.0  0.76590  0.80740  0.99510  1.0000
  C   C68       1.0  0.73410  0.30740  0.50490  1.0000
  C   C69       1.0  0.24040  0.14670  0.03470  1.0000
  C   C70       1.0  0.25960  0.64670  0.46530  1.0000
  C   C71       1.0  0.75960  0.85330  0.96530  1.0000
  C   C72       1.0  0.74040  0.35330  0.53470  1.0000
  F   F25       1.0  0.13560  0.15370  0.22930  1.0000
  F   F26       1.0  0.36440  0.65370  0.27070  1.0000
  F   F27       1.0  0.86440  0.84630  0.77070  1.0000
  F   F28       1.0  0.63560  0.34630  0.72930  1.0000
  Cl  Cl17      1.0  0.11190  0.25424  0.19290  1.0000
  Cl  Cl18      1.0  0.38810  0.75424  0.30710  1.0000
  Cl  Cl19      1.0  0.88810  0.74576  0.80710  1.0000
  Cl  Cl20      1.0  0.61190  0.24576  0.69290  1.0000
  F   F29       1.0  0.18940  0.27140  0.02950  1.0000
  F   F30       1.0  0.31060  0.77140  0.47050  1.0000
  F   F31       1.0  0.81060  0.72860  0.97050  1.0000
  F   F32       1.0  0.68940  0.22860  0.52950  1.0000
  Cl  Cl21      1.0  0.27150  0.20970  0.91020  1.0000
  Cl  Cl22      1.0  0.22850  0.70970  0.58980  1.0000
  Cl  Cl23      1.0  0.72850  0.79030  0.08980  1.0000
  Cl  Cl24      1.0  0.77150  0.29030  0.41020  1.0000
  F   F33       1.0  0.27950  0.11420  0.98530  1.0000
  F   F34       1.0  0.22050  0.61420  0.51470  1.0000
  F   F35       1.0  0.72050  0.88580  0.01470  1.0000
  F   F36       1.0  0.77950  0.38580  0.48530  1.0000
  C   C73       1.0  0.21880  0.00350  0.24530  1.0000
  C   C74       1.0  0.28120  0.50350  0.25470  1.0000
  C   C75       1.0  0.78120  0.99650  0.75470  1.0000
  C   C76       1.0  0.71880  0.49650  0.74530  1.0000
  C   C77       1.0  0.27520  0.96050  0.24300  1.0000
  C   C78       1.0  0.22480  0.46050  0.25700  1.0000
  C   C79       1.0  0.72480  0.03950  0.75700  1.0000
  C   C80       1.0  0.77520  0.53950  0.74300  1.0000
  C   C81       1.0  0.27330  0.92260  0.29920  1.0000
  C   C82       1.0  0.22670  0.42260  0.20080  1.0000
  C   C83       1.0  0.72670  0.07740  0.70080  1.0000
  C   C84       1.0  0.77330  0.57740  0.79920  1.0000
  C   C85       1.0  0.21170  0.92690  0.36020  1.0000
  C   C86       1.0  0.28830  0.42690  0.13980  1.0000
  C   C87       1.0  0.78830  0.07310  0.63980  1.0000
  C   C88       1.0  0.71170  0.57310  0.86020  1.0000
  C   C89       1.0  0.15580  0.96790  0.36810  1.0000
  C   C90       1.0  0.34420  0.46790  0.13190  1.0000
  C   C91       1.0  0.84420  0.03210  0.63190  1.0000
  C   C92       1.0  0.65580  0.53210  0.86810  1.0000
  C   C93       1.0  0.15970  0.00500  0.30990  1.0000
  C   C94       1.0  0.34030  0.50500  0.19010  1.0000
  C   C95       1.0  0.84030  0.99500  0.69010  1.0000
  C   C96       1.0  0.65970  0.49500  0.80990  1.0000
  F   F37       1.0  0.33360  0.95530  0.18310  1.0000
  F   F38       1.0  0.16640  0.45530  0.31690  1.0000
  F   F39       1.0  0.66640  0.04470  0.81690  1.0000
  F   F40       1.0  0.83360  0.54470  0.68310  1.0000
  Cl  Cl25      1.0  0.34460  0.87163  0.29490  1.0000
  Cl  Cl26      1.0  0.15540  0.37163  0.20510  1.0000
  Cl  Cl27      1.0  0.65540  0.12837  0.70510  1.0000
  Cl  Cl28      1.0  0.84460  0.62837  0.79490  1.0000
  F   F41       1.0  0.20900  0.89100  0.41860  1.0000
  F   F42       1.0  0.29100  0.39100  0.08140  1.0000
  F   F43       1.0  0.79100  0.10900  0.58140  1.0000
  F   F44       1.0  0.70900  0.60900  0.91860  1.0000
  Cl  Cl29      1.0  0.07870  0.97240  0.44500  1.0000
  Cl  Cl30      1.0  0.42130  0.47240  0.05500  1.0000
  Cl  Cl31      1.0  0.92130  0.02760  0.55500  1.0000
  Cl  Cl32      1.0  0.57870  0.52760  0.94500  1.0000
  F   F45       1.0  0.10220  0.04520  0.31610  1.0000
  F   F46       1.0  0.39780  0.54520  0.18390  1.0000
  F   F47       1.0  0.89780  0.95480  0.68390  1.0000
  F   F48       1.0  0.60220  0.45480  0.81610  1.0000
