data_image0
_chemical_formula_structural       Zn4O24C12
_chemical_formula_sum              "Zn4 O24 C12"
_cell_length_a       8.3007
_cell_length_b       15.6603
_cell_length_c       9.3885
_cell_angle_alpha    90
_cell_angle_beta     114.592
_cell_angle_gamma    90

_space_group_name_H-M_alt    "P 1"
_space_group_IT_number       1

loop_
  _space_group_symop_operation_xyz
  'x, y, z'

loop_
  _atom_site_type_symbol
  _atom_site_label
  _atom_site_symmetry_multiplicity
  _atom_site_fract_x
  _atom_site_fract_y
  _atom_site_fract_z
  _atom_site_occupancy
  Zn  Zn1       1.0  0.97001  0.33072  0.53646  1.0000
  Zn  Zn2       1.0  0.52999  0.83072  0.96354  1.0000
  Zn  Zn3       1.0  0.02999  0.66928  0.46354  1.0000
  Zn  Zn4       1.0  0.47001  0.16928  0.03646  1.0000
  O   O1        1.0  0.69738  0.31297  0.42916  1.0000
  O   O2        1.0  0.80262  0.81297  0.07084  1.0000
  O   O3        1.0  0.30262  0.68703  0.57084  1.0000
  O   O4        1.0  0.19738  0.18703  0.92916  1.0000
  O   O5        1.0  0.01011  0.58376  0.62592  1.0000
  O   O6        1.0  0.48989  0.08376  0.87408  1.0000
  O   O7        1.0  0.98989  0.41624  0.37408  1.0000
  O   O8        1.0  0.51011  0.91624  0.12592  1.0000
  O   O9        1.0  0.49232  0.24855  0.22020  1.0000
  O   O10       1.0  0.00768  0.74855  0.27980  1.0000
  O   O11       1.0  0.50768  0.75145  0.77980  1.0000
  O   O12       1.0  0.99232  0.25145  0.72020  1.0000
  O   O13       1.0  0.95372  0.23532  0.37247  1.0000
  O   O14       1.0  0.54628  0.73532  0.12753  1.0000
  O   O15       1.0  0.04628  0.76468  0.62753  1.0000
  O   O16       1.0  0.45372  0.26468  0.87247  1.0000
  O   O17       1.0  0.96161  0.44479  0.64529  1.0000
  O   O18       1.0  0.53839  0.94479  0.85471  1.0000
  O   O19       1.0  0.03839  0.55521  0.35471  1.0000
  O   O20       1.0  0.46161  0.05521  0.14529  1.0000
  O   O21       1.0  0.74784  0.17837  0.15398  1.0000
  O   O22       1.0  0.75216  0.67837  0.34602  1.0000
  O   O23       1.0  0.25216  0.82163  0.84602  1.0000
  O   O24       1.0  0.24784  0.32163  0.65398  1.0000
  C   C1        1.0  0.64895  0.26483  0.31224  1.0000
  C   C2        1.0  0.85105  0.76483  0.18776  1.0000
  C   C3        1.0  0.35105  0.73517  0.68776  1.0000
  C   C4        1.0  0.14895  0.23517  0.81224  1.0000
  C   C5        1.0  0.79732  0.22213  0.27622  1.0000
  C   C6        1.0  0.70268  0.72213  0.22378  1.0000
  C   C7        1.0  0.20268  0.77787  0.72378  1.0000
  C   C8        1.0  0.29732  0.27787  0.77622  1.0000
  C   C9        1.0  0.99192  0.50792  0.57885  1.0000
  C   C10       1.0  0.50808  0.00792  0.92115  1.0000
  C   C11       1.0  0.00808  0.49208  0.42115  1.0000
  C   C12       1.0  0.49192  0.99208  0.07885  1.0000
