data_image0
_chemical_formula_structural       U2S4O18H2C4H2C6H2C2H2C2H2C4H2C2H2
_chemical_formula_sum              "U2 S4 O18 H14 C20"
_cell_length_a       8.9368
_cell_length_b       13.1629
_cell_length_c       14.0127
_cell_angle_alpha    95.343
_cell_angle_beta     93.436
_cell_angle_gamma    91.245

_space_group_name_H-M_alt    "P 1"
_space_group_IT_number       1

loop_
  _space_group_symop_operation_xyz
  'x, y, z'

loop_
  _atom_site_type_symbol
  _atom_site_label
  _atom_site_symmetry_multiplicity
  _atom_site_fract_x
  _atom_site_fract_y
  _atom_site_fract_z
  _atom_site_occupancy
  U   U1        1.0  0.68663  0.94090  0.46269  1.0000
  U   U2        1.0  0.31337  0.05910  0.53731  1.0000
  S   S1        1.0  0.92935  0.16437  0.53514  1.0000
  S   S2        1.0  0.07065  0.83563  0.46486  1.0000
  S   S3        1.0  0.58770  0.67037  0.37399  1.0000
  S   S4        1.0  0.41230  0.32963  0.62601  1.0000
  O   O1        1.0  0.64590  0.95799  0.33980  1.0000
  O   O2        1.0  0.35410  0.04201  0.66020  1.0000
  O   O3        1.0  0.73490  0.92579  0.58503  1.0000
  O   O4        1.0  0.26510  0.07421  0.41497  1.0000
  O   O5        1.0  0.87280  0.08169  0.46264  1.0000
  O   O6        1.0  0.12720  0.91831  0.53736  1.0000
  O   O7        1.0  0.07850  0.14159  0.57523  1.0000
  O   O8        1.0  0.92150  0.85841  0.42477  1.0000
  O   O9        1.0  0.82630  0.18703  0.60893  1.0000
  O   O10       1.0  0.17370  0.81297  0.39107  1.0000
  O   O11       1.0  0.64410  0.76074  0.43656  1.0000
  O   O12       1.0  0.35590  0.23926  0.56344  1.0000
  O   O13       1.0  0.55770  0.69320  0.27563  1.0000
  O   O14       1.0  0.44230  0.30680  0.72437  1.0000
  O   O15       1.0  0.46460  0.62170  0.41562  1.0000
  O   O16       1.0  0.53540  0.37830  0.58438  1.0000
  O   O17       1.0  0.43580  0.91161  0.48470  1.0000
  O   O18       1.0  0.56420  0.08839  0.51530  1.0000
  H   H1        1.0  0.37660  0.87380  0.43890  1.0000
  H   H2        1.0  0.62340  0.12620  0.56110  1.0000
  C   C1        1.0  0.94750  0.27360  0.47190  1.0000
  C   C2        1.0  0.05250  0.72640  0.52810  1.0000
  C   C3        1.0  0.84300  0.34800  0.48280  1.0000
  C   C4        1.0  0.15700  0.65200  0.51720  1.0000
  H   H3        1.0  0.76840  0.34330  0.52790  1.0000
  H   H4        1.0  0.23160  0.65670  0.47210  1.0000
  C   C5        1.0  0.84720  0.43200  0.42630  1.0000
  C   C6        1.0  0.15280  0.56800  0.57370  1.0000
  C   C7        1.0  0.96030  0.43870  0.36020  1.0000
  C   C8        1.0  0.03970  0.56130  0.63980  1.0000
  C   C9        1.0  0.06670  0.36030  0.35190  1.0000
  C   C10       1.0  0.93330  0.63970  0.64810  1.0000
  H   H5        1.0  0.14290  0.36390  0.30780  1.0000
  H   H6        1.0  0.85710  0.63610  0.69220  1.0000
  C   C11       1.0  0.06070  0.28010  0.40640  1.0000
  C   C12       1.0  0.93930  0.71990  0.59360  1.0000
  H   H7        1.0  0.13290  0.22830  0.40040  1.0000
  H   H8        1.0  0.86710  0.77170  0.59960  1.0000
  C   C13       1.0  0.73590  0.50670  0.43200  1.0000
  C   C14       1.0  0.26410  0.49330  0.56800  1.0000
  H   H9        1.0  0.66000  0.50300  0.47630  1.0000
  H   H10       1.0  0.34000  0.49700  0.52370  1.0000
  C   C15       1.0  0.73760  0.58430  0.37350  1.0000
  C   C16       1.0  0.26240  0.41570  0.62650  1.0000
  C   C17       1.0  0.85310  0.59340  0.30970  1.0000
  C   C18       1.0  0.14690  0.40660  0.69030  1.0000
  H   H11       1.0  0.85470  0.64900  0.27120  1.0000
  H   H12       1.0  0.14530  0.35100  0.72880  1.0000
  C   C19       1.0  0.96180  0.52270  0.30340  1.0000
  C   C20       1.0  0.03820  0.47730  0.69660  1.0000
  H   H13       1.0  0.03930  0.52950  0.26070  1.0000
  H   H14       1.0  0.96070  0.47050  0.73930  1.0000
