data_image0
_chemical_formula_structural       Ag6Br4S4O6H4O2N2H6O2H2O12H2O4C8H2C4H2C6H2C4H2C6
_chemical_formula_sum              "Ag6 Br4 S4 O26 H22 N2 C28"
_cell_length_a       9.4697
_cell_length_b       10.256
_cell_length_c       12.099
_cell_angle_alpha    87.9
_cell_angle_beta     88.38
_cell_angle_gamma    81.24

_space_group_name_H-M_alt    "P 1"
_space_group_IT_number       1

loop_
  _space_group_symop_operation_xyz
  'x, y, z'

loop_
  _atom_site_type_symbol
  _atom_site_label
  _atom_site_symmetry_multiplicity
  _atom_site_fract_x
  _atom_site_fract_y
  _atom_site_fract_z
  _atom_site_occupancy
  Ag  Ag1       1.0  0.75197  0.69789  0.22087  1.0000
  Ag  Ag2       1.0  0.24803  0.30211  0.77913  1.0000
  Ag  Ag3       1.0  0.55409  0.23628  0.74009  1.0000
  Ag  Ag4       1.0  0.44591  0.76372  0.25991  1.0000
  Ag  Ag5       1.0  0.95291  0.28919  0.35447  1.0000
  Ag  Ag6       1.0  0.04709  0.71081  0.64553  1.0000
  Br  Br1       1.0  0.68910  0.43442  0.15404  1.0000
  Br  Br2       1.0  0.31090  0.56558  0.84596  1.0000
  Br  Br3       1.0  0.27860  0.07657  0.39785  1.0000
  Br  Br4       1.0  0.72140  0.92343  0.60215  1.0000
  S   S1        1.0  0.09848  0.50434  0.19323  1.0000
  S   S2        1.0  0.90152  0.49566  0.80677  1.0000
  S   S3        1.0  0.84815  0.00403  0.26138  1.0000
  S   S4        1.0  0.15185  0.99597  0.73862  1.0000
  O   O1        1.0  0.12900  0.54360  0.08020  1.0000
  O   O2        1.0  0.87100  0.45640  0.91980  1.0000
  O   O3        1.0  0.04140  0.38030  0.19810  1.0000
  O   O4        1.0  0.95860  0.61970  0.80190  1.0000
  O   O5        1.0  0.80890  0.16270  0.79380  1.0000
  O   O6        1.0  0.19110  0.83730  0.20620  1.0000
  H   H1        1.0  0.85800  0.08600  0.79200  1.0000
  H   H2        1.0  0.14200  0.91400  0.20800  1.0000
  H   H3        1.0  0.84700  0.21600  0.75100  1.0000
  H   H4        1.0  0.15300  0.78400  0.24900  1.0000
  O   O7        1.0  0.01080  0.60710  0.25360  1.0000
  O   O8        1.0  0.98920  0.39290  0.74640  1.0000
  N   N1        1.0  0.89200  0.24290  0.52290  1.0000
  N   N2        1.0  0.10800  0.75710  0.47710  1.0000
  H   H5        1.0  0.84690  0.17270  0.52440  1.0000
  H   H6        1.0  0.15310  0.82730  0.47560  1.0000
  H   H7        1.0  0.83410  0.31140  0.55010  1.0000
  H   H8        1.0  0.16590  0.68860  0.44990  1.0000
  H   H9        1.0  0.96980  0.22530  0.56370  1.0000
  H   H10       1.0  0.03020  0.77470  0.43630  1.0000
  O   O9        1.0  0.15090  0.43480  0.43230  1.0000
  O   O10       1.0  0.84910  0.56520  0.56770  1.0000
  H   H11       1.0  0.17010  0.40960  0.49600  1.0000
  H   H12       1.0  0.82990  0.59040  0.50400  1.0000
  O   O11       1.0  0.30490  0.35040  0.59450  1.0000
  O   O12       1.0  0.69510  0.64960  0.40550  1.0000
  O   O13       1.0  0.53950  0.28720  0.56800  1.0000
  O   O14       1.0  0.46050  0.71280  0.43200  1.0000
  O   O15       1.0  0.85170  0.97970  0.37970  1.0000
  O   O16       1.0  0.14830  0.02030  0.62030  1.0000
  O   O17       1.0  0.88980  0.88470  0.19850  1.0000
  O   O18       1.0  0.11020  0.11530  0.80150  1.0000
  O   O19       1.0  0.93020  0.10700  0.22360  1.0000
  O   O20       1.0  0.06980  0.89300  0.77640  1.0000
  O   O21       1.0  0.73410  0.10150  0.04340  1.0000
  O   O22       1.0  0.26590  0.89850  0.95660  1.0000
  H   H13       1.0  0.70060  0.13300  0.98480  1.0000
  H   H14       1.0  0.29940  0.86700  0.01520  1.0000
  O   O23       1.0  0.31070  0.22770  0.96160  1.0000
  O   O24       1.0  0.68930  0.77230  0.03840  1.0000
  O   O25       1.0  0.54230  0.20200  0.91450  1.0000
  O   O26       1.0  0.45770  0.79800  0.08550  1.0000
  C   C1        1.0  0.26450  0.47090  0.25890  1.0000
  C   C2        1.0  0.73550  0.52910  0.74110  1.0000
  C   C3        1.0  0.27330  0.43100  0.37110  1.0000
  C   C4        1.0  0.72670  0.56900  0.62890  1.0000
  C   C5        1.0  0.40810  0.38840  0.41670  1.0000
  C   C6        1.0  0.59190  0.61160  0.58330  1.0000
  C   C7        1.0  0.53080  0.38770  0.35050  1.0000
  C   C8        1.0  0.46920  0.61230  0.64950  1.0000
  H   H15       1.0  0.62000  0.35730  0.37980  1.0000
  H   H16       1.0  0.38000  0.64270  0.62020  1.0000
  C   C9        1.0  0.52050  0.43170  0.24250  1.0000
  C   C10       1.0  0.47950  0.56830  0.75750  1.0000
  C   C11       1.0  0.39010  0.47260  0.19450  1.0000
  C   C12       1.0  0.60990  0.52740  0.80550  1.0000
  H   H17       1.0  0.38540  0.50080  0.12060  1.0000
  H   H18       1.0  0.61460  0.49920  0.87940  1.0000
  C   C13       1.0  0.41910  0.33770  0.53570  1.0000
  C   C14       1.0  0.58090  0.66230  0.46430  1.0000
  C   C15       1.0  0.66650  0.05690  0.22750  1.0000
  C   C16       1.0  0.33350  0.94310  0.77250  1.0000
  C   C17       1.0  0.56170  0.04980  0.30980  1.0000
  C   C18       1.0  0.43830  0.95020  0.69020  1.0000
  H   H19       1.0  0.58680  0.01970  0.38110  1.0000
  H   H20       1.0  0.41320  0.98030  0.61890  1.0000
  C   C19       1.0  0.41960  0.08820  0.28370  1.0000
  C   C20       1.0  0.58040  0.91180  0.71630  1.0000
  C   C21       1.0  0.38060  0.13360  0.18080  1.0000
  C   C22       1.0  0.61940  0.86640  0.81920  1.0000
  H   H21       1.0  0.28440  0.16010  0.16620  1.0000
  H   H22       1.0  0.71560  0.83990  0.83380  1.0000
  C   C23       1.0  0.48420  0.14140  0.09550  1.0000
  C   C24       1.0  0.51580  0.85860  0.90450  1.0000
  C   C25       1.0  0.62880  0.10030  0.11960  1.0000
  C   C26       1.0  0.37120  0.89970  0.88040  1.0000
  C   C27       1.0  0.43940  0.19430  0.98360  1.0000
  C   C28       1.0  0.56060  0.80570  0.01640  1.0000
