data_image0
_chemical_formula_structural       Cu8O48C24
_chemical_formula_sum              "Cu8 O48 C24"
_cell_length_a       8.7595
_cell_length_b       33.9181
_cell_length_c       8.7069
_cell_angle_alpha    90
_cell_angle_beta     107.797
_cell_angle_gamma    90

_space_group_name_H-M_alt    "P 1"
_space_group_IT_number       1

loop_
  _space_group_symop_operation_xyz
  'x, y, z'

loop_
  _atom_site_type_symbol
  _atom_site_label
  _atom_site_symmetry_multiplicity
  _atom_site_fract_x
  _atom_site_fract_y
  _atom_site_fract_z
  _atom_site_occupancy
  Cu  Cu1       1.0  0.75070  0.20365  0.48696  1.0000
  Cu  Cu2       1.0  0.24930  0.70365  0.01304  1.0000
  Cu  Cu3       1.0  0.24930  0.79635  0.51304  1.0000
  Cu  Cu4       1.0  0.75070  0.29635  0.98696  1.0000
  Cu  Cu5       1.0  0.74064  0.04578  0.49983  1.0000
  Cu  Cu6       1.0  0.25936  0.54578  0.00017  1.0000
  Cu  Cu7       1.0  0.25936  0.95422  0.50017  1.0000
  Cu  Cu8       1.0  0.74064  0.45422  0.99983  1.0000
  O   O1        1.0  0.89358  0.15458  0.61545  1.0000
  O   O2        1.0  0.10642  0.65458  0.88455  1.0000
  O   O3        1.0  0.10642  0.84542  0.38455  1.0000
  O   O4        1.0  0.89358  0.34542  0.11545  1.0000
  O   O5        1.0  0.85480  0.09030  0.62915  1.0000
  O   O6        1.0  0.14520  0.59030  0.87085  1.0000
  O   O7        1.0  0.14520  0.90970  0.37085  1.0000
  O   O8        1.0  0.85480  0.40970  0.12915  1.0000
  O   O9        1.0  0.62199  0.15987  0.36456  1.0000
  O   O10       1.0  0.37801  0.65987  0.13544  1.0000
  O   O11       1.0  0.37801  0.84013  0.63544  1.0000
  O   O12       1.0  0.62199  0.34013  0.86456  1.0000
  O   O13       1.0  0.61443  0.09458  0.34734  1.0000
  O   O14       1.0  0.38557  0.59458  0.15266  1.0000
  O   O15       1.0  0.38557  0.90542  0.65266  1.0000
  O   O16       1.0  0.61443  0.40542  0.84734  1.0000
  O   O17       1.0  0.62426  0.20703  0.65006  1.0000
  O   O18       1.0  0.37574  0.70703  0.84994  1.0000
  O   O19       1.0  0.37574  0.79297  0.34994  1.0000
  O   O20       1.0  0.62426  0.29297  0.15006  1.0000
  O   O21       1.0  0.59640  0.24928  0.83410  1.0000
  O   O22       1.0  0.40360  0.74928  0.66590  1.0000
  O   O23       1.0  0.40360  0.75072  0.16590  1.0000
  O   O24       1.0  0.59640  0.25072  0.33410  1.0000
  O   O25       1.0  0.87783  0.24607  0.62425  1.0000
  O   O26       1.0  0.12217  0.74607  0.87575  1.0000
  O   O27       1.0  0.12217  0.75393  0.37575  1.0000
  O   O28       1.0  0.87783  0.25393  0.12425  1.0000
  O   O29       1.0  0.86467  0.28772  0.81699  1.0000
  O   O30       1.0  0.13533  0.78772  0.68301  1.0000
  O   O31       1.0  0.13533  0.71228  0.18301  1.0000
  O   O32       1.0  0.86467  0.21228  0.31699  1.0000
  O   O33       1.0  0.90925  0.04029  0.38151  1.0000
  O   O34       1.0  0.09075  0.54029  0.11849  1.0000
  O   O35       1.0  0.09075  0.95971  0.61849  1.0000
  O   O36       1.0  0.90925  0.45971  0.88151  1.0000
  O   O37       1.0  0.09100  0.99860  0.34773  1.0000
  O   O38       1.0  0.90900  0.49860  0.15227  1.0000
  O   O39       1.0  0.90900  0.00140  0.65227  1.0000
  O   O40       1.0  0.09100  0.50140  0.84773  1.0000
  O   O41       1.0  0.57204  0.04137  0.61768  1.0000
  O   O42       1.0  0.42796  0.54137  0.88232  1.0000
  O   O43       1.0  0.42796  0.95863  0.38232  1.0000
  O   O44       1.0  0.57204  0.45863  0.11768  1.0000
  O   O45       1.0  0.38073  0.99910  0.62738  1.0000
  O   O46       1.0  0.61927  0.49910  0.87262  1.0000
  O   O47       1.0  0.61927  0.00090  0.37262  1.0000
  O   O48       1.0  0.38073  0.50090  0.12738  1.0000
  C   C1        1.0  0.82010  0.12364  0.56590  1.0000
  C   C2        1.0  0.17990  0.62364  0.93410  1.0000
  C   C3        1.0  0.17990  0.87636  0.43410  1.0000
  C   C4        1.0  0.82010  0.37636  0.06590  1.0000
  C   C5        1.0  0.67160  0.12600  0.41190  1.0000
  C   C6        1.0  0.32840  0.62600  0.08810  1.0000
  C   C7        1.0  0.32840  0.87400  0.58810  1.0000
  C   C8        1.0  0.67160  0.37400  0.91190  1.0000
  C   C9        1.0  0.81640  0.25897  0.72700  1.0000
  C   C10       1.0  0.18360  0.75897  0.77300  1.0000
  C   C11       1.0  0.18360  0.74103  0.27300  1.0000
  C   C12       1.0  0.81640  0.24103  0.22700  1.0000
  C   C13       1.0  0.66570  0.23688  0.74070  1.0000
  C   C14       1.0  0.33430  0.73688  0.75930  1.0000
  C   C15       1.0  0.33430  0.76312  0.25930  1.0000
  C   C16       1.0  0.66570  0.26312  0.24070  1.0000
  C   C17       1.0  0.00160  0.01092  0.42140  1.0000
  C   C18       1.0  0.99840  0.51092  0.07860  1.0000
  C   C19       1.0  0.99840  0.98908  0.57860  1.0000
  C   C20       1.0  0.00160  0.48908  0.92140  1.0000
  C   C21       1.0  0.48620  0.01178  0.57100  1.0000
  C   C22       1.0  0.51380  0.51178  0.92900  1.0000
  C   C23       1.0  0.51380  0.98822  0.42900  1.0000
  C   C24       1.0  0.48620  0.48822  0.07100  1.0000
