data_image0
_chemical_formula_structural       Cu4O24C20O16Cu4O8C4
_chemical_formula_sum              "Cu8 O48 C24"
_cell_length_a       14.2898
_cell_length_b       10.351
_cell_length_c       18.2299
_cell_angle_alpha    90
_cell_angle_beta     111.975
_cell_angle_gamma    90

_space_group_name_H-M_alt    "P 1"
_space_group_IT_number       1

loop_
  _space_group_symop_operation_xyz
  'x, y, z'

loop_
  _atom_site_type_symbol
  _atom_site_label
  _atom_site_symmetry_multiplicity
  _atom_site_fract_x
  _atom_site_fract_y
  _atom_site_fract_z
  _atom_site_occupancy
  Cu  Cu1       1.0  0.32862  0.87181  0.40627  1.0000
  Cu  Cu2       1.0  0.67138  0.37181  0.09373  1.0000
  Cu  Cu3       1.0  0.67138  0.12819  0.59373  1.0000
  Cu  Cu4       1.0  0.32862  0.62819  0.90627  1.0000
  O   O1        1.0  0.49409  0.89095  0.42553  1.0000
  O   O2        1.0  0.50591  0.39095  0.07447  1.0000
  O   O3        1.0  0.50591  0.10905  0.57447  1.0000
  O   O4        1.0  0.49409  0.60905  0.92553  1.0000
  O   O5        1.0  0.29412  0.73631  0.32364  1.0000
  O   O6        1.0  0.70588  0.23631  0.17636  1.0000
  O   O7        1.0  0.70588  0.26369  0.67636  1.0000
  O   O8        1.0  0.29412  0.76369  0.82364  1.0000
  O   O9        1.0  0.28299  0.99273  0.31425  1.0000
  O   O10       1.0  0.71701  0.49273  0.18575  1.0000
  O   O11       1.0  0.71701  0.00727  0.68575  1.0000
  O   O12       1.0  0.28299  0.50727  0.81425  1.0000
  O   O13       1.0  0.36486  0.74565  0.49685  1.0000
  O   O14       1.0  0.63514  0.24565  0.00315  1.0000
  O   O15       1.0  0.63514  0.25435  0.50315  1.0000
  O   O16       1.0  0.36486  0.75435  0.99685  1.0000
  O   O17       1.0  0.17851  0.84843  0.41609  1.0000
  O   O18       1.0  0.82149  0.34843  0.08391  1.0000
  O   O19       1.0  0.82149  0.15157  0.58391  1.0000
  O   O20       1.0  0.17851  0.65157  0.91609  1.0000
  O   O21       1.0  0.37143  0.01671  0.48430  1.0000
  O   O22       1.0  0.62857  0.51671  0.01570  1.0000
  O   O23       1.0  0.62857  0.98329  0.51570  1.0000
  O   O24       1.0  0.37143  0.48329  0.98430  1.0000
  C   C1        1.0  0.53522  0.96369  0.48260  1.0000
  C   C2        1.0  0.46478  0.46369  0.01740  1.0000
  C   C3        1.0  0.46478  0.03631  0.51740  1.0000
  C   C4        1.0  0.53522  0.53631  0.98260  1.0000
  C   C5        1.0  0.25170  0.78204  0.25488  1.0000
  C   C6        1.0  0.74830  0.28204  0.24512  1.0000
  C   C7        1.0  0.74830  0.21796  0.74512  1.0000
  C   C8        1.0  0.25170  0.71796  0.75488  1.0000
  C   C9        1.0  0.25347  0.93230  0.25002  1.0000
  C   C10       1.0  0.74653  0.43230  0.24998  1.0000
  C   C11       1.0  0.74653  0.06770  0.74998  1.0000
  C   C12       1.0  0.25347  0.56770  0.75002  1.0000
  C   C13       1.0  0.29588  0.72240  0.52162  1.0000
  C   C14       1.0  0.70412  0.22240  0.97838  1.0000
  C   C15       1.0  0.70412  0.27760  0.47838  1.0000
  C   C16       1.0  0.29588  0.77760  0.02162  1.0000
  C   C17       1.0  0.18981  0.78072  0.47410  1.0000
  C   C18       1.0  0.81019  0.28072  0.02590  1.0000
  C   C19       1.0  0.81019  0.21928  0.52590  1.0000
  C   C20       1.0  0.18981  0.71928  0.97410  1.0000
  O   O25       1.0  0.21080  0.72125  0.19343  1.0000
  O   O26       1.0  0.78920  0.22125  0.30657  1.0000
  O   O27       1.0  0.78920  0.27875  0.80657  1.0000
  O   O28       1.0  0.21080  0.77875  0.69343  1.0000
  O   O29       1.0  0.22634  0.98390  0.18351  1.0000
  O   O30       1.0  0.77366  0.48390  0.31649  1.0000
  O   O31       1.0  0.77366  0.01610  0.81649  1.0000
  O   O32       1.0  0.22634  0.51610  0.68351  1.0000
  O   O33       1.0  0.30406  0.65624  0.58100  1.0000
  O   O34       1.0  0.69594  0.15624  0.91900  1.0000
  O   O35       1.0  0.69594  0.34376  0.41900  1.0000
  O   O36       1.0  0.30406  0.84376  0.08100  1.0000
  O   O37       1.0  0.12246  0.75111  0.50093  1.0000
  O   O38       1.0  0.87754  0.25111  0.99907  1.0000
  O   O39       1.0  0.87754  0.24889  0.49907  1.0000
  O   O40       1.0  0.12246  0.74889  0.00093  1.0000
  Cu  Cu5       1.0  0.17135  0.86789  0.09077  1.0000
  Cu  Cu6       1.0  0.82865  0.36789  0.40923  1.0000
  Cu  Cu7       1.0  0.82865  0.13211  0.90923  1.0000
  Cu  Cu8       1.0  0.17135  0.63211  0.59077  1.0000
  O   O41       1.0  0.02997  0.60306  0.58265  1.0000
  O   O42       1.0  0.97003  0.10306  0.91735  1.0000
  O   O43       1.0  0.97003  0.39694  0.41735  1.0000
  O   O44       1.0  0.02997  0.89694  0.08265  1.0000
  O   O45       1.0  0.12004  0.46051  0.50194  1.0000
  O   O46       1.0  0.87996  0.96051  0.99806  1.0000
  O   O47       1.0  0.87996  0.53949  0.49806  1.0000
  O   O48       1.0  0.12004  0.03949  0.00194  1.0000
  C   C21       1.0  0.97291  0.54031  0.52272  1.0000
  C   C22       1.0  0.02709  0.04031  0.97728  1.0000
  C   C23       1.0  0.02709  0.45969  0.47728  1.0000
  C   C24       1.0  0.97291  0.95969  0.02272  1.0000
