data_image0
_chemical_formula_structural       Ba4Fe8O100H8O4H8C48
_chemical_formula_sum              "Ba4 Fe8 O104 H16 C48"
_cell_length_a       25.8392
_cell_length_b       10.6613
_cell_length_c       20.8311
_cell_angle_alpha    90
_cell_angle_beta     112.231
_cell_angle_gamma    90

_space_group_name_H-M_alt    "P 1"
_space_group_IT_number       1

loop_
  _space_group_symop_operation_xyz
  'x, y, z'

loop_
  _atom_site_type_symbol
  _atom_site_label
  _atom_site_symmetry_multiplicity
  _atom_site_fract_x
  _atom_site_fract_y
  _atom_site_fract_z
  _atom_site_occupancy
  Ba  Ba1       1.0  0.37684  0.90636  0.36393  1.0000
  Ba  Ba2       1.0  0.62316  0.40636  0.13607  1.0000
  Ba  Ba3       1.0  0.62316  0.09364  0.63607  1.0000
  Ba  Ba4       1.0  0.37684  0.59364  0.86393  1.0000
  Fe  Fe1       1.0  0.45657  0.40575  0.29294  1.0000
  Fe  Fe2       1.0  0.54343  0.90575  0.20706  1.0000
  Fe  Fe3       1.0  0.54343  0.59425  0.70706  1.0000
  Fe  Fe4       1.0  0.45657  0.09425  0.79294  1.0000
  Fe  Fe5       1.0  0.17433  0.77304  0.43858  1.0000
  Fe  Fe6       1.0  0.82567  0.27304  0.06142  1.0000
  Fe  Fe7       1.0  0.82567  0.22696  0.56142  1.0000
  Fe  Fe8       1.0  0.17433  0.72696  0.93858  1.0000
  O   O1        1.0  0.48621  0.25830  0.35538  1.0000
  O   O2        1.0  0.51379  0.75830  0.14462  1.0000
  O   O3        1.0  0.51379  0.74170  0.64462  1.0000
  O   O4        1.0  0.48621  0.24170  0.85538  1.0000
  O   O5        1.0  0.45781  0.10140  0.40540  1.0000
  O   O6        1.0  0.54219  0.60140  0.09460  1.0000
  O   O7        1.0  0.54219  0.89860  0.59460  1.0000
  O   O8        1.0  0.45781  0.39860  0.90540  1.0000
  O   O9        1.0  0.38405  0.31380  0.27570  1.0000
  O   O10       1.0  0.61595  0.81380  0.22430  1.0000
  O   O11       1.0  0.61595  0.68620  0.72430  1.0000
  O   O12       1.0  0.38405  0.18620  0.77570  1.0000
  O   O13       1.0  0.34891  0.15840  0.31825  1.0000
  O   O14       1.0  0.65109  0.65840  0.18175  1.0000
  O   O15       1.0  0.65109  0.84160  0.68175  1.0000
  O   O16       1.0  0.34891  0.34160  0.81825  1.0000
  O   O17       1.0  0.45792  0.50150  0.37598  1.0000
  O   O18       1.0  0.54208  0.00150  0.12402  1.0000
  O   O19       1.0  0.54208  0.49850  0.62402  1.0000
  O   O20       1.0  0.45792  0.99850  0.87598  1.0000
  O   O21       1.0  0.42579  0.67510  0.40644  1.0000
  O   O22       1.0  0.57421  0.17510  0.09356  1.0000
  O   O23       1.0  0.57421  0.32490  0.59356  1.0000
  O   O24       1.0  0.42579  0.82490  0.90644  1.0000
  O   O25       1.0  0.40923  0.55180  0.24433  1.0000
  O   O26       1.0  0.59077  0.05180  0.25567  1.0000
  O   O27       1.0  0.59077  0.44820  0.75567  1.0000
  O   O28       1.0  0.40923  0.94820  0.74433  1.0000
  O   O29       1.0  0.36563  0.71880  0.26514  1.0000
  O   O30       1.0  0.63437  0.21880  0.23486  1.0000
  O   O31       1.0  0.63437  0.28120  0.73486  1.0000
  O   O32       1.0  0.36563  0.78120  0.76514  1.0000
  O   O33       1.0  0.53110  0.47420  0.30306  1.0000
  O   O34       1.0  0.46890  0.97420  0.19694  1.0000
  O   O35       1.0  0.46890  0.52580  0.69694  1.0000
  O   O36       1.0  0.53110  0.02580  0.80306  1.0000
  O   O37       1.0  0.58762  0.49290  0.24453  1.0000
  O   O38       1.0  0.41238  0.99290  0.25547  1.0000
  O   O39       1.0  0.41238  0.50710  0.75547  1.0000
  O   O40       1.0  0.58762  0.00710  0.74453  1.0000
  O   O41       1.0  0.46040  0.33620  0.20558  1.0000
  O   O42       1.0  0.53960  0.83620  0.29442  1.0000
  O   O43       1.0  0.53960  0.66380  0.79442  1.0000
  O   O44       1.0  0.46040  0.16380  0.70558  1.0000
  O   O45       1.0  0.51466  0.34000  0.14324  1.0000
  O   O46       1.0  0.48534  0.84000  0.35676  1.0000
  O   O47       1.0  0.48534  0.66000  0.85676  1.0000
  O   O48       1.0  0.51466  0.16000  0.64324  1.0000
  O   O49       1.0  0.23019  0.68730  0.41068  1.0000
  O   O50       1.0  0.76981  0.18730  0.08932  1.0000
  O   O51       1.0  0.76981  0.31270  0.58932  1.0000
  O   O52       1.0  0.23019  0.81270  0.91068  1.0000
  O   O53       1.0  0.30733  0.72740  0.38996  1.0000
  O   O54       1.0  0.69267  0.22740  0.11004  1.0000
  O   O55       1.0  0.69267  0.27260  0.61004  1.0000
  O   O56       1.0  0.30733  0.77260  0.88996  1.0000
  O   O57       1.0  0.22788  0.91560  0.45492  1.0000
  O   O58       1.0  0.77212  0.41560  0.04508  1.0000
  O   O59       1.0  0.77212  0.08440  0.54508  1.0000
  O   O60       1.0  0.22788  0.58440  0.95492  1.0000
  O   O61       1.0  0.29951  0.97460  0.42636  1.0000
  O   O62       1.0  0.70049  0.47460  0.07364  1.0000
  O   O63       1.0  0.70049  0.02540  0.57364  1.0000
  O   O64       1.0  0.29951  0.52540  0.92636  1.0000
  O   O65       1.0  0.20421  0.69870  0.53545  1.0000
  O   O66       1.0  0.79579  0.19870  0.96455  1.0000
  O   O67       1.0  0.79579  0.30130  0.46455  1.0000
  O   O68       1.0  0.20421  0.80130  0.03545  1.0000
  O   O69       1.0  0.18902  0.70100  0.63424  1.0000
  O   O70       1.0  0.81098  0.20100  0.86576  1.0000
  O   O71       1.0  0.81098  0.29900  0.36576  1.0000
  O   O72       1.0  0.18902  0.79900  0.13424  1.0000
  O   O73       1.0  0.12049  0.85010  0.47749  1.0000
  O   O74       1.0  0.87951  0.35010  0.02251  1.0000
  O   O75       1.0  0.87951  0.14990  0.52251  1.0000
  O   O76       1.0  0.12049  0.64990  0.97749  1.0000
  O   O77       1.0  0.07959  0.78570  0.54936  1.0000
  O   O78       1.0  0.92041  0.28570  0.95064  1.0000
  O   O79       1.0  0.92041  0.21430  0.45064  1.0000
  O   O80       1.0  0.07959  0.71430  0.04936  1.0000
  O   O81       1.0  0.11718  0.63640  0.39669  1.0000
  O   O82       1.0  0.88282  0.13640  0.10331  1.0000
  O   O83       1.0  0.88282  0.36360  0.60331  1.0000
  O   O84       1.0  0.11718  0.86360  0.89669  1.0000
  O   O85       1.0  0.02896  0.61900  0.31900  1.0000
  O   O86       1.0  0.97104  0.11900  0.18100  1.0000
  O   O87       1.0  0.97104  0.38100  0.68100  1.0000
  O   O88       1.0  0.02896  0.88100  0.81900  1.0000
  O   O89       1.0  0.12762  0.85810  0.34915  1.0000
  O   O90       1.0  0.87238  0.35810  0.15085  1.0000
  O   O91       1.0  0.87238  0.14190  0.65085  1.0000
  O   O92       1.0  0.12762  0.64190  0.84915  1.0000
  O   O93       1.0  0.03610  0.86650  0.28396  1.0000
  O   O94       1.0  0.96390  0.36650  0.21604  1.0000
  O   O95       1.0  0.96390  0.13350  0.71604  1.0000
  O   O96       1.0  0.03610  0.63350  0.78396  1.0000
  O   O97       1.0  0.42741  0.93460  0.50560  1.0000
  O   O98       1.0  0.57259  0.43460  0.99440  1.0000
  O   O99       1.0  0.57259  0.06540  0.49440  1.0000
  O   O100      1.0  0.42741  0.56540  0.00560  1.0000
  H   H1        1.0  0.41600  0.91300  0.52100  1.0000
  H   H2        1.0  0.58400  0.41300  0.97900  1.0000
  H   H3        1.0  0.58400  0.08700  0.47900  1.0000
  H   H4        1.0  0.41600  0.58700  0.02100  1.0000
  H   H5        1.0  0.46600  0.92100  0.52900  1.0000
  H   H6        1.0  0.53400  0.42100  0.97100  1.0000
  H   H7        1.0  0.53400  0.07900  0.47100  1.0000
  H   H8        1.0  0.46600  0.57900  0.02900  1.0000
  O   O101      1.0  0.26829  0.91040  0.26140  1.0000
  O   O102      1.0  0.73171  0.41040  0.23860  1.0000
  O   O103      1.0  0.73171  0.08960  0.73860  1.0000
  O   O104      1.0  0.26829  0.58960  0.76140  1.0000
  H   H9        1.0  0.25300  0.99100  0.23900  1.0000
  H   H10       1.0  0.74700  0.49100  0.26100  1.0000
  H   H11       1.0  0.74700  0.00900  0.76100  1.0000
  H   H12       1.0  0.25300  0.50900  0.73900  1.0000
  H   H13       1.0  0.25800  0.87400  0.22300  1.0000
  H   H14       1.0  0.74200  0.37400  0.27700  1.0000
  H   H15       1.0  0.74200  0.12600  0.77700  1.0000
  H   H16       1.0  0.25800  0.62600  0.72300  1.0000
  C   C1        1.0  0.44930  0.18820  0.36372  1.0000
  C   C2        1.0  0.55070  0.68820  0.13628  1.0000
  C   C3        1.0  0.55070  0.81180  0.63628  1.0000
  C   C4        1.0  0.44930  0.31180  0.86372  1.0000
  C   C5        1.0  0.38834  0.22080  0.31555  1.0000
  C   C6        1.0  0.61166  0.72080  0.18445  1.0000
  C   C7        1.0  0.61166  0.77920  0.68445  1.0000
  C   C8        1.0  0.38834  0.27920  0.81555  1.0000
  C   C9        1.0  0.42830  0.60140  0.36260  1.0000
  C   C10       1.0  0.57170  0.10140  0.13740  1.0000
  C   C11       1.0  0.57170  0.39860  0.63740  1.0000
  C   C12       1.0  0.42830  0.89860  0.86260  1.0000
  C   C13       1.0  0.39718  0.62850  0.28389  1.0000
  C   C14       1.0  0.60282  0.12850  0.21611  1.0000
  C   C15       1.0  0.60282  0.37150  0.71611  1.0000
  C   C16       1.0  0.39718  0.87150  0.78389  1.0000
  C   C17       1.0  0.54582  0.45360  0.25139  1.0000
  C   C18       1.0  0.45418  0.95360  0.24861  1.0000
  C   C19       1.0  0.45418  0.54640  0.74861  1.0000
  C   C20       1.0  0.54582  0.04640  0.75139  1.0000
  C   C21       1.0  0.50438  0.36930  0.19365  1.0000
  C   C22       1.0  0.49562  0.86930  0.30635  1.0000
  C   C23       1.0  0.49562  0.63070  0.80635  1.0000
  C   C24       1.0  0.50438  0.13070  0.69365  1.0000
  C   C25       1.0  0.26975  0.75910  0.40829  1.0000
  C   C26       1.0  0.73025  0.25910  0.09171  1.0000
  C   C27       1.0  0.73025  0.24090  0.59171  1.0000
  C   C28       1.0  0.26975  0.74090  0.90829  1.0000
  C   C29       1.0  0.26653  0.89660  0.43178  1.0000
  C   C30       1.0  0.73347  0.39660  0.06822  1.0000
  C   C31       1.0  0.73347  0.10340  0.56822  1.0000
  C   C32       1.0  0.26653  0.60340  0.93178  1.0000
  C   C33       1.0  0.17496  0.72380  0.57216  1.0000
  C   C34       1.0  0.82504  0.22380  0.92784  1.0000
  C   C35       1.0  0.82504  0.27620  0.42784  1.0000
  C   C36       1.0  0.17496  0.77620  0.07216  1.0000
  C   C37       1.0  0.11935  0.79210  0.53098  1.0000
  C   C38       1.0  0.88065  0.29210  0.96902  1.0000
  C   C39       1.0  0.88065  0.20790  0.46902  1.0000
  C   C40       1.0  0.11935  0.70790  0.03098  1.0000
  C   C41       1.0  0.07280  0.67670  0.34795  1.0000
  C   C42       1.0  0.92720  0.17670  0.15205  1.0000
  C   C43       1.0  0.92720  0.32330  0.65205  1.0000
  C   C44       1.0  0.07280  0.82330  0.84795  1.0000
  C   C45       1.0  0.07766  0.81330  0.32444  1.0000
  C   C46       1.0  0.92234  0.31330  0.17556  1.0000
  C   C47       1.0  0.92234  0.18670  0.67556  1.0000
  C   C48       1.0  0.07766  0.68670  0.82444  1.0000
