data_image0
_chemical_formula_structural       U4P12O8H4O16H4O8H4O12C8H4C8H4C8H4C4H8C4H8C4H8
_chemical_formula_sum              "U4 P12 O44 H48 C36"
_cell_length_a       11.3603
_cell_length_b       11.2718
_cell_length_c       17.118
_cell_angle_alpha    90
_cell_angle_beta     96.335
_cell_angle_gamma    90

_space_group_name_H-M_alt    "P 1"
_space_group_IT_number       1

loop_
  _space_group_symop_operation_xyz
  'x, y, z'

loop_
  _atom_site_type_symbol
  _atom_site_label
  _atom_site_symmetry_multiplicity
  _atom_site_fract_x
  _atom_site_fract_y
  _atom_site_fract_z
  _atom_site_occupancy
  U   U1        1.0  0.45089  0.23588  0.69070  1.0000
  U   U2        1.0  0.54911  0.73588  0.80930  1.0000
  U   U3        1.0  0.54911  0.76412  0.30930  1.0000
  U   U4        1.0  0.45089  0.26412  0.19070  1.0000
  P   P1        1.0  0.87132  0.76548  0.36266  1.0000
  P   P2        1.0  0.12868  0.26548  0.13734  1.0000
  P   P3        1.0  0.12868  0.23452  0.63734  1.0000
  P   P4        1.0  0.87132  0.73452  0.86266  1.0000
  P   P5        1.0  0.35310  0.92393  0.67151  1.0000
  P   P6        1.0  0.64690  0.42393  0.82849  1.0000
  P   P7        1.0  0.64690  0.07607  0.32849  1.0000
  P   P8        1.0  0.35310  0.57607  0.17151  1.0000
  P   P9        1.0  0.31059  0.98700  0.25036  1.0000
  P   P10       1.0  0.68941  0.48700  0.24964  1.0000
  P   P11       1.0  0.68941  0.01300  0.74964  1.0000
  P   P12       1.0  0.31059  0.51300  0.75036  1.0000
  O   O1        1.0  0.93280  0.65060  0.34940  1.0000
  O   O2        1.0  0.06720  0.15060  0.15060  1.0000
  O   O3        1.0  0.06720  0.34940  0.65060  1.0000
  O   O4        1.0  0.93280  0.84940  0.84940  1.0000
  O   O5        1.0  0.88510  0.84340  0.28700  1.0000
  O   O6        1.0  0.11490  0.34340  0.21300  1.0000
  O   O7        1.0  0.11490  0.15660  0.71300  1.0000
  O   O8        1.0  0.88510  0.65660  0.78700  1.0000
  H   H1        1.0  0.85460  0.91040  0.29210  1.0000
  H   H2        1.0  0.14540  0.41040  0.20790  1.0000
  H   H3        1.0  0.14540  0.08960  0.70790  1.0000
  H   H4        1.0  0.85460  0.58960  0.79210  1.0000
  O   O9        1.0  0.74320  0.75940  0.37650  1.0000
  O   O10       1.0  0.25680  0.25940  0.12350  1.0000
  O   O11       1.0  0.25680  0.24060  0.62350  1.0000
  O   O12       1.0  0.74320  0.74060  0.87650  1.0000
  O   O13       1.0  0.40940  0.86490  0.74450  1.0000
  O   O14       1.0  0.59060  0.36490  0.75550  1.0000
  O   O15       1.0  0.59060  0.13510  0.25550  1.0000
  O   O16       1.0  0.40940  0.63510  0.24450  1.0000
  O   O17       1.0  0.40760  0.03790  0.64900  1.0000
  O   O18       1.0  0.59240  0.53790  0.85100  1.0000
  O   O19       1.0  0.59240  0.96210  0.35100  1.0000
  O   O20       1.0  0.40760  0.46210  0.14900  1.0000
  O   O21       1.0  0.21970  0.95030  0.68300  1.0000
  O   O22       1.0  0.78030  0.45030  0.81700  1.0000
  O   O23       1.0  0.78030  0.04970  0.31700  1.0000
  O   O24       1.0  0.21970  0.54970  0.18300  1.0000
  H   H5        1.0  0.18620  0.88700  0.69400  1.0000
  H   H6        1.0  0.81380  0.38700  0.80600  1.0000
  H   H7        1.0  0.81380  0.11300  0.30600  1.0000
  H   H8        1.0  0.18620  0.61300  0.19400  1.0000
  O   O25       1.0  0.36880  0.07110  0.19930  1.0000
  O   O26       1.0  0.63120  0.57110  0.30070  1.0000
  O   O27       1.0  0.63120  0.92890  0.80070  1.0000
  O   O28       1.0  0.36880  0.42890  0.69930  1.0000
  O   O29       1.0  0.18310  0.95540  0.20730  1.0000
  O   O30       1.0  0.81690  0.45540  0.29270  1.0000
  O   O31       1.0  0.81690  0.04460  0.79270  1.0000
  O   O32       1.0  0.18310  0.54460  0.70730  1.0000
  H   H9        1.0  0.14900  0.01790  0.19050  1.0000
  H   H10       1.0  0.85100  0.51790  0.30950  1.0000
  H   H11       1.0  0.85100  0.98210  0.80950  1.0000
  H   H12       1.0  0.14900  0.48210  0.69050  1.0000
  O   O33       1.0  0.37210  0.87090  0.26790  1.0000
  O   O34       1.0  0.62790  0.37090  0.23210  1.0000
  O   O35       1.0  0.62790  0.12910  0.73210  1.0000
  O   O36       1.0  0.37210  0.62910  0.76790  1.0000
  O   O37       1.0  0.50320  0.27100  0.59950  1.0000
  O   O38       1.0  0.49680  0.77100  0.90050  1.0000
  O   O39       1.0  0.49680  0.72900  0.40050  1.0000
  O   O40       1.0  0.50320  0.22900  0.09950  1.0000
  O   O41       1.0  0.39590  0.20010  0.78050  1.0000
  O   O42       1.0  0.60410  0.70010  0.71950  1.0000
  O   O43       1.0  0.60410  0.79990  0.21950  1.0000
  O   O44       1.0  0.39590  0.29990  0.28050  1.0000
  C   C1        1.0  0.07110  0.87590  0.44910  1.0000
  C   C2        1.0  0.92890  0.37590  0.05090  1.0000
  C   C3        1.0  0.92890  0.12410  0.55090  1.0000
  C   C4        1.0  0.07110  0.62410  0.94910  1.0000
  C   C5        1.0  0.14890  0.83330  0.51070  1.0000
  C   C6        1.0  0.85110  0.33330  0.98930  1.0000
  C   C7        1.0  0.85110  0.16670  0.48930  1.0000
  C   C8        1.0  0.14890  0.66670  0.01070  1.0000
  H   H13       1.0  0.11970  0.78260  0.54860  1.0000
  H   H14       1.0  0.88030  0.28260  0.95140  1.0000
  H   H15       1.0  0.88030  0.21740  0.45140  1.0000
  H   H16       1.0  0.11970  0.71740  0.04860  1.0000
  C   C9        1.0  0.26830  0.86250  0.51870  1.0000
  C   C10       1.0  0.73170  0.36250  0.98130  1.0000
  C   C11       1.0  0.73170  0.13750  0.48130  1.0000
  C   C12       1.0  0.26830  0.63750  0.01870  1.0000
  C   C13       1.0  0.31130  0.93370  0.46310  1.0000
  C   C14       1.0  0.68870  0.43370  0.03690  1.0000
  C   C15       1.0  0.68870  0.06630  0.53690  1.0000
  C   C16       1.0  0.31130  0.56630  0.96310  1.0000
  H   H17       1.0  0.39340  0.95190  0.46720  1.0000
  H   H18       1.0  0.60660  0.45190  0.03280  1.0000
  H   H19       1.0  0.60660  0.04810  0.53280  1.0000
  H   H20       1.0  0.39340  0.54810  0.96720  1.0000
  C   C17       1.0  0.23500  0.97950  0.40040  1.0000
  C   C18       1.0  0.76500  0.47950  0.09960  1.0000
  C   C19       1.0  0.76500  0.02050  0.59960  1.0000
  C   C20       1.0  0.23500  0.52050  0.90040  1.0000
  C   C21       1.0  0.11620  0.94890  0.39440  1.0000
  C   C22       1.0  0.88380  0.44890  0.10560  1.0000
  C   C23       1.0  0.88380  0.05110  0.60560  1.0000
  C   C24       1.0  0.11620  0.55110  0.89440  1.0000
  H   H21       1.0  0.06420  0.97870  0.35150  1.0000
  H   H22       1.0  0.93580  0.47870  0.14850  1.0000
  H   H23       1.0  0.93580  0.02130  0.64850  1.0000
  H   H24       1.0  0.06420  0.52130  0.85150  1.0000
  C   C25       1.0  0.94130  0.84740  0.44530  1.0000
  C   C26       1.0  0.05870  0.34740  0.05470  1.0000
  C   C27       1.0  0.05870  0.15260  0.55470  1.0000
  C   C28       1.0  0.94130  0.65260  0.94530  1.0000
  H   H25       1.0  0.89820  0.92340  0.44790  1.0000
  H   H26       1.0  0.10180  0.42340  0.05210  1.0000
  H   H27       1.0  0.10180  0.07660  0.55210  1.0000
  H   H28       1.0  0.89820  0.57660  0.94790  1.0000
  H   H29       1.0  0.92910  0.80240  0.49340  1.0000
  H   H30       1.0  0.07090  0.30240  0.00660  1.0000
  H   H31       1.0  0.07090  0.19760  0.50660  1.0000
  H   H32       1.0  0.92910  0.69760  0.99340  1.0000
  C   C29       1.0  0.34920  0.82140  0.59070  1.0000
  C   C30       1.0  0.65080  0.32140  0.90930  1.0000
  C   C31       1.0  0.65080  0.17860  0.40930  1.0000
  C   C32       1.0  0.34920  0.67860  0.09070  1.0000
  H   H33       1.0  0.43050  0.81110  0.57600  1.0000
  H   H34       1.0  0.56950  0.31110  0.92400  1.0000
  H   H35       1.0  0.56950  0.18890  0.42400  1.0000
  H   H36       1.0  0.43050  0.68890  0.07600  1.0000
  H   H37       1.0  0.32160  0.74320  0.60770  1.0000
  H   H38       1.0  0.67840  0.24320  0.89230  1.0000
  H   H39       1.0  0.67840  0.25680  0.39230  1.0000
  H   H40       1.0  0.32160  0.75680  0.10770  1.0000
  C   C33       1.0  0.28430  0.05970  0.34090  1.0000
  C   C34       1.0  0.71570  0.55970  0.15910  1.0000
  C   C35       1.0  0.71570  0.94030  0.65910  1.0000
  C   C36       1.0  0.28430  0.44030  0.84090  1.0000
  H   H41       1.0  0.35980  0.09410  0.36520  1.0000
  H   H42       1.0  0.64020  0.59410  0.13480  1.0000
  H   H43       1.0  0.64020  0.90590  0.63480  1.0000
  H   H44       1.0  0.35980  0.40590  0.86520  1.0000
  H   H45       1.0  0.22820  0.12600  0.32840  1.0000
  H   H46       1.0  0.77180  0.62600  0.17160  1.0000
  H   H47       1.0  0.77180  0.87400  0.67160  1.0000
  H   H48       1.0  0.22820  0.37400  0.82840  1.0000
