data_image0
_chemical_formula_structural       C8N8Fe8N16C8N32C8N8C16N8C8
_chemical_formula_sum              "C48 N72 Fe8"
_cell_length_a       16.1494
_cell_length_b       16.1494
_cell_length_c       17.2252
_cell_angle_alpha    90
_cell_angle_beta     90
_cell_angle_gamma    90

_space_group_name_H-M_alt    "P 1"
_space_group_IT_number       1

loop_
  _space_group_symop_operation_xyz
  'x, y, z'

loop_
  _atom_site_type_symbol
  _atom_site_label
  _atom_site_symmetry_multiplicity
  _atom_site_fract_x
  _atom_site_fract_y
  _atom_site_fract_z
  _atom_site_occupancy
  C   C1        1.0  0.76990  0.22780  0.03760  1.0000
  C   C2        1.0  0.23010  0.77220  0.03760  1.0000
  C   C3        1.0  0.22780  0.23010  0.96240  1.0000
  C   C4        1.0  0.77220  0.76990  0.96240  1.0000
  C   C5        1.0  0.73010  0.72780  0.46240  1.0000
  C   C6        1.0  0.26990  0.27220  0.46240  1.0000
  C   C7        1.0  0.27220  0.73010  0.53760  1.0000
  C   C8        1.0  0.72780  0.26990  0.53760  1.0000
  N   N1        1.0  0.81550  0.21240  0.97710  1.0000
  N   N2        1.0  0.18450  0.78760  0.97710  1.0000
  N   N3        1.0  0.21240  0.18450  0.02290  1.0000
  N   N4        1.0  0.78760  0.81550  0.02290  1.0000
  N   N5        1.0  0.68450  0.71240  0.52290  1.0000
  N   N6        1.0  0.31550  0.28760  0.52290  1.0000
  N   N7        1.0  0.28760  0.68450  0.47710  1.0000
  N   N8        1.0  0.71240  0.31550  0.47710  1.0000
  Fe  Fe1       1.0  0.72656  0.25681  0.21825  1.0000
  Fe  Fe2       1.0  0.27344  0.74319  0.21825  1.0000
  Fe  Fe3       1.0  0.25681  0.27344  0.78175  1.0000
  Fe  Fe4       1.0  0.74319  0.72656  0.78175  1.0000
  Fe  Fe5       1.0  0.77344  0.75681  0.28175  1.0000
  Fe  Fe6       1.0  0.22656  0.24319  0.28175  1.0000
  Fe  Fe7       1.0  0.24319  0.77344  0.71825  1.0000
  Fe  Fe8       1.0  0.75681  0.22656  0.71825  1.0000
  N   N9        1.0  0.77440  0.21890  0.84240  1.0000
  N   N10       1.0  0.22560  0.78110  0.84240  1.0000
  N   N11       1.0  0.21890  0.22560  0.15760  1.0000
  N   N12       1.0  0.78110  0.77440  0.15760  1.0000
  N   N13       1.0  0.72560  0.71890  0.65760  1.0000
  N   N14       1.0  0.27440  0.28110  0.65760  1.0000
  N   N15       1.0  0.28110  0.72560  0.34240  1.0000
  N   N16       1.0  0.71890  0.27440  0.34240  1.0000
  N   N17       1.0  0.79180  0.37520  0.20940  1.0000
  N   N18       1.0  0.20820  0.62480  0.20940  1.0000
  N   N19       1.0  0.37520  0.20820  0.79060  1.0000
  N   N20       1.0  0.62480  0.79180  0.79060  1.0000
  N   N21       1.0  0.70820  0.87520  0.29060  1.0000
  N   N22       1.0  0.29180  0.12480  0.29060  1.0000
  N   N23       1.0  0.12480  0.70820  0.70940  1.0000
  N   N24       1.0  0.87520  0.29180  0.70940  1.0000
  C   C9        1.0  0.04320  0.15800  0.28040  1.0000
  C   C10       1.0  0.95680  0.84200  0.28040  1.0000
  C   C11       1.0  0.15800  0.95680  0.71960  1.0000
  C   C12       1.0  0.84200  0.04320  0.71960  1.0000
  C   C13       1.0  0.45680  0.65800  0.21960  1.0000
  C   C14       1.0  0.54320  0.34200  0.21960  1.0000
  C   C15       1.0  0.34200  0.45680  0.78040  1.0000
  C   C16       1.0  0.65800  0.54320  0.78040  1.0000
  N   N25       1.0  0.83480  0.63710  0.26820  1.0000
  N   N26       1.0  0.16520  0.36290  0.26820  1.0000
  N   N27       1.0  0.63710  0.16520  0.73180  1.0000
  N   N28       1.0  0.36290  0.83480  0.73180  1.0000
  N   N29       1.0  0.66520  0.13710  0.23180  1.0000
  N   N30       1.0  0.33480  0.86290  0.23180  1.0000
  N   N31       1.0  0.86290  0.66520  0.76820  1.0000
  N   N32       1.0  0.13710  0.33480  0.76820  1.0000
  N   N33       1.0  0.10880  0.18170  0.29260  1.0000
  N   N34       1.0  0.89120  0.81830  0.29260  1.0000
  N   N35       1.0  0.18170  0.89120  0.70740  1.0000
  N   N36       1.0  0.81830  0.10880  0.70740  1.0000
  N   N37       1.0  0.39120  0.68170  0.20740  1.0000
  N   N38       1.0  0.60880  0.31830  0.20740  1.0000
  N   N39       1.0  0.31830  0.39120  0.79260  1.0000
  N   N40       1.0  0.68170  0.60880  0.79260  1.0000
  N   N41       1.0  0.73960  0.24040  0.09570  1.0000
  N   N42       1.0  0.26040  0.75960  0.09570  1.0000
  N   N43       1.0  0.24040  0.26040  0.90430  1.0000
  N   N44       1.0  0.75960  0.73960  0.90430  1.0000
  N   N45       1.0  0.76040  0.74040  0.40430  1.0000
  N   N46       1.0  0.23960  0.25960  0.40430  1.0000
  N   N47       1.0  0.25960  0.76040  0.59570  1.0000
  N   N48       1.0  0.74040  0.23960  0.59570  1.0000
  N   N49       1.0  0.84420  0.19470  0.23450  1.0000
  N   N50       1.0  0.15580  0.80530  0.23450  1.0000
  N   N51       1.0  0.19470  0.15580  0.76550  1.0000
  N   N52       1.0  0.80530  0.84420  0.76550  1.0000
  N   N53       1.0  0.65580  0.69470  0.26550  1.0000
  N   N54       1.0  0.34420  0.30530  0.26550  1.0000
  N   N55       1.0  0.30530  0.65580  0.73450  1.0000
  N   N56       1.0  0.69470  0.34420  0.73450  1.0000
  C   C17       1.0  0.90590  0.16490  0.25050  1.0000
  C   C18       1.0  0.09410  0.83510  0.25050  1.0000
  C   C19       1.0  0.16490  0.09410  0.74950  1.0000
  C   C20       1.0  0.83510  0.90590  0.74950  1.0000
  C   C21       1.0  0.59410  0.66490  0.24950  1.0000
  C   C22       1.0  0.40590  0.33510  0.24950  1.0000
  C   C23       1.0  0.33510  0.59410  0.75050  1.0000
  C   C24       1.0  0.66490  0.40590  0.75050  1.0000
  N   N57       1.0  0.97220  0.12280  0.27030  1.0000
  N   N58       1.0  0.02780  0.87720  0.27030  1.0000
  N   N59       1.0  0.12280  0.02780  0.72970  1.0000
  N   N60       1.0  0.87720  0.97220  0.72970  1.0000
  N   N61       1.0  0.52780  0.62280  0.22970  1.0000
  N   N62       1.0  0.47220  0.37720  0.22970  1.0000
  N   N63       1.0  0.37720  0.52780  0.77030  1.0000
  N   N64       1.0  0.62280  0.47220  0.77030  1.0000
  C   C25       1.0  0.82670  0.43630  0.21640  1.0000
  C   C26       1.0  0.17330  0.56370  0.21640  1.0000
  C   C27       1.0  0.43630  0.17330  0.78360  1.0000
  C   C28       1.0  0.56370  0.82670  0.78360  1.0000
  C   C29       1.0  0.67330  0.93630  0.28360  1.0000
  C   C30       1.0  0.32670  0.06370  0.28360  1.0000
  C   C31       1.0  0.06370  0.67330  0.71640  1.0000
  C   C32       1.0  0.93630  0.32670  0.71640  1.0000
  C   C33       1.0  0.84890  0.57170  0.24760  1.0000
  C   C34       1.0  0.15110  0.42830  0.24760  1.0000
  C   C35       1.0  0.57170  0.15110  0.75240  1.0000
  C   C36       1.0  0.42830  0.84890  0.75240  1.0000
  C   C37       1.0  0.65110  0.07170  0.25240  1.0000
  C   C38       1.0  0.34890  0.92830  0.25240  1.0000
  C   C39       1.0  0.92830  0.65110  0.74760  1.0000
  C   C40       1.0  0.07170  0.34890  0.74760  1.0000
  N   N65       1.0  0.87410  0.50140  0.22080  1.0000
  N   N66       1.0  0.12590  0.49860  0.22080  1.0000
  N   N67       1.0  0.50140  0.12590  0.77920  1.0000
  N   N68       1.0  0.49860  0.87410  0.77920  1.0000
  N   N69       1.0  0.62590  0.00140  0.27920  1.0000
  N   N70       1.0  0.37410  0.99860  0.27920  1.0000
  N   N71       1.0  0.99860  0.62590  0.72080  1.0000
  N   N72       1.0  0.00140  0.37410  0.72080  1.0000
  C   C41       1.0  0.78830  0.21790  0.90680  1.0000
  C   C42       1.0  0.21170  0.78210  0.90680  1.0000
  C   C43       1.0  0.21790  0.21170  0.09320  1.0000
  C   C44       1.0  0.78210  0.78830  0.09320  1.0000
  C   C45       1.0  0.71170  0.71790  0.59320  1.0000
  C   C46       1.0  0.28830  0.28210  0.59320  1.0000
  C   C47       1.0  0.28210  0.71170  0.40680  1.0000
  C   C48       1.0  0.71790  0.28830  0.40680  1.0000
