data_image0
_chemical_formula_structural       C96Cl32N16O32Zn16H64
_chemical_formula_sum              "C96 Cl32 N16 O32 Zn16 H64"
_cell_length_a       11.332
_cell_length_b       50.73
_cell_length_c       9.001
_cell_angle_alpha    90
_cell_angle_beta     90
_cell_angle_gamma    90

_space_group_name_H-M_alt    "P 1"
_space_group_IT_number       1

loop_
  _space_group_symop_operation_xyz
  'x, y, z'

loop_
  _atom_site_type_symbol
  _atom_site_label
  _atom_site_symmetry_multiplicity
  _atom_site_fract_x
  _atom_site_fract_y
  _atom_site_fract_z
  _atom_site_occupancy
  C   C1        1.0  0.33550  0.15480  0.35430  1.0000
  C   C2        1.0  0.66450  0.84520  0.35430  1.0000
  C   C3        1.0  0.58550  0.09520  0.60430  1.0000
  C   C4        1.0  0.91450  0.40480  0.60430  1.0000
  C   C5        1.0  0.33550  0.65480  0.85430  1.0000
  C   C6        1.0  0.66450  0.34520  0.85430  1.0000
  C   C7        1.0  0.58550  0.59520  0.10430  1.0000
  C   C8        1.0  0.91450  0.90480  0.10430  1.0000
  C   C9        1.0  0.83550  0.15480  0.85430  1.0000
  C   C10       1.0  0.16450  0.84520  0.85430  1.0000
  C   C11       1.0  0.08550  0.09520  0.10430  1.0000
  C   C12       1.0  0.41450  0.40480  0.10430  1.0000
  C   C13       1.0  0.83550  0.65480  0.35430  1.0000
  C   C14       1.0  0.16450  0.34520  0.35430  1.0000
  C   C15       1.0  0.08550  0.59520  0.60430  1.0000
  C   C16       1.0  0.41450  0.90480  0.60430  1.0000
  C   C17       1.0  0.37470  0.13661  0.25080  1.0000
  C   C18       1.0  0.62530  0.86339  0.25080  1.0000
  C   C19       1.0  0.62470  0.11339  0.50080  1.0000
  C   C20       1.0  0.87530  0.38661  0.50080  1.0000
  C   C21       1.0  0.37470  0.63661  0.75080  1.0000
  C   C22       1.0  0.62530  0.36339  0.75080  1.0000
  C   C23       1.0  0.62470  0.61339  0.00080  1.0000
  C   C24       1.0  0.87530  0.88661  0.00080  1.0000
  C   C25       1.0  0.87470  0.13661  0.75080  1.0000
  C   C26       1.0  0.12530  0.86339  0.75080  1.0000
  C   C27       1.0  0.12470  0.11339  0.00080  1.0000
  C   C28       1.0  0.37530  0.38661  0.00080  1.0000
  C   C29       1.0  0.87470  0.63661  0.25080  1.0000
  C   C30       1.0  0.12530  0.36339  0.25080  1.0000
  C   C31       1.0  0.12470  0.61339  0.50080  1.0000
  C   C32       1.0  0.37530  0.88661  0.50080  1.0000
  C   C33       1.0  0.35670  0.11016  0.27610  1.0000
  C   C34       1.0  0.64330  0.88984  0.27610  1.0000
  C   C35       1.0  0.60670  0.13984  0.52610  1.0000
  C   C36       1.0  0.89330  0.36016  0.52610  1.0000
  C   C37       1.0  0.35670  0.61016  0.77610  1.0000
  C   C38       1.0  0.64330  0.38984  0.77610  1.0000
  C   C39       1.0  0.60670  0.63984  0.02610  1.0000
  C   C40       1.0  0.89330  0.86016  0.02610  1.0000
  C   C41       1.0  0.85670  0.11016  0.77610  1.0000
  C   C42       1.0  0.14330  0.88984  0.77610  1.0000
  C   C43       1.0  0.10670  0.13984  0.02610  1.0000
  C   C44       1.0  0.39330  0.36016  0.02610  1.0000
  C   C45       1.0  0.85670  0.61016  0.27610  1.0000
  C   C46       1.0  0.14330  0.38984  0.27610  1.0000
  C   C47       1.0  0.10670  0.63984  0.52610  1.0000
  C   C48       1.0  0.39330  0.86016  0.52610  1.0000
  C   C49       1.0  0.39440  0.08943  0.16600  1.0000
  C   C50       1.0  0.60560  0.91057  0.16600  1.0000
  C   C51       1.0  0.64440  0.16057  0.41600  1.0000
  C   C52       1.0  0.85560  0.33943  0.41600  1.0000
  C   C53       1.0  0.39440  0.58943  0.66600  1.0000
  C   C54       1.0  0.60560  0.41057  0.66600  1.0000
  C   C55       1.0  0.64440  0.66057  0.91600  1.0000
  C   C56       1.0  0.85560  0.83943  0.91600  1.0000
  C   C57       1.0  0.89440  0.08943  0.66600  1.0000
  C   C58       1.0  0.10560  0.91057  0.66600  1.0000
  C   C59       1.0  0.14440  0.16057  0.91600  1.0000
  C   C60       1.0  0.35560  0.33943  0.91600  1.0000
  C   C61       1.0  0.89440  0.58943  0.16600  1.0000
  C   C62       1.0  0.10560  0.41057  0.16600  1.0000
  C   C63       1.0  0.14440  0.66057  0.41600  1.0000
  C   C64       1.0  0.35560  0.83943  0.41600  1.0000
  C   C65       1.0  0.29940  0.10270  0.40590  1.0000
  C   C66       1.0  0.70060  0.89730  0.40590  1.0000
  C   C67       1.0  0.54940  0.14730  0.65590  1.0000
  C   C68       1.0  0.95060  0.35270  0.65590  1.0000
  C   C69       1.0  0.29940  0.60270  0.90590  1.0000
  C   C70       1.0  0.70060  0.39730  0.90590  1.0000
  C   C71       1.0  0.54940  0.64730  0.15590  1.0000
  C   C72       1.0  0.95060  0.85270  0.15590  1.0000
  C   C73       1.0  0.79940  0.10270  0.90590  1.0000
  C   C74       1.0  0.20060  0.89730  0.90590  1.0000
  C   C75       1.0  0.04940  0.14730  0.15590  1.0000
  C   C76       1.0  0.45060  0.35270  0.15590  1.0000
  C   C77       1.0  0.79940  0.60270  0.40590  1.0000
  C   C78       1.0  0.20060  0.39730  0.40590  1.0000
  C   C79       1.0  0.04940  0.64730  0.65590  1.0000
  C   C80       1.0  0.45060  0.85270  0.65590  1.0000
  C   C81       1.0  0.26270  0.12213  0.50390  1.0000
  C   C82       1.0  0.73730  0.87787  0.50390  1.0000
  C   C83       1.0  0.51270  0.12787  0.75390  1.0000
  C   C84       1.0  0.98730  0.37213  0.75390  1.0000
  C   C85       1.0  0.26270  0.62213  0.00390  1.0000
  C   C86       1.0  0.73730  0.37787  0.00390  1.0000
  C   C87       1.0  0.51270  0.62787  0.25390  1.0000
  C   C88       1.0  0.98730  0.87213  0.25390  1.0000
  C   C89       1.0  0.76270  0.12213  0.00390  1.0000
  C   C90       1.0  0.23730  0.87787  0.00390  1.0000
  C   C91       1.0  0.01270  0.12787  0.25390  1.0000
  C   C92       1.0  0.48730  0.37213  0.25390  1.0000
  C   C93       1.0  0.76270  0.62213  0.50390  1.0000
  C   C94       1.0  0.23730  0.37787  0.50390  1.0000
  C   C95       1.0  0.01270  0.62787  0.75390  1.0000
  C   C96       1.0  0.48730  0.87213  0.75390  1.0000
  Cl  Cl1       1.0  0.03988  0.18695  0.51484  1.0000
  Cl  Cl2       1.0  0.96012  0.81305  0.51484  1.0000
  Cl  Cl3       1.0  0.28988  0.06305  0.76484  1.0000
  Cl  Cl4       1.0  0.21012  0.43695  0.76484  1.0000
  Cl  Cl5       1.0  0.03988  0.68695  0.01484  1.0000
  Cl  Cl6       1.0  0.96012  0.31305  0.01484  1.0000
  Cl  Cl7       1.0  0.28988  0.56305  0.26484  1.0000
  Cl  Cl8       1.0  0.21012  0.93695  0.26484  1.0000
  Cl  Cl9       1.0  0.53988  0.18695  0.01484  1.0000
  Cl  Cl10      1.0  0.46012  0.81305  0.01484  1.0000
  Cl  Cl11      1.0  0.78988  0.06305  0.26484  1.0000
  Cl  Cl12      1.0  0.71012  0.43695  0.26484  1.0000
  Cl  Cl13      1.0  0.53988  0.68695  0.51484  1.0000
  Cl  Cl14      1.0  0.46012  0.31305  0.51484  1.0000
  Cl  Cl15      1.0  0.78988  0.56305  0.76484  1.0000
  Cl  Cl16      1.0  0.71012  0.93695  0.76484  1.0000
  Cl  Cl17      1.0  0.34190  0.20682  0.65898  1.0000
  Cl  Cl18      1.0  0.65810  0.79318  0.65898  1.0000
  Cl  Cl19      1.0  0.59190  0.04318  0.90898  1.0000
  Cl  Cl20      1.0  0.90810  0.45682  0.90898  1.0000
  Cl  Cl21      1.0  0.34190  0.70682  0.15898  1.0000
  Cl  Cl22      1.0  0.65810  0.29318  0.15898  1.0000
  Cl  Cl23      1.0  0.59190  0.54318  0.40898  1.0000
  Cl  Cl24      1.0  0.90810  0.95682  0.40898  1.0000
  Cl  Cl25      1.0  0.84190  0.20682  0.15898  1.0000
  Cl  Cl26      1.0  0.15810  0.79318  0.15898  1.0000
  Cl  Cl27      1.0  0.09190  0.04318  0.40898  1.0000
  Cl  Cl28      1.0  0.40810  0.45682  0.40898  1.0000
  Cl  Cl29      1.0  0.84190  0.70682  0.65898  1.0000
  Cl  Cl30      1.0  0.15810  0.29318  0.65898  1.0000
  Cl  Cl31      1.0  0.09190  0.54318  0.90898  1.0000
  Cl  Cl32      1.0  0.40810  0.95682  0.90898  1.0000
  N   N1        1.0  0.28050  0.14768  0.47870  1.0000
  N   N2        1.0  0.71950  0.85232  0.47870  1.0000
  N   N3        1.0  0.53050  0.10232  0.72870  1.0000
  N   N4        1.0  0.96950  0.39768  0.72870  1.0000
  N   N5        1.0  0.28050  0.64768  0.97870  1.0000
  N   N6        1.0  0.71950  0.35232  0.97870  1.0000
  N   N7        1.0  0.53050  0.60232  0.22870  1.0000
  N   N8        1.0  0.96950  0.89768  0.22870  1.0000
  N   N9        1.0  0.78050  0.14768  0.97870  1.0000
  N   N10       1.0  0.21950  0.85232  0.97870  1.0000
  N   N11       1.0  0.03050  0.10232  0.22870  1.0000
  N   N12       1.0  0.46950  0.39768  0.22870  1.0000
  N   N13       1.0  0.78050  0.64768  0.47870  1.0000
  N   N14       1.0  0.21950  0.35232  0.47870  1.0000
  N   N15       1.0  0.03050  0.60232  0.72870  1.0000
  N   N16       1.0  0.46950  0.89768  0.72870  1.0000
  O   O1        1.0  0.38540  0.06616  0.19930  1.0000
  O   O2        1.0  0.61460  0.93384  0.19930  1.0000
  O   O3        1.0  0.63540  0.18384  0.44930  1.0000
  O   O4        1.0  0.86460  0.31616  0.44930  1.0000
  O   O5        1.0  0.38540  0.56616  0.69930  1.0000
  O   O6        1.0  0.61460  0.43384  0.69930  1.0000
  O   O7        1.0  0.63540  0.68384  0.94930  1.0000
  O   O8        1.0  0.86460  0.81616  0.94930  1.0000
  O   O9        1.0  0.88540  0.06616  0.69930  1.0000
  O   O10       1.0  0.11460  0.93384  0.69930  1.0000
  O   O11       1.0  0.13540  0.18384  0.94930  1.0000
  O   O12       1.0  0.36460  0.31616  0.94930  1.0000
  O   O13       1.0  0.88540  0.56616  0.19930  1.0000
  O   O14       1.0  0.11460  0.43384  0.19930  1.0000
  O   O15       1.0  0.13540  0.68384  0.44930  1.0000
  O   O16       1.0  0.36460  0.81616  0.44930  1.0000
  O   O17       1.0  0.42960  0.09813  0.04180  1.0000
  O   O18       1.0  0.57040  0.90187  0.04180  1.0000
  O   O19       1.0  0.67960  0.15187  0.29180  1.0000
  O   O20       1.0  0.82040  0.34813  0.29180  1.0000
  O   O21       1.0  0.42960  0.59813  0.54180  1.0000
  O   O22       1.0  0.57040  0.40187  0.54180  1.0000
  O   O23       1.0  0.67960  0.65187  0.79180  1.0000
  O   O24       1.0  0.82040  0.84813  0.79180  1.0000
  O   O25       1.0  0.92960  0.09813  0.54180  1.0000
  O   O26       1.0  0.07040  0.90187  0.54180  1.0000
  O   O27       1.0  0.17960  0.15187  0.79180  1.0000
  O   O28       1.0  0.32040  0.34813  0.79180  1.0000
  O   O29       1.0  0.92960  0.59813  0.04180  1.0000
  O   O30       1.0  0.07040  0.40187  0.04180  1.0000
  O   O31       1.0  0.17960  0.65187  0.29180  1.0000
  O   O32       1.0  0.32040  0.84813  0.29180  1.0000
  Zn  Zn1       1.0  0.21056  0.17472  0.62187  1.0000
  Zn  Zn2       1.0  0.78944  0.82528  0.62187  1.0000
  Zn  Zn3       1.0  0.46056  0.07528  0.87187  1.0000
  Zn  Zn4       1.0  0.03944  0.42472  0.87187  1.0000
  Zn  Zn5       1.0  0.21056  0.67472  0.12187  1.0000
  Zn  Zn6       1.0  0.78944  0.32528  0.12187  1.0000
  Zn  Zn7       1.0  0.46056  0.57528  0.37187  1.0000
  Zn  Zn8       1.0  0.03944  0.92472  0.37187  1.0000
  Zn  Zn9       1.0  0.71056  0.17472  0.12187  1.0000
  Zn  Zn10      1.0  0.28944  0.82528  0.12187  1.0000
  Zn  Zn11      1.0  0.96056  0.07528  0.37187  1.0000
  Zn  Zn12      1.0  0.53944  0.42472  0.37187  1.0000
  Zn  Zn13      1.0  0.71056  0.67472  0.62187  1.0000
  Zn  Zn14      1.0  0.28944  0.32528  0.62187  1.0000
  Zn  Zn15      1.0  0.96056  0.57528  0.87187  1.0000
  Zn  Zn16      1.0  0.53944  0.92472  0.87187  1.0000
  H   H1        1.0  0.34810  0.17260  0.33620  1.0000
  H   H2        1.0  0.65190  0.82740  0.33620  1.0000
  H   H3        1.0  0.59810  0.07740  0.58620  1.0000
  H   H4        1.0  0.90190  0.42260  0.58620  1.0000
  H   H5        1.0  0.34810  0.67260  0.83620  1.0000
  H   H6        1.0  0.65190  0.32740  0.83620  1.0000
  H   H7        1.0  0.59810  0.57740  0.08620  1.0000
  H   H8        1.0  0.90190  0.92260  0.08620  1.0000
  H   H9        1.0  0.84810  0.17260  0.83620  1.0000
  H   H10       1.0  0.15190  0.82740  0.83620  1.0000
  H   H11       1.0  0.09810  0.07740  0.08620  1.0000
  H   H12       1.0  0.40190  0.42260  0.08620  1.0000
  H   H13       1.0  0.84810  0.67260  0.33620  1.0000
  H   H14       1.0  0.15190  0.32740  0.33620  1.0000
  H   H15       1.0  0.09810  0.57740  0.58620  1.0000
  H   H16       1.0  0.40190  0.92260  0.58620  1.0000
  H   H17       1.0  0.41290  0.14220  0.16500  1.0000
  H   H18       1.0  0.58710  0.85780  0.16500  1.0000
  H   H19       1.0  0.66290  0.10780  0.41500  1.0000
  H   H20       1.0  0.83710  0.39220  0.41500  1.0000
  H   H21       1.0  0.41290  0.64220  0.66500  1.0000
  H   H22       1.0  0.58710  0.35780  0.66500  1.0000
  H   H23       1.0  0.66290  0.60780  0.91500  1.0000
  H   H24       1.0  0.83710  0.89220  0.91500  1.0000
  H   H25       1.0  0.91290  0.14220  0.66500  1.0000
  H   H26       1.0  0.08710  0.85780  0.66500  1.0000
  H   H27       1.0  0.16290  0.10780  0.91500  1.0000
  H   H28       1.0  0.33710  0.39220  0.91500  1.0000
  H   H29       1.0  0.91290  0.64220  0.16500  1.0000
  H   H30       1.0  0.08710  0.35780  0.16500  1.0000
  H   H31       1.0  0.16290  0.60780  0.41500  1.0000
  H   H32       1.0  0.33710  0.89220  0.41500  1.0000
  H   H33       1.0  0.28590  0.08500  0.42660  1.0000
  H   H34       1.0  0.71410  0.91500  0.42660  1.0000
  H   H35       1.0  0.53590  0.16500  0.67660  1.0000
  H   H36       1.0  0.96410  0.33500  0.67660  1.0000
  H   H37       1.0  0.28590  0.58500  0.92660  1.0000
  H   H38       1.0  0.71410  0.41500  0.92660  1.0000
  H   H39       1.0  0.53590  0.66500  0.17660  1.0000
  H   H40       1.0  0.96410  0.83500  0.17660  1.0000
  H   H41       1.0  0.78590  0.08500  0.92660  1.0000
  H   H42       1.0  0.21410  0.91500  0.92660  1.0000
  H   H43       1.0  0.03590  0.16500  0.17660  1.0000
  H   H44       1.0  0.46410  0.33500  0.17660  1.0000
  H   H45       1.0  0.78590  0.58500  0.42660  1.0000
  H   H46       1.0  0.21410  0.41500  0.42660  1.0000
  H   H47       1.0  0.03590  0.66500  0.67660  1.0000
  H   H48       1.0  0.46410  0.83500  0.67660  1.0000
  H   H49       1.0  0.22420  0.11710  0.59070  1.0000
  H   H50       1.0  0.77580  0.88290  0.59070  1.0000
  H   H51       1.0  0.47420  0.13290  0.84070  1.0000
  H   H52       1.0  0.02580  0.36710  0.84070  1.0000
  H   H53       1.0  0.22420  0.61710  0.09070  1.0000
  H   H54       1.0  0.77580  0.38290  0.09070  1.0000
  H   H55       1.0  0.47420  0.63290  0.34070  1.0000
  H   H56       1.0  0.02580  0.86710  0.34070  1.0000
  H   H57       1.0  0.72420  0.11710  0.09070  1.0000
  H   H58       1.0  0.27580  0.88290  0.09070  1.0000
  H   H59       1.0  0.97420  0.13290  0.34070  1.0000
  H   H60       1.0  0.52580  0.36710  0.34070  1.0000
  H   H61       1.0  0.72420  0.61710  0.59070  1.0000
  H   H62       1.0  0.27580  0.38290  0.59070  1.0000
  H   H63       1.0  0.97420  0.63290  0.84070  1.0000
  H   H64       1.0  0.52580  0.86710  0.84070  1.0000
