data_image0
_chemical_formula_structural       U8F24O48C24
_chemical_formula_sum              "U8 F24 O48 C24"
_cell_length_a       10.3309
_cell_length_b       15.5639
_cell_length_c       17.5369
_cell_angle_alpha    90
_cell_angle_beta     95.43
_cell_angle_gamma    90

_space_group_name_H-M_alt    "P 1"
_space_group_IT_number       1

loop_
  _space_group_symop_operation_xyz
  'x, y, z'

loop_
  _atom_site_type_symbol
  _atom_site_label
  _atom_site_symmetry_multiplicity
  _atom_site_fract_x
  _atom_site_fract_y
  _atom_site_fract_z
  _atom_site_occupancy
  U   U1        1.0  0.04131  0.23025  0.06662  1.0000
  U   U2        1.0  0.95869  0.73025  0.43338  1.0000
  U   U3        1.0  0.95869  0.76975  0.93338  1.0000
  U   U4        1.0  0.04131  0.26975  0.56662  1.0000
  U   U5        1.0  0.57295  0.26770  0.79876  1.0000
  U   U6        1.0  0.42705  0.76770  0.70124  1.0000
  U   U7        1.0  0.42705  0.73230  0.20124  1.0000
  U   U8        1.0  0.57295  0.23230  0.29876  1.0000
  F   F1        1.0  0.08660  0.09461  0.06500  1.0000
  F   F2        1.0  0.91340  0.59461  0.43500  1.0000
  F   F3        1.0  0.91340  0.90539  0.93500  1.0000
  F   F4        1.0  0.08660  0.40539  0.56500  1.0000
  F   F5        1.0  0.11480  0.35850  0.08028  1.0000
  F   F6        1.0  0.88520  0.85850  0.41972  1.0000
  F   F7        1.0  0.88520  0.64150  0.91972  1.0000
  F   F8        1.0  0.11480  0.14150  0.58028  1.0000
  F   F9        1.0  0.12850  0.24554  0.95760  1.0000
  F   F10       1.0  0.87150  0.74554  0.54240  1.0000
  F   F11       1.0  0.87150  0.75446  0.04240  1.0000
  F   F12       1.0  0.12850  0.25446  0.45760  1.0000
  F   F13       1.0  0.52110  0.40286  0.79883  1.0000
  F   F14       1.0  0.47890  0.90286  0.70117  1.0000
  F   F15       1.0  0.47890  0.59714  0.20117  1.0000
  F   F16       1.0  0.52110  0.09714  0.29883  1.0000
  F   F17       1.0  0.49650  0.25590  0.91177  1.0000
  F   F18       1.0  0.50350  0.75590  0.58823  1.0000
  F   F19       1.0  0.50350  0.74410  0.08823  1.0000
  F   F20       1.0  0.49650  0.24410  0.41177  1.0000
  F   F21       1.0  0.49610  0.13963  0.77734  1.0000
  F   F22       1.0  0.50390  0.63963  0.72266  1.0000
  F   F23       1.0  0.50390  0.86037  0.22266  1.0000
  F   F24       1.0  0.49610  0.36037  0.27734  1.0000
  O   O1        1.0  0.89010  0.32780  0.98600  1.0000
  O   O2        1.0  0.10990  0.82780  0.51400  1.0000
  O   O3        1.0  0.10990  0.67220  0.01400  1.0000
  O   O4        1.0  0.89010  0.17220  0.48600  1.0000
  O   O5        1.0  0.88300  0.15850  0.97100  1.0000
  O   O6        1.0  0.11700  0.65850  0.52900  1.0000
  O   O7        1.0  0.11700  0.84150  0.02900  1.0000
  O   O8        1.0  0.88300  0.34150  0.47100  1.0000
  O   O9        1.0  0.89140  0.31560  0.14523  1.0000
  O   O10       1.0  0.10860  0.81560  0.35477  1.0000
  O   O11       1.0  0.10860  0.68440  0.85477  1.0000
  O   O12       1.0  0.89140  0.18440  0.64523  1.0000
  O   O13       1.0  0.89050  0.14760  0.14807  1.0000
  O   O14       1.0  0.10950  0.64760  0.35193  1.0000
  O   O15       1.0  0.10950  0.85240  0.85193  1.0000
  O   O16       1.0  0.89050  0.35240  0.64807  1.0000
  O   O17       1.0  0.29130  0.21860  0.08478  1.0000
  O   O18       1.0  0.70870  0.71860  0.41522  1.0000
  O   O19       1.0  0.70870  0.78140  0.91522  1.0000
  O   O20       1.0  0.29130  0.28140  0.58478  1.0000
  O   O21       1.0  0.14500  0.22270  0.20015  1.0000
  O   O22       1.0  0.85500  0.72270  0.29985  1.0000
  O   O23       1.0  0.85500  0.77730  0.79985  1.0000
  O   O24       1.0  0.14500  0.27730  0.70015  1.0000
  O   O25       1.0  0.73220  0.34070  0.89078  1.0000
  O   O26       1.0  0.26780  0.84070  0.60922  1.0000
  O   O27       1.0  0.26780  0.65930  0.10922  1.0000
  O   O28       1.0  0.73220  0.15930  0.39078  1.0000
  O   O29       1.0  0.72420  0.16970  0.87650  1.0000
  O   O30       1.0  0.27580  0.66970  0.62350  1.0000
  O   O31       1.0  0.27580  0.83030  0.12350  1.0000
  O   O32       1.0  0.72420  0.33030  0.37650  1.0000
  O   O33       1.0  0.71910  0.31880  0.21373  1.0000
  O   O34       1.0  0.28090  0.81880  0.28627  1.0000
  O   O35       1.0  0.28090  0.68120  0.78627  1.0000
  O   O36       1.0  0.71910  0.18120  0.71373  1.0000
  O   O37       1.0  0.72660  0.14800  0.22263  1.0000
  O   O38       1.0  0.27340  0.64800  0.27737  1.0000
  O   O39       1.0  0.27340  0.85200  0.77737  1.0000
  O   O40       1.0  0.72660  0.35200  0.72263  1.0000
  O   O41       1.0  0.47100  0.21770  0.16531  1.0000
  O   O42       1.0  0.52900  0.71770  0.33469  1.0000
  O   O43       1.0  0.52900  0.78230  0.83469  1.0000
  O   O44       1.0  0.47100  0.28230  0.66531  1.0000
  O   O45       1.0  0.32310  0.22180  0.28290  1.0000
  O   O46       1.0  0.67690  0.72180  0.21710  1.0000
  O   O47       1.0  0.67690  0.77820  0.71710  1.0000
  O   O48       1.0  0.32310  0.27820  0.78290  1.0000
  C   C1        1.0  0.80940  0.29870  0.93510  1.0000
  C   C2        1.0  0.19060  0.79870  0.56490  1.0000
  C   C3        1.0  0.19060  0.70130  0.06490  1.0000
  C   C4        1.0  0.80940  0.20130  0.43510  1.0000
  C   C5        1.0  0.80540  0.20050  0.92700  1.0000
  C   C6        1.0  0.19460  0.70050  0.57300  1.0000
  C   C7        1.0  0.19460  0.79950  0.07300  1.0000
  C   C8        1.0  0.80540  0.29950  0.42700  1.0000
  C   C9        1.0  0.80390  0.28150  0.18070  1.0000
  C   C10       1.0  0.19610  0.78150  0.31930  1.0000
  C   C11       1.0  0.19610  0.71850  0.81930  1.0000
  C   C12       1.0  0.80390  0.21850  0.68070  1.0000
  C   C13       1.0  0.80650  0.18370  0.18390  1.0000
  C   C14       1.0  0.19350  0.68370  0.31610  1.0000
  C   C15       1.0  0.19350  0.81630  0.81610  1.0000
  C   C16       1.0  0.80650  0.31630  0.68390  1.0000
  C   C17       1.0  0.34930  0.21880  0.14920  1.0000
  C   C18       1.0  0.65070  0.71880  0.35080  1.0000
  C   C19       1.0  0.65070  0.78120  0.85080  1.0000
  C   C20       1.0  0.34930  0.28120  0.64920  1.0000
  C   C21       1.0  0.26600  0.22160  0.21740  1.0000
  C   C22       1.0  0.73400  0.72160  0.28260  1.0000
  C   C23       1.0  0.73400  0.77840  0.78260  1.0000
  C   C24       1.0  0.26600  0.27840  0.71740  1.0000
