data_image0
_chemical_formula_structural       U8F24O48C24
_chemical_formula_sum              "U8 F24 O48 C24"
_cell_length_a       19.1563
_cell_length_b       8.9531
_cell_length_c       16.6221
_cell_angle_alpha    90
_cell_angle_beta     114.633
_cell_angle_gamma    90

_space_group_name_H-M_alt    "P 1"
_space_group_IT_number       1

loop_
  _space_group_symop_operation_xyz
  'x, y, z'

loop_
  _atom_site_type_symbol
  _atom_site_label
  _atom_site_symmetry_multiplicity
  _atom_site_fract_x
  _atom_site_fract_y
  _atom_site_fract_z
  _atom_site_occupancy
  U   U1        1.0  0.12781  0.47478  0.35469  1.0000
  U   U2        1.0  0.87219  0.97478  0.14531  1.0000
  U   U3        1.0  0.87219  0.52522  0.64530  1.0000
  U   U4        1.0  0.12781  0.02522  0.85469  1.0000
  U   U5        1.0  0.38828  0.91309  0.61898  1.0000
  U   U6        1.0  0.61172  0.41309  0.88102  1.0000
  U   U7        1.0  0.61172  0.08691  0.38102  1.0000
  U   U8        1.0  0.38828  0.58691  0.11898  1.0000
  F   F1        1.0  0.20200  0.47360  0.28560  1.0000
  F   F2        1.0  0.79800  0.97360  0.21440  1.0000
  F   F3        1.0  0.79800  0.52640  0.71440  1.0000
  F   F4        1.0  0.20200  0.02640  0.78560  1.0000
  F   F5        1.0  0.17930  0.25100  0.38640  1.0000
  F   F6        1.0  0.82070  0.75100  0.11360  1.0000
  F   F7        1.0  0.82070  0.74900  0.61360  1.0000
  F   F8        1.0  0.17930  0.24900  0.88640  1.0000
  F   F9        1.0  0.12360  0.47270  0.48300  1.0000
  F   F10       1.0  0.87640  0.97270  0.01700  1.0000
  F   F11       1.0  0.87640  0.52730  0.51700  1.0000
  F   F12       1.0  0.12360  0.02730  0.98300  1.0000
  F   F13       1.0  0.42270  0.91550  0.50920  1.0000
  F   F14       1.0  0.57730  0.41550  0.99080  1.0000
  F   F15       1.0  0.57730  0.08450  0.49080  1.0000
  F   F16       1.0  0.42270  0.58450  0.00920  1.0000
  F   F17       1.0  0.28600  0.91340  0.64880  1.0000
  F   F18       1.0  0.71400  0.41340  0.85120  1.0000
  F   F19       1.0  0.71400  0.08660  0.35120  1.0000
  F   F20       1.0  0.28600  0.58660  0.14880  1.0000
  F   F21       1.0  0.34340  0.13380  0.56860  1.0000
  F   F22       1.0  0.65660  0.63380  0.93140  1.0000
  F   F23       1.0  0.65660  0.86620  0.43140  1.0000
  F   F24       1.0  0.34340  0.36620  0.06860  1.0000
  O   O1        1.0  0.01630  0.62960  0.34620  1.0000
  O   O2        1.0  0.98370  0.12960  0.15380  1.0000
  O   O3        1.0  0.98370  0.37040  0.65380  1.0000
  O   O4        1.0  0.01630  0.87040  0.84620  1.0000
  O   O5        1.0  0.06410  0.63270  0.21860  1.0000
  O   O6        1.0  0.93590  0.13270  0.28140  1.0000
  O   O7        1.0  0.93590  0.36730  0.78140  1.0000
  O   O8        1.0  0.06410  0.86730  0.71860  1.0000
  O   O9        1.0  0.93540  0.81570  0.28070  1.0000
  O   O10       1.0  0.06460  0.31570  0.21930  1.0000
  O   O11       1.0  0.06460  0.18430  0.71930  1.0000
  O   O12       1.0  0.93540  0.68430  0.78070  1.0000
  O   O13       1.0  0.98090  0.81420  0.15110  1.0000
  O   O14       1.0  0.01910  0.31420  0.34890  1.0000
  O   O15       1.0  0.01910  0.18580  0.84890  1.0000
  O   O16       1.0  0.98090  0.68580  0.65110  1.0000
  O   O17       1.0  0.17700  0.73500  0.38390  1.0000
  O   O18       1.0  0.82300  0.23500  0.11610  1.0000
  O   O19       1.0  0.82300  0.26500  0.61610  1.0000
  O   O20       1.0  0.17700  0.76500  0.88390  1.0000
  O   O21       1.0  0.25970  0.50320  0.47620  1.0000
  O   O22       1.0  0.74030  0.00320  0.02380  1.0000
  O   O23       1.0  0.74030  0.49680  0.52380  1.0000
  O   O24       1.0  0.25970  0.99680  0.97620  1.0000
  O   O25       1.0  0.26580  0.89070  0.47530  1.0000
  O   O26       1.0  0.73420  0.39070  0.02470  1.0000
  O   O27       1.0  0.73420  0.10930  0.52470  1.0000
  O   O28       1.0  0.26580  0.60930  0.97530  1.0000
  O   O29       1.0  0.34490  0.65960  0.56830  1.0000
  O   O30       1.0  0.65510  0.15960  0.93170  1.0000
  O   O31       1.0  0.65510  0.34040  0.43170  1.0000
  O   O32       1.0  0.34490  0.84040  0.06830  1.0000
  O   O33       1.0  0.50730  0.07020  0.65950  1.0000
  O   O34       1.0  0.49270  0.57020  0.84050  1.0000
  O   O35       1.0  0.49270  0.92980  0.34050  1.0000
  O   O36       1.0  0.50730  0.42980  0.15950  1.0000
  O   O37       1.0  0.42230  0.07080  0.75250  1.0000
  O   O38       1.0  0.57770  0.57080  0.74750  1.0000
  O   O39       1.0  0.57770  0.92920  0.24750  1.0000
  O   O40       1.0  0.42230  0.42920  0.25250  1.0000
  O   O41       1.0  0.58320  0.24530  0.75010  1.0000
  O   O42       1.0  0.41680  0.74530  0.74990  1.0000
  O   O43       1.0  0.41680  0.75470  0.24990  1.0000
  O   O44       1.0  0.58320  0.25470  0.25010  1.0000
  O   O45       1.0  0.49750  0.24950  0.84000  1.0000
  O   O46       1.0  0.50250  0.74950  0.66000  1.0000
  O   O47       1.0  0.50250  0.75050  0.16000  1.0000
  O   O48       1.0  0.49750  0.25050  0.34000  1.0000
  C   C1        1.0  0.98550  0.72270  0.28690  1.0000
  C   C2        1.0  0.01450  0.22270  0.21310  1.0000
  C   C3        1.0  0.01450  0.27730  0.71310  1.0000
  C   C4        1.0  0.98550  0.77730  0.78690  1.0000
  C   C5        1.0  0.01350  0.72290  0.21290  1.0000
  C   C6        1.0  0.98650  0.22290  0.28710  1.0000
  C   C7        1.0  0.98650  0.27710  0.78710  1.0000
  C   C8        1.0  0.01350  0.77710  0.71290  1.0000
  C   C9        1.0  0.23830  0.76500  0.44950  1.0000
  C   C10       1.0  0.76170  0.26500  0.05050  1.0000
  C   C11       1.0  0.76170  0.23500  0.55050  1.0000
  C   C12       1.0  0.23830  0.73500  0.94950  1.0000
  C   C13       1.0  0.28470  0.62930  0.50190  1.0000
  C   C14       1.0  0.71530  0.12930  0.99810  1.0000
  C   C15       1.0  0.71530  0.37070  0.49810  1.0000
  C   C16       1.0  0.28470  0.87070  0.00190  1.0000
  C   C17       1.0  0.52670  0.15790  0.72300  1.0000
  C   C18       1.0  0.47330  0.65790  0.77700  1.0000
  C   C19       1.0  0.47330  0.84210  0.27700  1.0000
  C   C20       1.0  0.52670  0.34210  0.22300  1.0000
  C   C21       1.0  0.47720  0.15870  0.77580  1.0000
  C   C22       1.0  0.52280  0.65870  0.72420  1.0000
  C   C23       1.0  0.52280  0.84130  0.22420  1.0000
  C   C24       1.0  0.47720  0.34130  0.27580  1.0000
