data_image0
_chemical_formula_structural       NiC10O12H10
_chemical_formula_sum              "Ni1 C10 O12 H10"
_cell_length_a       6.9123
_cell_length_b       9.2484
_cell_length_c       10.8243
_cell_angle_alpha    74.208
_cell_angle_beta     75.558
_cell_angle_gamma    68.251

_space_group_name_H-M_alt    "P 1"
_space_group_IT_number       1

loop_
  _space_group_symop_operation_xyz
  'x, y, z'

loop_
  _atom_site_type_symbol
  _atom_site_label
  _atom_site_symmetry_multiplicity
  _atom_site_fract_x
  _atom_site_fract_y
  _atom_site_fract_z
  _atom_site_occupancy
  Ni  Ni1       1.0  0.00000  0.00000  0.00000  1.0000
  C   C1        1.0  0.53570  0.00920  0.61920  1.0000
  C   C2        1.0  0.46430  0.99080  0.38080  1.0000
  C   C3        1.0  0.36910  0.96010  0.61520  1.0000
  C   C4        1.0  0.63090  0.03990  0.38480  1.0000
  C   C5        1.0  0.66360  0.05030  0.50300  1.0000
  C   C6        1.0  0.33640  0.94970  0.49700  1.0000
  C   C7        1.0  0.58340  0.01630  0.74590  1.0000
  C   C8        1.0  0.41660  0.98370  0.25410  1.0000
  C   C9        1.0  0.21860  0.92440  0.73760  1.0000
  C   C10       1.0  0.78140  0.07560  0.26240  1.0000
  O   O1        1.0  0.59700  0.89460  0.83651  1.0000
  O   O2        1.0  0.40300  0.10540  0.16349  1.0000
  O   O3        1.0  0.60760  0.14090  0.75070  1.0000
  O   O4        1.0  0.39240  0.85910  0.24930  1.0000
  O   O5        1.0  0.14180  0.02888  0.80776  1.0000
  O   O6        1.0  0.85820  0.97112  0.19224  1.0000
  O   O7        1.0  0.17670  0.79910  0.76054  1.0000
  O   O8        1.0  0.82330  0.20090  0.23946  1.0000
  O   O9        1.0  0.28020  0.83010  0.04387  1.0000
  O   O10       1.0  0.71980  0.16990  0.95613  1.0000
  O   O11       1.0  0.09850  0.18030  0.01585  1.0000
  O   O12       1.0  0.90150  0.81970  0.98415  1.0000
  H   H1        1.0  0.77430  0.08140  0.50640  1.0000
  H   H2        1.0  0.22570  0.91860  0.49360  1.0000
  H   H3        1.0  0.37420  0.84410  0.98090  1.0000
  H   H4        1.0  0.62580  0.15590  0.01910  1.0000
  H   H5        1.0  0.31080  0.83920  0.10590  1.0000
  H   H6        1.0  0.68920  0.16080  0.89410  1.0000
  H   H7        1.0  0.00200  0.20990  0.08550  1.0000
  H   H8        1.0  0.99800  0.79010  0.91450  1.0000
  H   H9        1.0  0.20750  0.14580  0.04150  1.0000
  H   H10       1.0  0.79250  0.85420  0.95850  1.0000
