data_image0
_chemical_formula_structural       Cu2C8O16
_chemical_formula_sum              "Cu2 C8 O16"
_cell_length_a       9.5727
_cell_length_b       10.9847
_cell_length_c       13.6468
_cell_angle_alpha    108.096
_cell_angle_beta     96.209
_cell_angle_gamma    107.815

_space_group_name_H-M_alt    "P 1"
_space_group_IT_number       1

loop_
  _space_group_symop_operation_xyz
  'x, y, z'

loop_
  _atom_site_type_symbol
  _atom_site_label
  _atom_site_symmetry_multiplicity
  _atom_site_fract_x
  _atom_site_fract_y
  _atom_site_fract_z
  _atom_site_occupancy
  Cu  Cu1       1.0  0.21443  0.38735  0.03753  1.0000
  Cu  Cu2       1.0  0.78557  0.61265  0.96247  1.0000
  C   C1        1.0  0.54212  0.52161  0.05834  1.0000
  C   C2        1.0  0.45788  0.47839  0.94166  1.0000
  C   C3        1.0  0.94781  0.43565  0.95147  1.0000
  C   C4        1.0  0.05219  0.56435  0.04853  1.0000
  C   C5        1.0  0.09926  0.20866  0.13739  1.0000
  C   C6        1.0  0.90074  0.79134  0.86261  1.0000
  C   C7        1.0  0.17184  0.13551  0.05230  1.0000
  C   C8        1.0  0.82816  0.86449  0.94770  1.0000
  O   O1        1.0  0.11222  0.32984  0.14312  1.0000
  O   O2        1.0  0.88778  0.67016  0.85688  1.0000
  O   O3        1.0  0.03731  0.15081  0.19410  1.0000
  O   O4        1.0  0.96269  0.84919  0.80590  1.0000
  O   O5        1.0  0.17338  0.02111  0.04351  1.0000
  O   O6        1.0  0.82662  0.97889  0.95649  1.0000
  O   O7        1.0  0.22837  0.20516  0.99726  1.0000
  O   O8        1.0  0.77163  0.79484  0.00274  1.0000
  O   O9        1.0  0.46749  0.50061  0.12358  1.0000
  O   O10       1.0  0.53251  0.49939  0.87642  1.0000
  O   O11       1.0  0.68521  0.57579  0.07714  1.0000
  O   O12       1.0  0.31479  0.42421  0.92286  1.0000
  O   O13       1.0  0.99071  0.33708  0.92229  1.0000
  O   O14       1.0  0.00929  0.66292  0.07771  1.0000
  O   O15       1.0  0.82541  0.44064  0.90947  1.0000
  O   O16       1.0  0.17459  0.55936  0.09053  1.0000
