data_image0
_chemical_formula_structural       Mn2P2O6H2O2H2O8C4
_chemical_formula_sum              "Mn2 P2 O16 H4 C4"
_cell_length_a       5.8528
_cell_length_b       8.1833
_cell_length_c       11.1334
_cell_angle_alpha    103.958
_cell_angle_beta     93.55
_cell_angle_gamma    90.572

_space_group_name_H-M_alt    "P 1"
_space_group_IT_number       1

loop_
  _space_group_symop_operation_xyz
  'x, y, z'

loop_
  _atom_site_type_symbol
  _atom_site_label
  _atom_site_symmetry_multiplicity
  _atom_site_fract_x
  _atom_site_fract_y
  _atom_site_fract_z
  _atom_site_occupancy
  Mn  Mn1       1.0  0.11036  0.20338  0.08370  1.0000
  Mn  Mn2       1.0  0.88964  0.79662  0.91630  1.0000
  P   P1        1.0  0.08892  0.07442  0.34827  1.0000
  P   P2        1.0  0.91108  0.92558  0.65173  1.0000
  O   O1        1.0  0.11350  0.19344  0.26678  1.0000
  O   O2        1.0  0.88650  0.80656  0.73322  1.0000
  O   O3        1.0  0.21040  0.13358  0.47500  1.0000
  O   O4        1.0  0.78960  0.86642  0.52500  1.0000
  O   O5        1.0  0.82640  0.04770  0.35860  1.0000
  O   O6        1.0  0.17360  0.95230  0.64140  1.0000
  H   H1        1.0  0.80710  0.99390  0.41060  1.0000
  H   H2        1.0  0.19290  0.00610  0.58940  1.0000
  O   O7        1.0  0.18480  0.89673  0.29130  1.0000
  O   O8        1.0  0.81520  0.10327  0.70870  1.0000
  H   H3        1.0  0.10380  0.84990  0.22960  1.0000
  H   H4        1.0  0.89620  0.15010  0.77040  1.0000
  O   O9        1.0  0.48850  0.21183  0.07730  1.0000
  O   O10       1.0  0.51150  0.78817  0.92270  1.0000
  O   O11       1.0  0.79110  0.05105  0.02474  1.0000
  O   O12       1.0  0.20890  0.94895  0.97526  1.0000
  O   O13       1.0  0.07490  0.47577  0.14820  1.0000
  O   O14       1.0  0.92510  0.52423  0.85180  1.0000
  O   O15       1.0  0.97580  0.70620  0.08561  1.0000
  O   O16       1.0  0.02420  0.29380  0.91439  1.0000
  C   C1        1.0  0.57880  0.07800  0.03031  1.0000
  C   C2        1.0  0.42120  0.92200  0.96969  1.0000
  C   C3        1.0  0.01530  0.55220  0.06809  1.0000
  C   C4        1.0  0.98470  0.44780  0.93191  1.0000
