data_image0
_chemical_formula_structural       In4P8O6H2O2H2O8H2O6H2O2H2O8H2O8C4
_chemical_formula_sum              "In4 P8 O40 H12 C4"
_cell_length_a       7.9684
_cell_length_b       11.9582
_cell_length_c       12.5204
_cell_angle_alpha    89.946
_cell_angle_beta     84.035
_cell_angle_gamma    87.287

_space_group_name_H-M_alt    "P 1"
_space_group_IT_number       1

loop_
  _space_group_symop_operation_xyz
  'x, y, z'

loop_
  _atom_site_type_symbol
  _atom_site_label
  _atom_site_symmetry_multiplicity
  _atom_site_fract_x
  _atom_site_fract_y
  _atom_site_fract_z
  _atom_site_occupancy
  In  In1       1.0  0.70223  0.49607  0.14468  1.0000
  In  In2       1.0  0.29777  0.50393  0.85532  1.0000
  In  In3       1.0  0.29548  0.85567  0.48983  1.0000
  In  In4       1.0  0.70452  0.14433  0.51017  1.0000
  P   P1        1.0  0.38316  0.34928  0.07773  1.0000
  P   P2        1.0  0.61684  0.65072  0.92227  1.0000
  P   P3        1.0  0.86427  0.29241  0.29773  1.0000
  P   P4        1.0  0.13573  0.70759  0.70227  1.0000
  P   P5        1.0  0.51108  0.71982  0.28303  1.0000
  P   P6        1.0  0.48892  0.28018  0.71697  1.0000
  P   P7        1.0  0.59484  0.90899  0.64806  1.0000
  P   P8        1.0  0.40516  0.09101  0.35194  1.0000
  O   O1        1.0  0.49850  0.39270  0.15424  1.0000
  O   O2        1.0  0.50150  0.60730  0.84576  1.0000
  O   O3        1.0  0.41710  0.39105  0.96346  1.0000
  O   O4        1.0  0.58290  0.60895  0.03654  1.0000
  O   O5        1.0  0.19740  0.38090  0.11790  1.0000
  O   O6        1.0  0.80260  0.61910  0.88210  1.0000
  H   H1        1.0  0.16710  0.34170  0.16950  1.0000
  H   H2        1.0  0.83290  0.65830  0.83050  1.0000
  O   O7        1.0  0.40430  0.21920  0.07080  1.0000
  O   O8        1.0  0.59570  0.78080  0.92920  1.0000
  H   H3        1.0  0.43300  0.19460  0.12760  1.0000
  H   H4        1.0  0.56700  0.80540  0.87240  1.0000
  O   O9        1.0  0.80670  0.41067  0.27011  1.0000
  O   O10       1.0  0.19330  0.58933  0.72989  1.0000
  O   O11       1.0  0.05370  0.27360  0.26858  1.0000
  O   O12       1.0  0.94630  0.72640  0.73142  1.0000
  O   O13       1.0  0.81790  0.27546  0.41776  1.0000
  O   O14       1.0  0.18210  0.72454  0.58224  1.0000
  O   O15       1.0  0.78100  0.20430  0.22995  1.0000
  O   O16       1.0  0.21900  0.79570  0.77005  1.0000
  H   H5        1.0  0.67980  0.20330  0.25000  1.0000
  H   H6        1.0  0.32020  0.79670  0.75000  1.0000
  O   O17       1.0  0.60470  0.60787  0.26900  1.0000
  O   O18       1.0  0.39530  0.39213  0.73100  1.0000
  O   O19       1.0  0.37810  0.72579  0.37741  1.0000
  O   O20       1.0  0.62190  0.27421  0.62259  1.0000
  O   O21       1.0  0.65020  0.80570  0.29810  1.0000
  O   O22       1.0  0.34980  0.19430  0.70190  1.0000
  H   H7        1.0  0.60530  0.86370  0.32460  1.0000
  H   H8        1.0  0.39470  0.13630  0.67540  1.0000
  O   O23       1.0  0.42870  0.75290  0.18000  1.0000
  O   O24       1.0  0.57130  0.24710  0.82000  1.0000
  H   H9        1.0  0.45340  0.70460  0.13380  1.0000
  H   H10       1.0  0.54660  0.29540  0.86620  1.0000
  O   O25       1.0  0.50620  0.83730  0.57390  1.0000
  O   O26       1.0  0.49380  0.16270  0.42610  1.0000
  O   O27       1.0  0.52700  0.88780  0.76310  1.0000
  O   O28       1.0  0.47300  0.11220  0.23690  1.0000
  O   O29       1.0  0.57540  0.03315  0.61998  1.0000
  O   O30       1.0  0.42460  0.96685  0.38002  1.0000
  O   O31       1.0  0.78780  0.87750  0.62920  1.0000
  O   O32       1.0  0.21220  0.12250  0.37080  1.0000
  H   H11       1.0  0.81180  0.82780  0.67100  1.0000
  H   H12       1.0  0.18820  0.17220  0.32900  1.0000
  O   O33       1.0  0.84280  0.40198  0.01147  1.0000
  O   O34       1.0  0.15720  0.59802  0.98853  1.0000
  O   O35       1.0  0.06770  0.41153  0.89133  1.0000
  O   O36       1.0  0.93230  0.58847  0.10867  1.0000
  O   O37       1.0  0.05850  0.88436  0.41650  1.0000
  O   O38       1.0  0.94150  0.11564  0.58350  1.0000
  O   O39       1.0  0.83810  0.00590  0.41525  1.0000
  O   O40       1.0  0.16190  0.99410  0.58475  1.0000
  C   C1        1.0  0.97400  0.44610  0.97200  1.0000
  C   C2        1.0  0.02600  0.55390  0.02800  1.0000
  C   C3        1.0  0.97030  0.96850  0.45160  1.0000
  C   C4        1.0  0.02970  0.03150  0.54840  1.0000
