data_image0
_chemical_formula_structural       In4P8O4H2O2H2O6H2O10H2O2H2O8H2O8C4
_chemical_formula_sum              "In4 P8 O40 H12 C4"
_cell_length_a       7.8398
_cell_length_b       12.0428
_cell_length_c       12.4877
_cell_angle_alpha    90.013
_cell_angle_beta     96.335
_cell_angle_gamma    92.64

_space_group_name_H-M_alt    "P 1"
_space_group_IT_number       1

loop_
  _space_group_symop_operation_xyz
  'x, y, z'

loop_
  _atom_site_type_symbol
  _atom_site_label
  _atom_site_symmetry_multiplicity
  _atom_site_fract_x
  _atom_site_fract_y
  _atom_site_fract_z
  _atom_site_occupancy
  In  In1       1.0  0.30433  0.49332  0.64433  1.0000
  In  In2       1.0  0.69567  0.50668  0.35567  1.0000
  In  In3       1.0  0.30411  0.14014  0.00920  1.0000
  In  In4       1.0  0.69589  0.85986  0.99080  1.0000
  P   P1        1.0  0.50815  0.71044  0.78039  1.0000
  P   P2        1.0  0.49185  0.28956  0.21961  1.0000
  P   P3        1.0  0.61623  0.34434  0.57187  1.0000
  P   P4        1.0  0.38377  0.65566  0.42813  1.0000
  P   P5        1.0  0.13397  0.28695  0.79211  1.0000
  P   P6        1.0  0.86603  0.71305  0.20789  1.0000
  P   P7        1.0  0.59046  0.08610  0.84279  1.0000
  P   P8        1.0  0.40954  0.91390  0.15721  1.0000
  O   O1        1.0  0.40340  0.60300  0.77180  1.0000
  O   O2        1.0  0.59660  0.39700  0.22820  1.0000
  O   O3        1.0  0.62880  0.72050  0.68950  1.0000
  O   O4        1.0  0.37120  0.27950  0.31050  1.0000
  H   H1        1.0  0.58240  0.68880  0.63510  1.0000
  H   H2        1.0  0.41760  0.31120  0.36490  1.0000
  O   O5        1.0  0.38080  0.80520  0.76440  1.0000
  O   O6        1.0  0.61920  0.19480  0.23560  1.0000
  H   H3        1.0  0.42460  0.86190  0.79440  1.0000
  H   H4        1.0  0.57540  0.13810  0.20560  1.0000
  O   O7        1.0  0.62050  0.72450  0.88500  1.0000
  O   O8        1.0  0.37950  0.27550  0.11500  1.0000
  O   O9        1.0  0.51370  0.39250  0.65400  1.0000
  O   O10       1.0  0.48630  0.60750  0.34600  1.0000
  O   O11       1.0  0.57430  0.21610  0.56290  1.0000
  O   O12       1.0  0.42570  0.78390  0.43710  1.0000
  H   H5        1.0  0.55370  0.19200  0.62170  1.0000
  H   H6        1.0  0.44630  0.80800  0.37830  1.0000
  O   O13       1.0  0.80820  0.36640  0.60580  1.0000
  O   O14       1.0  0.19180  0.63360  0.39420  1.0000
  O   O15       1.0  0.57480  0.38990  0.45900  1.0000
  O   O16       1.0  0.42520  0.61010  0.54100  1.0000
  O   O17       1.0  0.20100  0.40220  0.76700  1.0000
  O   O18       1.0  0.79900  0.59780  0.23300  1.0000
  O   O19       1.0  0.18540  0.26030  0.90900  1.0000
  O   O20       1.0  0.81460  0.73970  0.09100  1.0000
  O   O21       1.0  0.93870  0.27940  0.76940  1.0000
  O   O22       1.0  0.06130  0.72060  0.23060  1.0000
  H   H7        1.0  0.90940  0.31120  0.71280  1.0000
  H   H8        1.0  0.09060  0.68880  0.28720  1.0000
  O   O23       1.0  0.19910  0.19950  0.71570  1.0000
  O   O24       1.0  0.80090  0.80050  0.28430  1.0000
  H   H9        1.0  0.29810  0.18510  0.73750  1.0000
  H   H10       1.0  0.70190  0.81490  0.26250  1.0000
  O   O25       1.0  0.52180  0.15620  0.92780  1.0000
  O   O26       1.0  0.47820  0.84380  0.07220  1.0000
  O   O27       1.0  0.50280  0.11040  0.73140  1.0000
  O   O28       1.0  0.49720  0.88960  0.26860  1.0000
  O   O29       1.0  0.57080  0.96260  0.86930  1.0000
  O   O30       1.0  0.42920  0.03740  0.13070  1.0000
  O   O31       1.0  0.78920  0.11120  0.84960  1.0000
  O   O32       1.0  0.21080  0.88880  0.15040  1.0000
  H   H11       1.0  0.80850  0.16950  0.81830  1.0000
  H   H12       1.0  0.19150  0.83050  0.18170  1.0000
  O   O33       1.0  0.16540  0.40640  0.50540  1.0000
  O   O34       1.0  0.83460  0.59360  0.49460  1.0000
  O   O35       1.0  0.93360  0.41570  0.38670  1.0000
  O   O36       1.0  0.06640  0.58430  0.61330  1.0000
  O   O37       1.0  0.16950  0.99940  0.91960  1.0000
  O   O38       1.0  0.83050  0.00060  0.08040  1.0000
  O   O39       1.0  0.93850  0.88500  0.91650  1.0000
  O   O40       1.0  0.06150  0.11500  0.08350  1.0000
  C   C1        1.0  0.02950  0.44840  0.46970  1.0000
  C   C2        1.0  0.97050  0.55160  0.53030  1.0000
  C   C3        1.0  0.03070  0.96670  0.95310  1.0000
  C   C4        1.0  0.96930  0.03330  0.04690  1.0000
