data_image0
_chemical_formula_structural       Cd4N16O24H8O56H8O16C32H8C16H8C16H8C48H8C8H8C32H8C16H8C16H8C48H8C8H8
_chemical_formula_sum              "Cd4 N16 O96 H96 C240"
_cell_length_a       23.127
_cell_length_b       23.1401
_cell_length_c       18.669
_cell_angle_alpha    90
_cell_angle_beta     123.083
_cell_angle_gamma    90

_space_group_name_H-M_alt    "P 1"
_space_group_IT_number       1

loop_
  _space_group_symop_operation_xyz
  'x, y, z'

loop_
  _atom_site_type_symbol
  _atom_site_label
  _atom_site_symmetry_multiplicity
  _atom_site_fract_x
  _atom_site_fract_y
  _atom_site_fract_z
  _atom_site_occupancy
  Cd  Cd1       1.0  0.50000  0.45155  0.25000  1.0000
  Cd  Cd2       1.0  0.00000  0.95155  0.25000  1.0000
  Cd  Cd3       1.0  0.50000  0.54845  0.75000  1.0000
  Cd  Cd4       1.0  0.00000  0.04845  0.75000  1.0000
  N   N1        1.0  0.60125  0.27796  0.00290  1.0000
  N   N2        1.0  0.39875  0.27796  0.49710  1.0000
  N   N3        1.0  0.10125  0.77796  0.00290  1.0000
  N   N4        1.0  0.89875  0.77796  0.49710  1.0000
  N   N5        1.0  0.39875  0.72204  0.99710  1.0000
  N   N6        1.0  0.60125  0.72204  0.50290  1.0000
  N   N7        1.0  0.89875  0.22204  0.99710  1.0000
  N   N8        1.0  0.10125  0.22204  0.50290  1.0000
  N   N9        1.0  0.85465  0.53936  0.50421  1.0000
  N   N10       1.0  0.14535  0.53936  0.99579  1.0000
  N   N11       1.0  0.35465  0.03936  0.50421  1.0000
  N   N12       1.0  0.64535  0.03936  0.99579  1.0000
  N   N13       1.0  0.14535  0.46064  0.49579  1.0000
  N   N14       1.0  0.85465  0.46064  0.00421  1.0000
  N   N15       1.0  0.64535  0.96064  0.49579  1.0000
  N   N16       1.0  0.35465  0.96064  0.00421  1.0000
  O   O1        1.0  0.54013  0.41268  0.16653  1.0000
  O   O2        1.0  0.45987  0.41268  0.33347  1.0000
  O   O3        1.0  0.04013  0.91268  0.16653  1.0000
  O   O4        1.0  0.95987  0.91268  0.33347  1.0000
  O   O5        1.0  0.45987  0.58732  0.83347  1.0000
  O   O6        1.0  0.54013  0.58732  0.66653  1.0000
  O   O7        1.0  0.95987  0.08732  0.83347  1.0000
  O   O8        1.0  0.04013  0.08732  0.66653  1.0000
  O   O9        1.0  0.44036  0.38190  0.13795  1.0000
  O   O10       1.0  0.55964  0.38190  0.36205  1.0000
  O   O11       1.0  0.94036  0.88190  0.13795  1.0000
  O   O12       1.0  0.05964  0.88190  0.36205  1.0000
  O   O13       1.0  0.55964  0.61810  0.86205  1.0000
  O   O14       1.0  0.44036  0.61810  0.63795  1.0000
  O   O15       1.0  0.05964  0.11810  0.86205  1.0000
  O   O16       1.0  0.94036  0.11810  0.63795  1.0000
  O   O17       1.0  0.30634  0.24476  0.89200  1.0000
  O   O18       1.0  0.69366  0.24476  0.60800  1.0000
  O   O19       1.0  0.80634  0.74476  0.89200  1.0000
  O   O20       1.0  0.19366  0.74476  0.60800  1.0000
  O   O21       1.0  0.69366  0.75524  0.10800  1.0000
  O   O22       1.0  0.30634  0.75524  0.39200  1.0000
  O   O23       1.0  0.19366  0.25524  0.10800  1.0000
  O   O24       1.0  0.80634  0.25524  0.39200  1.0000
  H   H1        1.0  0.27300  0.22720  0.85330  1.0000
  H   H2        1.0  0.72700  0.22720  0.64670  1.0000
  H   H3        1.0  0.77300  0.72720  0.85330  1.0000
  H   H4        1.0  0.22700  0.72720  0.64670  1.0000
  H   H5        1.0  0.72700  0.77280  0.14670  1.0000
  H   H6        1.0  0.27300  0.77280  0.35330  1.0000
  H   H7        1.0  0.22700  0.27280  0.14670  1.0000
  H   H8        1.0  0.77300  0.27280  0.35330  1.0000
  O   O25       1.0  0.36189  0.19245  0.85311  1.0000
  O   O26       1.0  0.63811  0.19245  0.64689  1.0000
  O   O27       1.0  0.86189  0.69245  0.85311  1.0000
  O   O28       1.0  0.13811  0.69245  0.64689  1.0000
  O   O29       1.0  0.63811  0.80755  0.14689  1.0000
  O   O30       1.0  0.36189  0.80755  0.35311  1.0000
  O   O31       1.0  0.13811  0.30755  0.14689  1.0000
  O   O32       1.0  0.86189  0.30755  0.35311  1.0000
  O   O33       1.0  0.65455  0.24033  0.13682  1.0000
  O   O34       1.0  0.34545  0.24033  0.36318  1.0000
  O   O35       1.0  0.15455  0.74033  0.13682  1.0000
  O   O36       1.0  0.84545  0.74033  0.36318  1.0000
  O   O37       1.0  0.34545  0.75967  0.86318  1.0000
  O   O38       1.0  0.65455  0.75967  0.63682  1.0000
  O   O39       1.0  0.84545  0.25967  0.86318  1.0000
  O   O40       1.0  0.15455  0.25967  0.63682  1.0000
  O   O41       1.0  0.54649  0.31164  0.86634  1.0000
  O   O42       1.0  0.45351  0.31164  0.63366  1.0000
  O   O43       1.0  0.04649  0.81164  0.86634  1.0000
  O   O44       1.0  0.95351  0.81164  0.63366  1.0000
  O   O45       1.0  0.45351  0.68836  0.13366  1.0000
  O   O46       1.0  0.54649  0.68836  0.36634  1.0000
  O   O47       1.0  0.95351  0.18836  0.13366  1.0000
  O   O48       1.0  0.04649  0.18836  0.36634  1.0000
  O   O49       1.0  0.59590  0.50597  0.31403  1.0000
  O   O50       1.0  0.40410  0.50597  0.18597  1.0000
  O   O51       1.0  0.09590  0.00597  0.31403  1.0000
  O   O52       1.0  0.90410  0.00597  0.18597  1.0000
  O   O53       1.0  0.40410  0.49403  0.68597  1.0000
  O   O54       1.0  0.59590  0.49403  0.81403  1.0000
  O   O55       1.0  0.90410  0.99403  0.68597  1.0000
  O   O56       1.0  0.09590  0.99403  0.81403  1.0000
  O   O57       1.0  0.55714  0.52631  0.39654  1.0000
  O   O58       1.0  0.44286  0.52631  0.10346  1.0000
  O   O59       1.0  0.05714  0.02631  0.39654  1.0000
  O   O60       1.0  0.94286  0.02631  0.10346  1.0000
  O   O61       1.0  0.44286  0.47369  0.60346  1.0000
  O   O62       1.0  0.55714  0.47369  0.89654  1.0000
  O   O63       1.0  0.94286  0.97369  0.60346  1.0000
  O   O64       1.0  0.05714  0.97369  0.89654  1.0000
  O   O65       1.0  0.71019  0.63196  0.66958  1.0000
  O   O66       1.0  0.28981  0.63196  0.83042  1.0000
  O   O67       1.0  0.21019  0.13196  0.66958  1.0000
  O   O68       1.0  0.78981  0.13196  0.83042  1.0000
  O   O69       1.0  0.28981  0.36804  0.33042  1.0000
  O   O70       1.0  0.71019  0.36804  0.16958  1.0000
  O   O71       1.0  0.78981  0.86804  0.33042  1.0000
  O   O72       1.0  0.21019  0.86804  0.16958  1.0000
  O   O73       1.0  0.82210  0.63656  0.72012  1.0000
  O   O74       1.0  0.17790  0.63656  0.77988  1.0000
  O   O75       1.0  0.32210  0.13656  0.72012  1.0000
  O   O76       1.0  0.67790  0.13656  0.77988  1.0000
  O   O77       1.0  0.17790  0.36344  0.27988  1.0000
  O   O78       1.0  0.82210  0.36344  0.22012  1.0000
  O   O79       1.0  0.67790  0.86344  0.27988  1.0000
  O   O80       1.0  0.32210  0.86344  0.22012  1.0000
  H   H9        1.0  0.82450  0.64960  0.76250  1.0000
  H   H10       1.0  0.17550  0.64960  0.73750  1.0000
  H   H11       1.0  0.32450  0.14960  0.76250  1.0000
  H   H12       1.0  0.67550  0.14960  0.73750  1.0000
  H   H13       1.0  0.17550  0.35040  0.23750  1.0000
  H   H14       1.0  0.82450  0.35040  0.26250  1.0000
  H   H15       1.0  0.67550  0.85040  0.23750  1.0000
  H   H16       1.0  0.32450  0.85040  0.26250  1.0000
  O   O81       1.0  0.84030  0.44535  0.52682  1.0000
  O   O82       1.0  0.15970  0.44535  0.97318  1.0000
  O   O83       1.0  0.34030  0.94535  0.52682  1.0000
  O   O84       1.0  0.65970  0.94535  0.97318  1.0000
  O   O85       1.0  0.15970  0.55465  0.47318  1.0000
  O   O86       1.0  0.84030  0.55465  0.02682  1.0000
  O   O87       1.0  0.65970  0.05465  0.47318  1.0000
  O   O88       1.0  0.34030  0.05465  0.02682  1.0000
  O   O89       1.0  0.87266  0.63291  0.49012  1.0000
  O   O90       1.0  0.12734  0.63291  0.00988  1.0000
  O   O91       1.0  0.37266  0.13291  0.49012  1.0000
  O   O92       1.0  0.62734  0.13291  0.00988  1.0000
  O   O93       1.0  0.12734  0.36709  0.50988  1.0000
  O   O94       1.0  0.87266  0.36709  0.99012  1.0000
  O   O95       1.0  0.62734  0.86709  0.50988  1.0000
  O   O96       1.0  0.37266  0.86709  0.99012  1.0000
  C   C1        1.0  0.48864  0.38097  0.12662  1.0000
  C   C2        1.0  0.51136  0.38097  0.37338  1.0000
  C   C3        1.0  0.98864  0.88097  0.12662  1.0000
  C   C4        1.0  0.01136  0.88097  0.37338  1.0000
  C   C5        1.0  0.51136  0.61903  0.87338  1.0000
  C   C6        1.0  0.48864  0.61903  0.62662  1.0000
  C   C7        1.0  0.01136  0.11903  0.87338  1.0000
  C   C8        1.0  0.98864  0.11903  0.62662  1.0000
  C   C9        1.0  0.35880  0.23156  0.89320  1.0000
  C   C10       1.0  0.64120  0.23156  0.60680  1.0000
  C   C11       1.0  0.85880  0.73156  0.89320  1.0000
  C   C12       1.0  0.14120  0.73156  0.60680  1.0000
  C   C13       1.0  0.64120  0.76844  0.10680  1.0000
  C   C14       1.0  0.35880  0.76844  0.39320  1.0000
  C   C15       1.0  0.14120  0.26844  0.10680  1.0000
  C   C16       1.0  0.85880  0.26844  0.39320  1.0000
  C   C17       1.0  0.48452  0.33885  0.06208  1.0000
  C   C18       1.0  0.51548  0.33885  0.43792  1.0000
  C   C19       1.0  0.98452  0.83885  0.06208  1.0000
  C   C20       1.0  0.01548  0.83885  0.43792  1.0000
  C   C21       1.0  0.51548  0.66115  0.93792  1.0000
  C   C22       1.0  0.48452  0.66115  0.56208  1.0000
  C   C23       1.0  0.01548  0.16115  0.93792  1.0000
  C   C24       1.0  0.98452  0.16115  0.56208  1.0000
  C   C25       1.0  0.42490  0.30689  0.00943  1.0000
  C   C26       1.0  0.57510  0.30689  0.49057  1.0000
  C   C27       1.0  0.92490  0.80689  0.00943  1.0000
  C   C28       1.0  0.07510  0.80689  0.49057  1.0000
  C   C29       1.0  0.57510  0.69311  0.99057  1.0000
  C   C30       1.0  0.42490  0.69311  0.50943  1.0000
  C   C31       1.0  0.07510  0.19311  0.99057  1.0000
  C   C32       1.0  0.92490  0.19311  0.50943  1.0000
  H   H17       1.0  0.38640  0.31260  0.01220  1.0000
  H   H18       1.0  0.61360  0.31260  0.48780  1.0000
  H   H19       1.0  0.88640  0.81260  0.01220  1.0000
  H   H20       1.0  0.11360  0.81260  0.48780  1.0000
  H   H21       1.0  0.61360  0.68740  0.98780  1.0000
  H   H22       1.0  0.38640  0.68740  0.51220  1.0000
  H   H23       1.0  0.11360  0.18740  0.98780  1.0000
  H   H24       1.0  0.88640  0.18740  0.51220  1.0000
  C   C33       1.0  0.42244  0.26649  0.95266  1.0000
  C   C34       1.0  0.57756  0.26649  0.54734  1.0000
  C   C35       1.0  0.92244  0.76649  0.95266  1.0000
  C   C36       1.0  0.07756  0.76649  0.54734  1.0000
  C   C37       1.0  0.57756  0.73351  0.04734  1.0000
  C   C38       1.0  0.42244  0.73351  0.45266  1.0000
  C   C39       1.0  0.07756  0.23351  0.04734  1.0000
  C   C40       1.0  0.92244  0.23351  0.45266  1.0000
  C   C41       1.0  0.48087  0.25742  0.95109  1.0000
  C   C42       1.0  0.51913  0.25742  0.54891  1.0000
  C   C43       1.0  0.98087  0.75742  0.95109  1.0000
  C   C44       1.0  0.01913  0.75742  0.54891  1.0000
  C   C45       1.0  0.51913  0.74258  0.04891  1.0000
  C   C46       1.0  0.48087  0.74258  0.45109  1.0000
  C   C47       1.0  0.01913  0.24258  0.04891  1.0000
  C   C48       1.0  0.98087  0.24258  0.45109  1.0000
  H   H25       1.0  0.48010  0.22990  0.91420  1.0000
  H   H26       1.0  0.51990  0.22990  0.58580  1.0000
  H   H27       1.0  0.98010  0.72990  0.91420  1.0000
  H   H28       1.0  0.01990  0.72990  0.58580  1.0000
  H   H29       1.0  0.51990  0.77010  0.08580  1.0000
  H   H30       1.0  0.48010  0.77010  0.41420  1.0000
  H   H31       1.0  0.01990  0.27010  0.08580  1.0000
  H   H32       1.0  0.98010  0.27010  0.41420  1.0000
  C   C49       1.0  0.54036  0.28873  0.00373  1.0000
  C   C50       1.0  0.45964  0.28873  0.49627  1.0000
  C   C51       1.0  0.04036  0.78873  0.00373  1.0000
  C   C52       1.0  0.95964  0.78873  0.49627  1.0000
  C   C53       1.0  0.45964  0.71127  0.99627  1.0000
  C   C54       1.0  0.54036  0.71127  0.50373  1.0000
  C   C55       1.0  0.95964  0.21127  0.99627  1.0000
  C   C56       1.0  0.04036  0.21127  0.50373  1.0000
  C   C57       1.0  0.54242  0.32974  0.05872  1.0000
  C   C58       1.0  0.45758  0.32974  0.44128  1.0000
  C   C59       1.0  0.04242  0.82974  0.05872  1.0000
  C   C60       1.0  0.95758  0.82974  0.44128  1.0000
  C   C61       1.0  0.45758  0.67026  0.94128  1.0000
  C   C62       1.0  0.54242  0.67026  0.55872  1.0000
  C   C63       1.0  0.95758  0.17026  0.94128  1.0000
  C   C64       1.0  0.04242  0.17026  0.55872  1.0000
  H   H33       1.0  0.58230  0.35120  0.09340  1.0000
  H   H34       1.0  0.41770  0.35120  0.40660  1.0000
  H   H35       1.0  0.08230  0.85120  0.09340  1.0000
  H   H36       1.0  0.91770  0.85120  0.40660  1.0000
  H   H37       1.0  0.41770  0.64880  0.90660  1.0000
  H   H38       1.0  0.58230  0.64880  0.59340  1.0000
  H   H39       1.0  0.91770  0.14880  0.90660  1.0000
  H   H40       1.0  0.08230  0.14880  0.59340  1.0000
  C   C65       1.0  0.65814  0.25267  0.07618  1.0000
  C   C66       1.0  0.34186  0.25267  0.42382  1.0000
  C   C67       1.0  0.15814  0.75267  0.07618  1.0000
  C   C68       1.0  0.84186  0.75267  0.42382  1.0000
  C   C69       1.0  0.34186  0.74733  0.92382  1.0000
  C   C70       1.0  0.65814  0.74733  0.57618  1.0000
  C   C71       1.0  0.84186  0.24733  0.92382  1.0000
  C   C72       1.0  0.15814  0.24733  0.57618  1.0000
  C   C73       1.0  0.72129  0.24311  0.07492  1.0000
  C   C74       1.0  0.27871  0.24311  0.42508  1.0000
  C   C75       1.0  0.22129  0.74311  0.07492  1.0000
  C   C76       1.0  0.77871  0.74311  0.42508  1.0000
  C   C77       1.0  0.27871  0.75689  0.92508  1.0000
  C   C78       1.0  0.72129  0.75689  0.57492  1.0000
  C   C79       1.0  0.77871  0.25689  0.92508  1.0000
  C   C80       1.0  0.22129  0.25689  0.57492  1.0000
  C   C81       1.0  0.71984  0.25556  0.99982  1.0000
  C   C82       1.0  0.28016  0.25556  0.50018  1.0000
  C   C83       1.0  0.21984  0.75556  0.99982  1.0000
  C   C84       1.0  0.78016  0.75556  0.50018  1.0000
  C   C85       1.0  0.28016  0.74444  0.00018  1.0000
  C   C86       1.0  0.71984  0.74444  0.49982  1.0000
  C   C87       1.0  0.78016  0.24444  0.00018  1.0000
  C   C88       1.0  0.21984  0.24444  0.49982  1.0000
  C   C89       1.0  0.66042  0.27728  0.92652  1.0000
  C   C90       1.0  0.33958  0.27728  0.57348  1.0000
  C   C91       1.0  0.16042  0.77728  0.92652  1.0000
  C   C92       1.0  0.83958  0.77728  0.57348  1.0000
  C   C93       1.0  0.33958  0.72272  0.07348  1.0000
  C   C94       1.0  0.66042  0.72272  0.42652  1.0000
  C   C95       1.0  0.83958  0.22272  0.07348  1.0000
  C   C96       1.0  0.16042  0.22272  0.42652  1.0000
  C   C97       1.0  0.59773  0.29060  0.92670  1.0000
  C   C98       1.0  0.40227  0.29060  0.57330  1.0000
  C   C99       1.0  0.09773  0.79060  0.92670  1.0000
  C   C100      1.0  0.90227  0.79060  0.57330  1.0000
  C   C101      1.0  0.40227  0.70940  0.07330  1.0000
  C   C102      1.0  0.59773  0.70940  0.42670  1.0000
  C   C103      1.0  0.90227  0.20940  0.07330  1.0000
  C   C104      1.0  0.09773  0.20940  0.42670  1.0000
  C   C105      1.0  0.77966  0.22254  0.14618  1.0000
  C   C106      1.0  0.22034  0.22254  0.35382  1.0000
  C   C107      1.0  0.27966  0.72254  0.14618  1.0000
  C   C108      1.0  0.72034  0.72254  0.35382  1.0000
  C   C109      1.0  0.22034  0.77746  0.85382  1.0000
  C   C110      1.0  0.77966  0.77746  0.64618  1.0000
  C   C111      1.0  0.72034  0.27746  0.85382  1.0000
  C   C112      1.0  0.27966  0.27746  0.64618  1.0000
  H   H41       1.0  0.78000  0.21550  0.19540  1.0000
  H   H42       1.0  0.22000  0.21550  0.30460  1.0000
  H   H43       1.0  0.28000  0.71550  0.19540  1.0000
  H   H44       1.0  0.72000  0.71550  0.30460  1.0000
  H   H45       1.0  0.22000  0.78450  0.80460  1.0000
  H   H46       1.0  0.78000  0.78450  0.69540  1.0000
  H   H47       1.0  0.72000  0.28450  0.80460  1.0000
  H   H48       1.0  0.28000  0.28450  0.69540  1.0000
  C   C113      1.0  0.66060  0.28807  0.85405  1.0000
  C   C114      1.0  0.33940  0.28807  0.64595  1.0000
  C   C115      1.0  0.16060  0.78807  0.85405  1.0000
  C   C116      1.0  0.83940  0.78807  0.64595  1.0000
  C   C117      1.0  0.33940  0.71193  0.14595  1.0000
  C   C118      1.0  0.66060  0.71193  0.35405  1.0000
  C   C119      1.0  0.83940  0.21193  0.14595  1.0000
  C   C120      1.0  0.16060  0.21193  0.35405  1.0000
  H   H49       1.0  0.62110  0.30240  0.80520  1.0000
  H   H50       1.0  0.37890  0.30240  0.69480  1.0000
  H   H51       1.0  0.12110  0.80240  0.80520  1.0000
  H   H52       1.0  0.87890  0.80240  0.69480  1.0000
  H   H53       1.0  0.37890  0.69760  0.19480  1.0000
  H   H54       1.0  0.62110  0.69760  0.30520  1.0000
  H   H55       1.0  0.87890  0.19760  0.19480  1.0000
  H   H56       1.0  0.12110  0.19760  0.30520  1.0000
  C   C121      1.0  0.60285  0.52622  0.38105  1.0000
  C   C122      1.0  0.39715  0.52622  0.11895  1.0000
  C   C123      1.0  0.10285  0.02622  0.38105  1.0000
  C   C124      1.0  0.89715  0.02622  0.11895  1.0000
  C   C125      1.0  0.39715  0.47378  0.61895  1.0000
  C   C126      1.0  0.60285  0.47378  0.88105  1.0000
  C   C127      1.0  0.89715  0.97378  0.61895  1.0000
  C   C128      1.0  0.10285  0.97378  0.88105  1.0000
  C   C129      1.0  0.75775  0.62216  0.66238  1.0000
  C   C130      1.0  0.24225  0.62216  0.83762  1.0000
  C   C131      1.0  0.25775  0.12216  0.66238  1.0000
  C   C132      1.0  0.74225  0.12216  0.83762  1.0000
  C   C133      1.0  0.24225  0.37784  0.33762  1.0000
  C   C134      1.0  0.75775  0.37784  0.16238  1.0000
  C   C135      1.0  0.74225  0.87784  0.33762  1.0000
  C   C136      1.0  0.25775  0.87784  0.16238  1.0000
  C   C137      1.0  0.67387  0.54876  0.44901  1.0000
  C   C138      1.0  0.32613  0.54876  0.05099  1.0000
  C   C139      1.0  0.17387  0.04876  0.44901  1.0000
  C   C140      1.0  0.82613  0.04876  0.05099  1.0000
  C   C141      1.0  0.32613  0.45124  0.55099  1.0000
  C   C142      1.0  0.67387  0.45124  0.94901  1.0000
  C   C143      1.0  0.82613  0.95124  0.55099  1.0000
  C   C144      1.0  0.17387  0.95124  0.94901  1.0000
  C   C145      1.0  0.68386  0.57647  0.52046  1.0000
  C   C146      1.0  0.31614  0.57647  0.97954  1.0000
  C   C147      1.0  0.18386  0.07647  0.52046  1.0000
  C   C148      1.0  0.81614  0.07647  0.97954  1.0000
  C   C149      1.0  0.31614  0.42353  0.47954  1.0000
  C   C150      1.0  0.68386  0.42353  0.02046  1.0000
  C   C151      1.0  0.81614  0.92353  0.47954  1.0000
  C   C152      1.0  0.18386  0.92353  0.02046  1.0000
  H   H57       1.0  0.64640  0.58360  0.52490  1.0000
  H   H58       1.0  0.35360  0.58360  0.97510  1.0000
  H   H59       1.0  0.14640  0.08360  0.52490  1.0000
  H   H60       1.0  0.85360  0.08360  0.97510  1.0000
  H   H61       1.0  0.35360  0.41640  0.47510  1.0000
  H   H62       1.0  0.64640  0.41640  0.02490  1.0000
  H   H63       1.0  0.85360  0.91640  0.47510  1.0000
  H   H64       1.0  0.14640  0.91640  0.02490  1.0000
  C   C153      1.0  0.74946  0.59381  0.58569  1.0000
  C   C154      1.0  0.25054  0.59381  0.91431  1.0000
  C   C155      1.0  0.24946  0.09381  0.58569  1.0000
  C   C156      1.0  0.75054  0.09381  0.91431  1.0000
  C   C157      1.0  0.25054  0.40619  0.41431  1.0000
  C   C158      1.0  0.74946  0.40619  0.08569  1.0000
  C   C159      1.0  0.75054  0.90619  0.41431  1.0000
  C   C160      1.0  0.24946  0.90619  0.08569  1.0000
  C   C161      1.0  0.80542  0.58213  0.57935  1.0000
  C   C162      1.0  0.19458  0.58213  0.92065  1.0000
  C   C163      1.0  0.30542  0.08213  0.57935  1.0000
  C   C164      1.0  0.69458  0.08213  0.92065  1.0000
  C   C165      1.0  0.19458  0.41787  0.42065  1.0000
  C   C166      1.0  0.80542  0.41787  0.07935  1.0000
  C   C167      1.0  0.69458  0.91787  0.42065  1.0000
  C   C168      1.0  0.30542  0.91787  0.07935  1.0000
  H   H65       1.0  0.84960  0.59320  0.62300  1.0000
  H   H66       1.0  0.15040  0.59320  0.87700  1.0000
  H   H67       1.0  0.34960  0.09320  0.62300  1.0000
  H   H68       1.0  0.65040  0.09320  0.87700  1.0000
  H   H69       1.0  0.15040  0.40680  0.37700  1.0000
  H   H70       1.0  0.84960  0.40680  0.12300  1.0000
  H   H71       1.0  0.65040  0.90680  0.37700  1.0000
  H   H72       1.0  0.34960  0.90680  0.12300  1.0000
  C   C169      1.0  0.79533  0.55414  0.50854  1.0000
  C   C170      1.0  0.20467  0.55414  0.99146  1.0000
  C   C171      1.0  0.29533  0.05414  0.50854  1.0000
  C   C172      1.0  0.70467  0.05414  0.99146  1.0000
  C   C173      1.0  0.20467  0.44586  0.49146  1.0000
  C   C174      1.0  0.79533  0.44586  0.00854  1.0000
  C   C175      1.0  0.70467  0.94586  0.49146  1.0000
  C   C176      1.0  0.29533  0.94586  0.00854  1.0000
  C   C177      1.0  0.72991  0.53804  0.44297  1.0000
  C   C178      1.0  0.27009  0.53804  0.05703  1.0000
  C   C179      1.0  0.22991  0.03804  0.44297  1.0000
  C   C180      1.0  0.77009  0.03804  0.05703  1.0000
  C   C181      1.0  0.27009  0.46196  0.55703  1.0000
  C   C182      1.0  0.72991  0.46196  0.94297  1.0000
  C   C183      1.0  0.77009  0.96196  0.55703  1.0000
  C   C184      1.0  0.22991  0.96196  0.94297  1.0000
  H   H73       1.0  0.72350  0.52000  0.39460  1.0000
  H   H74       1.0  0.27650  0.52000  0.10540  1.0000
  H   H75       1.0  0.22350  0.02000  0.39460  1.0000
  H   H76       1.0  0.77650  0.02000  0.10540  1.0000
  H   H77       1.0  0.27650  0.48000  0.60540  1.0000
  H   H78       1.0  0.72350  0.48000  0.89460  1.0000
  H   H79       1.0  0.77650  0.98000  0.60540  1.0000
  H   H80       1.0  0.22350  0.98000  0.89460  1.0000
  C   C185      1.0  0.87339  0.48082  0.51570  1.0000
  C   C186      1.0  0.12661  0.48082  0.98430  1.0000
  C   C187      1.0  0.37339  0.98082  0.51570  1.0000
  C   C188      1.0  0.62661  0.98082  0.98430  1.0000
  C   C189      1.0  0.12661  0.51918  0.48430  1.0000
  C   C190      1.0  0.87339  0.51918  0.01570  1.0000
  C   C191      1.0  0.62661  0.01918  0.48430  1.0000
  C   C192      1.0  0.37339  0.01918  0.01570  1.0000
  C   C193      1.0  0.93347  0.46455  0.51170  1.0000
  C   C194      1.0  0.06653  0.46455  0.98830  1.0000
  C   C195      1.0  0.43347  0.96455  0.51170  1.0000
  C   C196      1.0  0.56653  0.96455  0.98830  1.0000
  C   C197      1.0  0.06653  0.53545  0.48830  1.0000
  C   C198      1.0  0.93347  0.53545  0.01170  1.0000
  C   C199      1.0  0.56653  0.03545  0.48830  1.0000
  C   C200      1.0  0.43347  0.03545  0.01170  1.0000
  C   C201      1.0  0.97049  0.50775  0.50075  1.0000
  C   C202      1.0  0.02951  0.50775  0.99925  1.0000
  C   C203      1.0  0.47049  0.00775  0.50075  1.0000
  C   C204      1.0  0.52951  0.00775  0.99925  1.0000
  C   C205      1.0  0.02951  0.49225  0.49925  1.0000
  C   C206      1.0  0.97049  0.49225  0.00075  1.0000
  C   C207      1.0  0.52951  0.99225  0.49925  1.0000
  C   C208      1.0  0.47049  0.99225  0.00075  1.0000
  C   C209      1.0  0.95097  0.56618  0.49108  1.0000
  C   C210      1.0  0.04903  0.56618  0.00892  1.0000
  C   C211      1.0  0.45097  0.06618  0.49108  1.0000
  C   C212      1.0  0.54903  0.06618  0.00892  1.0000
  C   C213      1.0  0.04903  0.43382  0.50892  1.0000
  C   C214      1.0  0.95097  0.43382  0.99108  1.0000
  C   C215      1.0  0.54903  0.93382  0.50892  1.0000
  C   C216      1.0  0.45097  0.93382  0.99108  1.0000
  C   C217      1.0  0.89054  0.58349  0.49420  1.0000
  C   C218      1.0  0.10946  0.58349  0.00580  1.0000
  C   C219      1.0  0.39054  0.08349  0.49420  1.0000
  C   C220      1.0  0.60946  0.08349  0.00580  1.0000
  C   C221      1.0  0.10946  0.41651  0.50580  1.0000
  C   C222      1.0  0.89054  0.41651  0.99420  1.0000
  C   C223      1.0  0.60946  0.91651  0.50580  1.0000
  C   C224      1.0  0.39054  0.91651  0.99420  1.0000
  C   C225      1.0  0.95342  0.40839  0.52040  1.0000
  C   C226      1.0  0.04658  0.40839  0.97960  1.0000
  C   C227      1.0  0.45342  0.90839  0.52040  1.0000
  C   C228      1.0  0.54658  0.90839  0.97960  1.0000
  C   C229      1.0  0.04658  0.59161  0.47960  1.0000
  C   C230      1.0  0.95342  0.59161  0.02040  1.0000
  C   C231      1.0  0.54658  0.09161  0.47960  1.0000
  C   C232      1.0  0.45342  0.09161  0.02040  1.0000
  H   H81       1.0  0.92830  0.38000  0.52710  1.0000
  H   H82       1.0  0.07170  0.38000  0.97290  1.0000
  H   H83       1.0  0.42830  0.88000  0.52710  1.0000
  H   H84       1.0  0.57170  0.88000  0.97290  1.0000
  H   H85       1.0  0.07170  0.62000  0.47290  1.0000
  H   H86       1.0  0.92830  0.62000  0.02710  1.0000
  H   H87       1.0  0.57170  0.12000  0.47290  1.0000
  H   H88       1.0  0.42830  0.12000  0.02710  1.0000
  C   C233      1.0  0.98817  0.60710  0.48060  1.0000
  C   C234      1.0  0.01183  0.60710  0.01940  1.0000
  C   C235      1.0  0.48817  0.10710  0.48060  1.0000
  C   C236      1.0  0.51183  0.10710  0.01940  1.0000
  C   C237      1.0  0.01183  0.39290  0.51940  1.0000
  C   C238      1.0  0.98817  0.39290  0.98060  1.0000
  C   C239      1.0  0.51183  0.89290  0.51940  1.0000
  C   C240      1.0  0.48817  0.89290  0.98060  1.0000
  H   H89       1.0  0.97480  0.64560  0.47410  1.0000
  H   H90       1.0  0.02520  0.64560  0.02590  1.0000
  H   H91       1.0  0.47480  0.14560  0.47410  1.0000
  H   H92       1.0  0.52520  0.14560  0.02590  1.0000
  H   H93       1.0  0.02520  0.35440  0.52590  1.0000
  H   H94       1.0  0.97480  0.35440  0.97410  1.0000
  H   H95       1.0  0.52520  0.85440  0.52590  1.0000
  H   H96       1.0  0.47480  0.85440  0.97410  1.0000
