data_image0
_chemical_formula_structural       Cu2F8N8C24
_chemical_formula_sum              "Cu2 F8 N8 C24"
_cell_length_a       7.5735
_cell_length_b       11.7547
_cell_length_c       17.0842
_cell_angle_alpha    82.19
_cell_angle_beta     86.285
_cell_angle_gamma    88.218

_space_group_name_H-M_alt    "P 1"
_space_group_IT_number       1

loop_
  _space_group_symop_operation_xyz
  'x, y, z'

loop_
  _atom_site_type_symbol
  _atom_site_label
  _atom_site_symmetry_multiplicity
  _atom_site_fract_x
  _atom_site_fract_y
  _atom_site_fract_z
  _atom_site_occupancy
  Cu  Cu1       1.0  0.58373  0.94727  0.19414  1.0000
  Cu  Cu2       1.0  0.41627  0.05273  0.80587  1.0000
  F   F1        1.0  0.30760  0.05975  0.41788  1.0000
  F   F2        1.0  0.69240  0.94025  0.58212  1.0000
  F   F3        1.0  0.62202  0.37435  0.13092  1.0000
  F   F4        1.0  0.37798  0.62565  0.86908  1.0000
  F   F5        1.0  0.38180  0.40368  0.87907  1.0000
  F   F6        1.0  0.61820  0.59632  0.12093  1.0000
  F   F7        1.0  0.74619  0.88779  0.43871  1.0000
  F   F8        1.0  0.25381  0.11221  0.56129  1.0000
  N   N1        1.0  0.79780  0.92304  0.25423  1.0000
  N   N2        1.0  0.20220  0.07696  0.74577  1.0000
  N   N3        1.0  0.44540  0.14485  0.89225  1.0000
  N   N4        1.0  0.55460  0.85515  0.10775  1.0000
  N   N5        1.0  0.58260  0.10763  0.13064  1.0000
  N   N6        1.0  0.41740  0.89237  0.86936  1.0000
  N   N7        1.0  0.36490  0.93520  0.26676  1.0000
  N   N8        1.0  0.63510  0.06480  0.73324  1.0000
  C   C1        1.0  0.87590  0.94448  0.46720  1.0000
  C   C2        1.0  0.12410  0.05552  0.53280  1.0000
  C   C3        1.0  0.44380  0.44825  0.94071  1.0000
  C   C4        1.0  0.55620  0.55175  0.05929  1.0000
  C   C5        1.0  0.50590  0.37395  0.00474  1.0000
  C   C6        1.0  0.49410  0.62605  0.99526  1.0000
  C   C7        1.0  0.05910  0.94453  0.33854  1.0000
  C   C8        1.0  0.94090  0.05547  0.66146  1.0000
  C   C9        1.0  0.03010  0.97123  0.41974  1.0000
  C   C10       1.0  0.96990  0.02877  0.58026  1.0000
  C   C11       1.0  0.55340  0.17517  0.07665  1.0000
  C   C12       1.0  0.44660  0.82483  0.92335  1.0000
  C   C13       1.0  0.47540  0.19362  0.94420  1.0000
  C   C14       1.0  0.52460  0.80638  0.05580  1.0000
  C   C15       1.0  0.56060  0.43389  0.06388  1.0000
  C   C16       1.0  0.43940  0.56611  0.93612  1.0000
  C   C17       1.0  0.51250  0.24984  0.00843  1.0000
  C   C18       1.0  0.48750  0.75016  0.99157  1.0000
  C   C19       1.0  0.91560  0.93169  0.29262  1.0000
  C   C20       1.0  0.08440  0.06831  0.70738  1.0000
  C   C21       1.0  0.22770  0.93899  0.30076  1.0000
  C   C22       1.0  0.77230  0.06101  0.69924  1.0000
  C   C23       1.0  0.15270  0.02790  0.45737  1.0000
  C   C24       1.0  0.84730  0.97210  0.54263  1.0000
