data_image0
_chemical_formula_structural       Cu2C12N8C4F8C8
_chemical_formula_sum              "Cu2 C24 N8 F8"
_cell_length_a       7.4617
_cell_length_b       7.4617
_cell_length_c       22.0049
_cell_angle_alpha    90
_cell_angle_beta     90
_cell_angle_gamma    90

_space_group_name_H-M_alt    "P 1"
_space_group_IT_number       1

loop_
  _space_group_symop_operation_xyz
  'x, y, z'

loop_
  _atom_site_type_symbol
  _atom_site_label
  _atom_site_symmetry_multiplicity
  _atom_site_fract_x
  _atom_site_fract_y
  _atom_site_fract_z
  _atom_site_occupancy
  Cu  Cu1       1.0  0.50000  0.50000  0.25000  1.0000
  Cu  Cu2       1.0  0.50000  0.50000  0.75000  1.0000
  C   C1        1.0  0.50000  0.00000  0.06640  1.0000
  C   C2        1.0  0.00000  0.50000  0.56640  1.0000
  C   C3        1.0  0.50000  0.00000  0.93360  1.0000
  C   C4        1.0  0.00000  0.50000  0.43360  1.0000
  C   C5        1.0  0.50000  0.15840  0.16761  1.0000
  C   C6        1.0  0.50000  0.84160  0.16761  1.0000
  C   C7        1.0  0.84160  0.50000  0.66761  1.0000
  C   C8        1.0  0.15840  0.50000  0.66761  1.0000
  C   C9        1.0  0.50000  0.15840  0.83239  1.0000
  C   C10       1.0  0.50000  0.84160  0.83239  1.0000
  C   C11       1.0  0.15840  0.50000  0.33239  1.0000
  C   C12       1.0  0.84160  0.50000  0.33239  1.0000
  N   N1        1.0  0.50000  0.28140  0.19817  1.0000
  N   N2        1.0  0.50000  0.71860  0.19817  1.0000
  N   N3        1.0  0.71860  0.50000  0.69817  1.0000
  N   N4        1.0  0.28140  0.50000  0.69817  1.0000
  N   N5        1.0  0.50000  0.28140  0.80183  1.0000
  N   N6        1.0  0.50000  0.71860  0.80183  1.0000
  N   N7        1.0  0.28140  0.50000  0.30183  1.0000
  N   N8        1.0  0.71860  0.50000  0.30183  1.0000
  C   C13       1.0  0.50000  0.00000  0.13270  1.0000
  C   C14       1.0  0.00000  0.50000  0.63270  1.0000
  C   C15       1.0  0.50000  0.00000  0.86730  1.0000
  C   C16       1.0  0.00000  0.50000  0.36730  1.0000
  F   F1        1.0  0.50000  0.31270  0.05878  1.0000
  F   F2        1.0  0.50000  0.68730  0.05878  1.0000
  F   F3        1.0  0.68730  0.50000  0.55878  1.0000
  F   F4        1.0  0.31270  0.50000  0.55878  1.0000
  F   F5        1.0  0.50000  0.31270  0.94122  1.0000
  F   F6        1.0  0.50000  0.68730  0.94122  1.0000
  F   F7        1.0  0.31270  0.50000  0.44122  1.0000
  F   F8        1.0  0.68730  0.50000  0.44122  1.0000
  C   C17       1.0  0.50000  0.15520  0.03149  1.0000
  C   C18       1.0  0.50000  0.84480  0.03149  1.0000
  C   C19       1.0  0.84480  0.50000  0.53149  1.0000
  C   C20       1.0  0.15520  0.50000  0.53149  1.0000
  C   C21       1.0  0.50000  0.15520  0.96851  1.0000
  C   C22       1.0  0.50000  0.84480  0.96851  1.0000
  C   C23       1.0  0.15520  0.50000  0.46851  1.0000
  C   C24       1.0  0.84480  0.50000  0.46851  1.0000
