data_image0
_chemical_formula_structural       F8N8C24Cu4F8C6N4C6N4C12
_chemical_formula_sum              "F16 N16 C48 Cu4"
_cell_length_a       18.2594
_cell_length_b       11.8015
_cell_length_c       14.9782
_cell_angle_alpha    90
_cell_angle_beta     108.109
_cell_angle_gamma    90

_space_group_name_H-M_alt    "P 1"
_space_group_IT_number       1

loop_
  _space_group_symop_operation_xyz
  'x, y, z'

loop_
  _atom_site_type_symbol
  _atom_site_label
  _atom_site_symmetry_multiplicity
  _atom_site_fract_x
  _atom_site_fract_y
  _atom_site_fract_z
  _atom_site_occupancy
  F   F1        1.0  0.42898  0.01436  0.38308  1.0000
  F   F2        1.0  0.57102  0.01436  0.11692  1.0000
  F   F3        1.0  0.57102  0.98564  0.61692  1.0000
  F   F4        1.0  0.42898  0.98564  0.88308  1.0000
  F   F5        1.0  0.57890  0.01056  0.43507  1.0000
  F   F6        1.0  0.42110  0.01056  0.06493  1.0000
  F   F7        1.0  0.42110  0.98944  0.56493  1.0000
  F   F8        1.0  0.57890  0.98944  0.93507  1.0000
  N   N1        1.0  0.24664  0.02306  0.02030  1.0000
  N   N2        1.0  0.75336  0.02306  0.47970  1.0000
  N   N3        1.0  0.75336  0.97694  0.97970  1.0000
  N   N4        1.0  0.24664  0.97694  0.52030  1.0000
  N   N5        1.0  0.25297  0.00188  0.30576  1.0000
  N   N6        1.0  0.74703  0.00188  0.19424  1.0000
  N   N7        1.0  0.74703  0.99812  0.69424  1.0000
  N   N8        1.0  0.25297  0.99812  0.80576  1.0000
  C   C1        1.0  0.33211  0.01146  0.19153  1.0000
  C   C2        1.0  0.66789  0.01146  0.30847  1.0000
  C   C3        1.0  0.66789  0.98854  0.80847  1.0000
  C   C4        1.0  0.33211  0.98854  0.69153  1.0000
  C   C5        1.0  0.29045  0.00682  0.25632  1.0000
  C   C6        1.0  0.70955  0.00682  0.24368  1.0000
  C   C7        1.0  0.70955  0.99318  0.74368  1.0000
  C   C8        1.0  0.29045  0.99318  0.75632  1.0000
  C   C9        1.0  0.28664  0.01880  0.09712  1.0000
  C   C10       1.0  0.71336  0.01880  0.40288  1.0000
  C   C11       1.0  0.71336  0.98120  0.90288  1.0000
  C   C12       1.0  0.28664  0.98120  0.59712  1.0000
  C   C13       1.0  0.46217  0.01073  0.31450  1.0000
  C   C14       1.0  0.53783  0.01073  0.18550  1.0000
  C   C15       1.0  0.53783  0.98927  0.68550  1.0000
  C   C16       1.0  0.46217  0.98927  0.81450  1.0000
  C   C17       1.0  0.41586  0.00976  0.22073  1.0000
  C   C18       1.0  0.58414  0.00976  0.27927  1.0000
  C   C19       1.0  0.58414  0.99024  0.77927  1.0000
  C   C20       1.0  0.41586  0.99024  0.72073  1.0000
  C   C21       1.0  0.54135  0.00956  0.34179  1.0000
  C   C22       1.0  0.45865  0.00956  0.15821  1.0000
  C   C23       1.0  0.45865  0.99044  0.65821  1.0000
  C   C24       1.0  0.54135  0.99044  0.84179  1.0000
  Cu  Cu1       1.0  0.18561  0.01283  0.88754  1.0000
  Cu  Cu2       1.0  0.81439  0.01283  0.61246  1.0000
  Cu  Cu3       1.0  0.81439  0.98717  0.11246  1.0000
  Cu  Cu4       1.0  0.18561  0.98717  0.38754  1.0000
  F   F9        1.0  0.87512  0.62330  0.63798  1.0000
  F   F10       1.0  0.12488  0.62330  0.86202  1.0000
  F   F11       1.0  0.12488  0.37670  0.36202  1.0000
  F   F12       1.0  0.87512  0.37670  0.13798  1.0000
  F   F13       1.0  0.87367  0.40371  0.64347  1.0000
  F   F14       1.0  0.12633  0.40371  0.85653  1.0000
  F   F15       1.0  0.12633  0.59629  0.35653  1.0000
  F   F16       1.0  0.87367  0.59629  0.14347  1.0000
  C   C25       1.0  0.93854  0.45627  0.69731  1.0000
  C   C26       1.0  0.06146  0.45627  0.80269  1.0000
  C   C27       1.0  0.06146  0.54373  0.30269  1.0000
  C   C28       1.0  0.93854  0.54373  0.19731  1.0000
  C   C29       1.0  0.00000  0.63890  0.75000  1.0000
  C   C30       1.0  0.00000  0.36110  0.25000  1.0000
  N   N9        1.0  0.11369  0.14388  0.84174  1.0000
  N   N10       1.0  0.88631  0.14388  0.65826  1.0000
  N   N11       1.0  0.88631  0.85612  0.15826  1.0000
  N   N12       1.0  0.11369  0.85612  0.34174  1.0000
  C   C31       1.0  0.00000  0.38950  0.75000  1.0000
  C   C32       1.0  0.00000  0.61050  0.25000  1.0000
  C   C33       1.0  0.93868  0.57229  0.69574  1.0000
  C   C34       1.0  0.06132  0.57229  0.80426  1.0000
  C   C35       1.0  0.06132  0.42771  0.30426  1.0000
  C   C36       1.0  0.93868  0.42771  0.19574  1.0000
  N   N13       1.0  0.11000  0.88563  0.85001  1.0000
  N   N14       1.0  0.89000  0.88563  0.64999  1.0000
  N   N15       1.0  0.89000  0.11437  0.14999  1.0000
  N   N16       1.0  0.11000  0.11437  0.35001  1.0000
  C   C37       1.0  0.06343  0.20166  0.80115  1.0000
  C   C38       1.0  0.93657  0.20166  0.69885  1.0000
  C   C39       1.0  0.93657  0.79834  0.19885  1.0000
  C   C40       1.0  0.06343  0.79834  0.30115  1.0000
  C   C41       1.0  0.00000  0.76170  0.75000  1.0000
  C   C42       1.0  0.00000  0.23830  0.25000  1.0000
  C   C43       1.0  0.06150  0.82702  0.80614  1.0000
  C   C44       1.0  0.93850  0.82702  0.69386  1.0000
  C   C45       1.0  0.93850  0.17298  0.19386  1.0000
  C   C46       1.0  0.06150  0.17298  0.30614  1.0000
  C   C47       1.0  0.00000  0.26690  0.75000  1.0000
  C   C48       1.0  0.00000  0.73310  0.25000  1.0000
