data_image0
_chemical_formula_structural       Cu2C12N8C12F8
_chemical_formula_sum              "Cu2 C24 N8 F8"
_cell_length_a       7.4736
_cell_length_b       7.4736
_cell_length_c       22.0963
_cell_angle_alpha    90
_cell_angle_beta     90
_cell_angle_gamma    90

_space_group_name_H-M_alt    "P 1"
_space_group_IT_number       1

loop_
  _space_group_symop_operation_xyz
  'x, y, z'

loop_
  _atom_site_type_symbol
  _atom_site_label
  _atom_site_symmetry_multiplicity
  _atom_site_fract_x
  _atom_site_fract_y
  _atom_site_fract_z
  _atom_site_occupancy
  Cu  Cu1       1.0  0.50000  0.50000  0.25000  1.0000
  Cu  Cu2       1.0  0.50000  0.50000  0.75000  1.0000
  C   C1        1.0  0.50000  0.00000  0.06620  1.0000
  C   C2        1.0  0.50000  0.00000  0.93380  1.0000
  C   C3        1.0  0.00000  0.50000  0.43380  1.0000
  C   C4        1.0  0.00000  0.50000  0.56620  1.0000
  C   C5        1.0  0.50000  0.15850  0.16700  1.0000
  C   C6        1.0  0.50000  0.84150  0.83300  1.0000
  C   C7        1.0  0.50000  0.84150  0.16700  1.0000
  C   C8        1.0  0.50000  0.15850  0.83300  1.0000
  C   C9        1.0  0.15850  0.50000  0.33300  1.0000
  C   C10       1.0  0.15850  0.50000  0.66700  1.0000
  C   C11       1.0  0.84150  0.50000  0.66700  1.0000
  C   C12       1.0  0.84150  0.50000  0.33300  1.0000
  N   N1        1.0  0.50000  0.28160  0.19771  1.0000
  N   N2        1.0  0.50000  0.71840  0.80229  1.0000
  N   N3        1.0  0.50000  0.71840  0.19771  1.0000
  N   N4        1.0  0.50000  0.28160  0.80229  1.0000
  N   N5        1.0  0.28160  0.50000  0.30229  1.0000
  N   N6        1.0  0.28160  0.50000  0.69771  1.0000
  N   N7        1.0  0.71840  0.50000  0.69771  1.0000
  N   N8        1.0  0.71840  0.50000  0.30229  1.0000
  C   C13       1.0  0.50000  0.15390  0.03137  1.0000
  C   C14       1.0  0.50000  0.84610  0.96863  1.0000
  C   C15       1.0  0.50000  0.84610  0.03137  1.0000
  C   C16       1.0  0.50000  0.15390  0.96863  1.0000
  C   C17       1.0  0.15390  0.50000  0.46863  1.0000
  C   C18       1.0  0.15390  0.50000  0.53137  1.0000
  C   C19       1.0  0.84610  0.50000  0.53137  1.0000
  C   C20       1.0  0.84610  0.50000  0.46863  1.0000
  C   C21       1.0  0.50000  0.00000  0.13260  1.0000
  C   C22       1.0  0.50000  0.00000  0.86740  1.0000
  C   C23       1.0  0.00000  0.50000  0.36740  1.0000
  C   C24       1.0  0.00000  0.50000  0.63260  1.0000
  F   F1        1.0  0.50000  0.31210  0.05868  1.0000
  F   F2        1.0  0.50000  0.68790  0.94132  1.0000
  F   F3        1.0  0.50000  0.68790  0.05868  1.0000
  F   F4        1.0  0.50000  0.31210  0.94132  1.0000
  F   F5        1.0  0.31210  0.50000  0.44132  1.0000
  F   F6        1.0  0.31210  0.50000  0.55868  1.0000
  F   F7        1.0  0.68790  0.50000  0.55868  1.0000
  F   F8        1.0  0.68790  0.50000  0.44132  1.0000
