data_image0
_chemical_formula_structural       Pr2O2N2C2Sr2O2N2C2H2O2N2C2H2O2C2H2O2C4O4C2O2C2O2C2H2O2C2H2O2C2H2C2O2C2O2H4C2O2H4O2H4C2O2H4O2H4C8H2C2H2C2H2
_chemical_formula_sum              "Pr2 O34 N6 C42 Sr2 H38"
_cell_length_a       10.2501
_cell_length_b       11.1323
_cell_length_c       17.4007
_cell_angle_alpha    108.37
_cell_angle_beta     97.6602
_cell_angle_gamma    101.656

_space_group_name_H-M_alt    "P 1"
_space_group_IT_number       1

loop_
  _space_group_symop_operation_xyz
  'x, y, z'

loop_
  _atom_site_type_symbol
  _atom_site_label
  _atom_site_symmetry_multiplicity
  _atom_site_fract_x
  _atom_site_fract_y
  _atom_site_fract_z
  _atom_site_occupancy
  Pr  Pr1       1.0  0.79245  0.28990  0.20800  1.0000
  Pr  Pr2       1.0  0.20755  0.71010  0.79200  1.0000
  O   O1        1.0  0.67190  0.37320  0.11099  1.0000
  O   O2        1.0  0.32810  0.62680  0.88901  1.0000
  N   N1        1.0  0.54710  0.30790  0.21974  1.0000
  N   N2        1.0  0.45290  0.69210  0.78026  1.0000
  C   C1        1.0  0.47740  0.35100  0.16851  1.0000
  C   C2        1.0  0.52260  0.64900  0.83149  1.0000
  Sr  Sr1       1.0  0.58485  0.69702  0.09764  1.0000
  Sr  Sr2       1.0  0.41515  0.30298  0.90236  1.0000
  O   O3        1.0  0.49520  0.43200  0.05903  1.0000
  O   O4        1.0  0.50480  0.56800  0.94097  1.0000
  N   N3        1.0  0.98470  0.39990  0.34002  1.0000
  N   N4        1.0  0.01530  0.60010  0.65998  1.0000
  C   C3        1.0  0.34560  0.36140  0.17150  1.0000
  C   C4        1.0  0.65440  0.63860  0.82850  1.0000
  H   H1        1.0  0.29970  0.39410  0.13620  1.0000
  H   H2        1.0  0.70030  0.60590  0.86380  1.0000
  O   O5        1.0  0.69800  0.23430  0.32171  1.0000
  O   O6        1.0  0.30200  0.76570  0.67829  1.0000
  N   N5        1.0  0.82670  0.16640  0.06211  1.0000
  N   N6        1.0  0.17330  0.83360  0.93789  1.0000
  C   C5        1.0  0.28400  0.32110  0.22930  1.0000
  C   C6        1.0  0.71600  0.67890  0.77070  1.0000
  H   H3        1.0  0.19530  0.32570  0.23260  1.0000
  H   H4        1.0  0.80470  0.67430  0.76740  1.0000
  O   O7        1.0  0.52800  0.18560  0.38251  1.0000
  O   O8        1.0  0.47200  0.81440  0.61749  1.0000
  C   C7        1.0  0.35510  0.27480  0.28090  1.0000
  C   C8        1.0  0.64490  0.72520  0.71910  1.0000
  H   H5        1.0  0.31480  0.24640  0.31910  1.0000
  H   H6        1.0  0.68520  0.75360  0.68090  1.0000
  O   O9        1.0  0.82350  0.52930  0.29018  1.0000
  O   O10       1.0  0.17650  0.47070  0.70982  1.0000
  C   C9        1.0  0.48800  0.27100  0.27545  1.0000
  C   C10       1.0  0.51200  0.72900  0.72455  1.0000
  C   C11       1.0  0.55350  0.38780  0.10756  1.0000
  C   C12       1.0  0.44650  0.61220  0.89244  1.0000
  O   O11       1.0  0.94760  0.72000  0.38432  1.0000
  O   O12       1.0  0.05240  0.28000  0.61568  1.0000
  O   O13       1.0  0.93320  0.15080  0.24597  1.0000
  O   O14       1.0  0.06680  0.84920  0.75403  1.0000
  C   C13       1.0  0.57820  0.22660  0.33110  1.0000
  C   C14       1.0  0.42180  0.77340  0.66890  1.0000
  O   O15       1.0  0.07450  0.11140  0.33861  1.0000
  O   O16       1.0  0.92550  0.88860  0.66139  1.0000
  C   C15       1.0  0.01090  0.52760  0.38344  1.0000
  C   C16       1.0  0.98910  0.47240  0.61656  1.0000
  O   O17       1.0  0.98440  0.39740  0.15726  1.0000
  O   O18       1.0  0.01560  0.60260  0.84274  1.0000
  C   C17       1.0  0.11180  0.58870  0.45510  1.0000
  C   C18       1.0  0.88820  0.41130  0.54490  1.0000
  H   H7        1.0  0.12980  0.67830  0.48390  1.0000
  H   H8        1.0  0.87020  0.32170  0.51610  1.0000
  O   O19       1.0  0.09040  0.41810  0.05693  1.0000
  O   O20       1.0  0.90960  0.58190  0.94307  1.0000
  C   C19       1.0  0.18480  0.51300  0.48270  1.0000
  C   C20       1.0  0.81520  0.48700  0.51730  1.0000
  H   H9        1.0  0.25300  0.55130  0.53060  1.0000
  H   H10       1.0  0.74700  0.44870  0.46940  1.0000
  O   O21       1.0  0.64310  0.06570  0.13257  1.0000
  O   O22       1.0  0.35690  0.93430  0.86743  1.0000
  C   C21       1.0  0.15560  0.38020  0.43860  1.0000
  C   C22       1.0  0.84440  0.61980  0.56140  1.0000
  H   H11       1.0  0.20280  0.32770  0.45670  1.0000
  H   H12       1.0  0.79720  0.67230  0.54330  1.0000
  C   C23       1.0  0.05530  0.32710  0.36728  1.0000
  C   C24       1.0  0.94470  0.67290  0.63272  1.0000
  O   O23       1.0  0.58710  0.87170  0.02923  1.0000
  O   O24       1.0  0.41290  0.12830  0.97077  1.0000
  C   C25       1.0  0.92060  0.59910  0.34990  1.0000
  C   C26       1.0  0.07940  0.40090  0.65010  1.0000
  O   O25       1.0  0.79600  0.60140  0.08066  1.0000
  O   O26       1.0  0.20400  0.39860  0.91934  1.0000
  H   H13       1.0  0.85030  0.60290  0.04800  1.0000
  H   H14       1.0  0.14970  0.39710  0.95200  1.0000
  H   H15       1.0  0.78410  0.52820  0.08760  1.0000
  H   H16       1.0  0.21590  0.47180  0.91240  1.0000
  C   C27       1.0  0.01780  0.18330  0.31330  1.0000
  C   C28       1.0  0.98220  0.81670  0.68670  1.0000
  O   O27       1.0  0.32810  0.64800  0.09760  1.0000
  O   O28       1.0  0.67190  0.35200  0.90240  1.0000
  H   H17       1.0  0.30030  0.67950  0.14170  1.0000
  H   H18       1.0  0.69970  0.32050  0.85830  1.0000
  H   H19       1.0  0.27830  0.57060  0.07210  1.0000
  H   H20       1.0  0.72170  0.42940  0.92790  1.0000
  O   O29       1.0  0.81380  0.87550  0.16954  1.0000
  O   O30       1.0  0.18620  0.12450  0.83046  1.0000
  H   H21       1.0  0.88140  0.84670  0.18150  1.0000
  H   H22       1.0  0.11860  0.15330  0.81850  1.0000
  H   H23       1.0  0.84860  0.95760  0.18640  1.0000
  H   H24       1.0  0.15140  0.04240  0.81360  1.0000
  C   C29       1.0  0.91650  0.22560  0.02780  1.0000
  C   C30       1.0  0.08350  0.77440  0.97220  1.0000
  O   O31       1.0  0.52950  0.89570  0.20564  1.0000
  O   O32       1.0  0.47050  0.10430  0.79436  1.0000
  H   H25       1.0  0.54690  0.95720  0.18660  1.0000
  H   H26       1.0  0.45310  0.04280  0.81340  1.0000
  H   H27       1.0  0.46680  0.91440  0.23080  1.0000
  H   H28       1.0  0.53320  0.08560  0.76920  1.0000
  O   O33       1.0  0.64300  0.66000  0.23453  1.0000
  O   O34       1.0  0.35700  0.34000  0.76547  1.0000
  H   H29       1.0  0.69910  0.61970  0.24800  1.0000
  H   H30       1.0  0.30090  0.38030  0.75200  1.0000
  H   H31       1.0  0.58450  0.66910  0.26470  1.0000
  H   H32       1.0  0.41550  0.33090  0.73530  1.0000
  C   C31       1.0  0.74350  0.04860  0.01700  1.0000
  C   C32       1.0  0.25650  0.95140  0.98300  1.0000
  C   C33       1.0  0.00460  0.35780  0.08420  1.0000
  C   C34       1.0  0.99540  0.64220  0.91580  1.0000
  C   C35       1.0  0.64920  0.98910  0.06218  1.0000
  C   C36       1.0  0.35080  0.01090  0.93782  1.0000
  C   C37       1.0  0.92740  0.16780  0.94730  1.0000
  C   C38       1.0  0.07260  0.83220  0.05270  1.0000
  H   H33       1.0  0.99200  0.20950  0.92480  1.0000
  H   H34       1.0  0.00800  0.79050  0.07520  1.0000
  C   C39       1.0  0.74660  0.98690  0.93610  1.0000
  C   C40       1.0  0.25340  0.01310  0.06390  1.0000
  H   H35       1.0  0.68650  0.90580  0.90530  1.0000
  H   H36       1.0  0.31350  0.09420  0.09470  1.0000
  C   C41       1.0  0.84100  0.04730  0.90090  1.0000
  C   C42       1.0  0.15900  0.95270  0.09910  1.0000
  H   H37       1.0  0.84580  0.00640  0.84610  1.0000
  H   H38       1.0  0.15420  0.99360  0.15390  1.0000
