data_image0
_chemical_formula_structural       Cd12O52H8O4H4O4H8N16C12H4C8H4C8H4C8H4C8H4C4H4C20H4C8H4C8H4C8H4C8H4C4H4C12H4C4H4C8H4C4H4C8H4C4H4C4H4C4H4
_chemical_formula_sum              "Cd12 O60 H100 N16 C152"
_cell_length_a       17.96
_cell_length_b       12.903
_cell_length_c       24.414
_cell_angle_alpha    90
_cell_angle_beta     127.047
_cell_angle_gamma    90

_space_group_name_H-M_alt    "P 1"
_space_group_IT_number       1

loop_
  _space_group_symop_operation_xyz
  'x, y, z'

loop_
  _atom_site_type_symbol
  _atom_site_label
  _atom_site_symmetry_multiplicity
  _atom_site_fract_x
  _atom_site_fract_y
  _atom_site_fract_z
  _atom_site_occupancy
  Cd  Cd1       1.0  0.73235  0.32482  0.77119  1.0000
  Cd  Cd2       1.0  0.26765  0.82482  0.72881  1.0000
  Cd  Cd3       1.0  0.26765  0.67518  0.22881  1.0000
  Cd  Cd4       1.0  0.73235  0.17518  0.27119  1.0000
  Cd  Cd5       1.0  0.62928  0.57193  0.68193  1.0000
  Cd  Cd6       1.0  0.37072  0.07193  0.81807  1.0000
  Cd  Cd7       1.0  0.37072  0.42807  0.31807  1.0000
  Cd  Cd8       1.0  0.62928  0.92807  0.18193  1.0000
  Cd  Cd9       1.0  0.87258  0.58054  0.80870  1.0000
  Cd  Cd10      1.0  0.12742  0.08054  0.69130  1.0000
  Cd  Cd11      1.0  0.12742  0.41946  0.19130  1.0000
  Cd  Cd12      1.0  0.87258  0.91946  0.30870  1.0000
  O   O1        1.0  0.60270  0.25730  0.66750  1.0000
  O   O2        1.0  0.39730  0.75730  0.83250  1.0000
  O   O3        1.0  0.39730  0.74270  0.33250  1.0000
  O   O4        1.0  0.60270  0.24270  0.16750  1.0000
  O   O5        1.0  0.63620  0.19050  0.76320  1.0000
  O   O6        1.0  0.36380  0.69050  0.73680  1.0000
  O   O7        1.0  0.36380  0.80950  0.23680  1.0000
  O   O8        1.0  0.63620  0.30950  0.26320  1.0000
  O   O9        1.0  0.40810  0.96610  0.75660  1.0000
  O   O10       1.0  0.59190  0.46610  0.74340  1.0000
  O   O11       1.0  0.59190  0.03390  0.24340  1.0000
  O   O12       1.0  0.40810  0.53390  0.25660  1.0000
  O   O13       1.0  0.28780  0.90390  0.65580  1.0000
  O   O14       1.0  0.71220  0.40390  0.84420  1.0000
  O   O15       1.0  0.71220  0.09610  0.34420  1.0000
  O   O16       1.0  0.28780  0.59610  0.15580  1.0000
  O   O17       1.0  0.31090  0.32800  0.36140  1.0000
  O   O18       1.0  0.68910  0.82800  0.13860  1.0000
  O   O19       1.0  0.68910  0.67200  0.63860  1.0000
  O   O20       1.0  0.31090  0.17200  0.86140  1.0000
  O   O21       1.0  0.17540  0.27750  0.26470  1.0000
  O   O22       1.0  0.82460  0.77750  0.23530  1.0000
  O   O23       1.0  0.82460  0.72250  0.73530  1.0000
  O   O24       1.0  0.17540  0.22250  0.76470  1.0000
  O   O25       1.0  0.83100  0.21060  0.76010  1.0000
  O   O26       1.0  0.16900  0.71060  0.73990  1.0000
  O   O27       1.0  0.16900  0.78940  0.23990  1.0000
  O   O28       1.0  0.83100  0.28940  0.26010  1.0000
  O   O29       1.0  0.88080  0.27010  0.86170  1.0000
  O   O30       1.0  0.11920  0.77010  0.63830  1.0000
  O   O31       1.0  0.11920  0.72990  0.13830  1.0000
  O   O32       1.0  0.88080  0.22990  0.36170  1.0000
  O   O33       1.0  0.20690  0.34380  0.15630  1.0000
  O   O34       1.0  0.79310  0.84380  0.34370  1.0000
  O   O35       1.0  0.79310  0.65620  0.84370  1.0000
  O   O36       1.0  0.20690  0.15620  0.65630  1.0000
  O   O37       1.0  0.34760  0.29630  0.24770  1.0000
  O   O38       1.0  0.65240  0.79630  0.25230  1.0000
  O   O39       1.0  0.65240  0.70370  0.75230  1.0000
  O   O40       1.0  0.34760  0.20370  0.74770  1.0000
  O   O41       1.0  0.17860  0.94240  0.83490  1.0000
  O   O42       1.0  0.82140  0.44240  0.66510  1.0000
  O   O43       1.0  0.82140  0.05760  0.16510  1.0000
  O   O44       1.0  0.17860  0.55760  0.33490  1.0000
  O   O45       1.0  0.05930  0.02290  0.74030  1.0000
  O   O46       1.0  0.94070  0.52290  0.75970  1.0000
  O   O47       1.0  0.94070  0.97710  0.25970  1.0000
  O   O48       1.0  0.05930  0.47710  0.24030  1.0000
  O   O49       1.0  0.92860  0.46840  0.90030  1.0000
  O   O50       1.0  0.07140  0.96840  0.59970  1.0000
  O   O51       1.0  0.07140  0.53160  0.09970  1.0000
  O   O52       1.0  0.92860  0.03160  0.40030  1.0000
  H   H1        1.0  0.90690  0.41060  0.87980  1.0000
  H   H2        1.0  0.09310  0.91060  0.62020  1.0000
  H   H3        1.0  0.09310  0.58940  0.12020  1.0000
  H   H4        1.0  0.90690  0.08940  0.37980  1.0000
  H   H5        1.0  0.89990  0.49030  0.91570  1.0000
  H   H6        1.0  0.10010  0.99030  0.58430  1.0000
  H   H7        1.0  0.10010  0.50970  0.08430  1.0000
  H   H8        1.0  0.89990  0.00970  0.41570  1.0000
  O   O53       1.0  0.75600  0.47180  0.73870  1.0000
  O   O54       1.0  0.24400  0.97180  0.76130  1.0000
  O   O55       1.0  0.24400  0.52820  0.26130  1.0000
  O   O56       1.0  0.75600  0.02820  0.23870  1.0000
  H   H9        1.0  0.76410  0.45470  0.70900  1.0000
  H   H10       1.0  0.23590  0.95470  0.79100  1.0000
  H   H11       1.0  0.23590  0.54530  0.29100  1.0000
  H   H12       1.0  0.76410  0.04530  0.20900  1.0000
  O   O57       1.0  0.56970  0.44170  0.59920  1.0000
  O   O58       1.0  0.43030  0.94170  0.90080  1.0000
  O   O59       1.0  0.43030  0.55830  0.40080  1.0000
  O   O60       1.0  0.56970  0.05830  0.09920  1.0000
  H   H13       1.0  0.58440  0.38650  0.62270  1.0000
  H   H14       1.0  0.41560  0.88650  0.87730  1.0000
  H   H15       1.0  0.41560  0.61350  0.37730  1.0000
  H   H16       1.0  0.58440  0.11350  0.12270  1.0000
  H   H17       1.0  0.51310  0.43660  0.56410  1.0000
  H   H18       1.0  0.48690  0.93660  0.93590  1.0000
  H   H19       1.0  0.48690  0.56340  0.43590  1.0000
  H   H20       1.0  0.51310  0.06340  0.06410  1.0000
  N   N1        1.0  0.19260  0.07280  0.44600  1.0000
  N   N2        1.0  0.80740  0.57280  0.05400  1.0000
  N   N3        1.0  0.80740  0.92720  0.55400  1.0000
  N   N4        1.0  0.19260  0.42720  0.94600  1.0000
  N   N5        1.0  0.29970  0.08940  0.05580  1.0000
  N   N6        1.0  0.70030  0.58940  0.44420  1.0000
  N   N7        1.0  0.70030  0.91060  0.94420  1.0000
  N   N8        1.0  0.29970  0.41060  0.55580  1.0000
  N   N9        1.0  0.01350  0.66890  0.88480  1.0000
  N   N10       1.0  0.98650  0.16890  0.61520  1.0000
  N   N11       1.0  0.98650  0.33110  0.11520  1.0000
  N   N12       1.0  0.01350  0.83110  0.38480  1.0000
  N   N13       1.0  0.48110  0.85200  0.10690  1.0000
  N   N14       1.0  0.51890  0.35200  0.39310  1.0000
  N   N15       1.0  0.51890  0.14800  0.89310  1.0000
  N   N16       1.0  0.48110  0.64800  0.60690  1.0000
  C   C1        1.0  0.58310  0.19960  0.69900  1.0000
  C   C2        1.0  0.41690  0.69960  0.80100  1.0000
  C   C3        1.0  0.41690  0.80040  0.30100  1.0000
  C   C4        1.0  0.58310  0.30040  0.19900  1.0000
  C   C5        1.0  0.49460  0.13920  0.65890  1.0000
  C   C6        1.0  0.50540  0.63920  0.84110  1.0000
  C   C7        1.0  0.50540  0.86080  0.34110  1.0000
  C   C8        1.0  0.49460  0.36080  0.15890  1.0000
  C   C9        1.0  0.47270  0.07450  0.69230  1.0000
  C   C10       1.0  0.52730  0.57450  0.80770  1.0000
  C   C11       1.0  0.52730  0.92550  0.30770  1.0000
  C   C12       1.0  0.47270  0.42550  0.19230  1.0000
  H   H21       1.0  0.51400  0.06000  0.73800  1.0000
  H   H22       1.0  0.48600  0.56000  0.76200  1.0000
  H   H23       1.0  0.48600  0.94000  0.26200  1.0000
  H   H24       1.0  0.51400  0.44000  0.23800  1.0000
  C   C13       1.0  0.38850  0.02040  0.65540  1.0000
  C   C14       1.0  0.61150  0.52040  0.84460  1.0000
  C   C15       1.0  0.61150  0.97960  0.34460  1.0000
  C   C16       1.0  0.38850  0.47960  0.15540  1.0000
  C   C17       1.0  0.32870  0.03270  0.58510  1.0000
  C   C18       1.0  0.67130  0.53270  0.91490  1.0000
  C   C19       1.0  0.67130  0.96730  0.41490  1.0000
  C   C20       1.0  0.32870  0.46730  0.08510  1.0000
  H   H25       1.0  0.27300  0.99700  0.56300  1.0000
  H   H26       1.0  0.72700  0.49700  0.93700  1.0000
  H   H27       1.0  0.72700  0.00300  0.43700  1.0000
  H   H28       1.0  0.27300  0.50300  0.06300  1.0000
  C   C21       1.0  0.34630  0.10030  0.55020  1.0000
  C   C22       1.0  0.65370  0.60030  0.94980  1.0000
  C   C23       1.0  0.65370  0.89970  0.44980  1.0000
  C   C24       1.0  0.34630  0.39970  0.05020  1.0000
  C   C25       1.0  0.43090  0.15330  0.58790  1.0000
  C   C26       1.0  0.56910  0.65330  0.91210  1.0000
  C   C27       1.0  0.56910  0.84670  0.41210  1.0000
  C   C28       1.0  0.43090  0.34670  0.08790  1.0000
  H   H29       1.0  0.44500  0.19400  0.57000  1.0000
  H   H30       1.0  0.55500  0.69400  0.93000  1.0000
  H   H31       1.0  0.55500  0.80600  0.43000  1.0000
  H   H32       1.0  0.44500  0.30600  0.07000  1.0000
  C   C29       1.0  0.27540  0.11890  0.47510  1.0000
  C   C30       1.0  0.72460  0.61890  0.02490  1.0000
  C   C31       1.0  0.72460  0.88110  0.52490  1.0000
  C   C32       1.0  0.27540  0.38110  0.97510  1.0000
  C   C33       1.0  0.29170  0.18290  0.43760  1.0000
  C   C34       1.0  0.70830  0.68290  0.06240  1.0000
  C   C35       1.0  0.70830  0.81710  0.56240  1.0000
  C   C36       1.0  0.29170  0.31710  0.93760  1.0000
  H   H33       1.0  0.34900  0.21200  0.46000  1.0000
  H   H34       1.0  0.65100  0.71200  0.04000  1.0000
  H   H35       1.0  0.65100  0.78800  0.54000  1.0000
  H   H36       1.0  0.34900  0.28800  0.96000  1.0000
  C   C37       1.0  0.22190  0.19940  0.36800  1.0000
  C   C38       1.0  0.77810  0.69940  0.13200  1.0000
  C   C39       1.0  0.77810  0.80060  0.63200  1.0000
  C   C40       1.0  0.22190  0.30060  0.86800  1.0000
  C   C41       1.0  0.13770  0.14860  0.33800  1.0000
  C   C42       1.0  0.86230  0.64860  0.16200  1.0000
  C   C43       1.0  0.86230  0.85140  0.66200  1.0000
  C   C44       1.0  0.13770  0.35140  0.83800  1.0000
  H   H37       1.0  0.08800  0.16200  0.28800  1.0000
  H   H38       1.0  0.91200  0.66200  0.21200  1.0000
  H   H39       1.0  0.91200  0.83800  0.71200  1.0000
  H   H40       1.0  0.08800  0.33800  0.78800  1.0000
  C   C45       1.0  0.12740  0.08740  0.37910  1.0000
  C   C46       1.0  0.87260  0.58740  0.12090  1.0000
  C   C47       1.0  0.87260  0.91260  0.62090  1.0000
  C   C48       1.0  0.12740  0.41260  0.87910  1.0000
  H   H41       1.0  0.06600  0.05600  0.36300  1.0000
  H   H42       1.0  0.93400  0.55600  0.13700  1.0000
  H   H43       1.0  0.93400  0.94400  0.63700  1.0000
  H   H44       1.0  0.06600  0.44400  0.86300  1.0000
  C   C49       1.0  0.23750  0.27490  0.32810  1.0000
  C   C50       1.0  0.76250  0.77490  0.17190  1.0000
  C   C51       1.0  0.76250  0.72510  0.67190  1.0000
  C   C52       1.0  0.23750  0.22510  0.82810  1.0000
  C   C53       1.0  0.35960  0.95880  0.69180  1.0000
  C   C54       1.0  0.64040  0.45880  0.80820  1.0000
  C   C55       1.0  0.64040  0.04120  0.30820  1.0000
  C   C56       1.0  0.35960  0.54120  0.19180  1.0000
  C   C57       1.0  0.89270  0.21950  0.82280  1.0000
  C   C58       1.0  0.10730  0.71950  0.67720  1.0000
  C   C59       1.0  0.10730  0.78050  0.17720  1.0000
  C   C60       1.0  0.89270  0.28050  0.32280  1.0000
  C   C61       1.0  0.98590  0.16580  0.85520  1.0000
  C   C62       1.0  0.01410  0.66580  0.64480  1.0000
  C   C63       1.0  0.01410  0.83420  0.14480  1.0000
  C   C64       1.0  0.98590  0.33420  0.35520  1.0000
  C   C65       1.0  0.05640  0.17810  0.92510  1.0000
  C   C66       1.0  0.94360  0.67810  0.57490  1.0000
  C   C67       1.0  0.94360  0.82190  0.07490  1.0000
  C   C68       1.0  0.05640  0.32190  0.42510  1.0000
  H   H45       1.0  0.04500  0.22500  0.95200  1.0000
  H   H46       1.0  0.95500  0.72500  0.54800  1.0000
  H   H47       1.0  0.95500  0.77500  0.04800  1.0000
  H   H48       1.0  0.04500  0.27500  0.45200  1.0000
  C   C69       1.0  0.14120  0.12710  0.95680  1.0000
  C   C70       1.0  0.85880  0.62710  0.54320  1.0000
  C   C71       1.0  0.85880  0.87290  0.04320  1.0000
  C   C72       1.0  0.14120  0.37290  0.45680  1.0000
  C   C73       1.0  0.15360  0.06420  0.91620  1.0000
  C   C74       1.0  0.84640  0.56420  0.58380  1.0000
  C   C75       1.0  0.84640  0.93580  0.08380  1.0000
  C   C76       1.0  0.15360  0.43580  0.41620  1.0000
  H   H49       1.0  0.20800  0.02800  0.93700  1.0000
  H   H50       1.0  0.79200  0.52800  0.56300  1.0000
  H   H51       1.0  0.79200  0.97200  0.06300  1.0000
  H   H52       1.0  0.20800  0.47200  0.43700  1.0000
  C   C77       1.0  0.08590  0.05590  0.84650  1.0000
  C   C78       1.0  0.91410  0.55590  0.65350  1.0000
  C   C79       1.0  0.91410  0.94410  0.15350  1.0000
  C   C80       1.0  0.08590  0.44410  0.34650  1.0000
  C   C81       1.0  0.00040  0.10760  0.81580  1.0000
  C   C82       1.0  0.99960  0.60760  0.68420  1.0000
  C   C83       1.0  0.99960  0.89240  0.18420  1.0000
  C   C84       1.0  0.00040  0.39240  0.31580  1.0000
  H   H53       1.0  0.95300  0.09500  0.76700  1.0000
  H   H54       1.0  0.04700  0.59500  0.73300  1.0000
  H   H55       1.0  0.04700  0.90500  0.23300  1.0000
  H   H56       1.0  0.95300  0.40500  0.26700  1.0000
  C   C85       1.0  0.21940  0.14150  0.03110  1.0000
  C   C86       1.0  0.78060  0.64150  0.46890  1.0000
  C   C87       1.0  0.78060  0.85850  0.96890  1.0000
  C   C88       1.0  0.21940  0.35850  0.53110  1.0000
  C   C89       1.0  0.21270  0.20500  0.07290  1.0000
  C   C90       1.0  0.78730  0.70500  0.42710  1.0000
  C   C91       1.0  0.78730  0.79500  0.92710  1.0000
  C   C92       1.0  0.21270  0.29500  0.57290  1.0000
  H   H57       1.0  0.16200  0.24300  0.05700  1.0000
  H   H58       1.0  0.83800  0.74300  0.44300  1.0000
  H   H59       1.0  0.83800  0.75700  0.94300  1.0000
  H   H60       1.0  0.16200  0.25700  0.55700  1.0000
  C   C93       1.0  0.28720  0.21730  0.14170  1.0000
  C   C94       1.0  0.71280  0.71730  0.35830  1.0000
  C   C95       1.0  0.71280  0.78270  0.85830  1.0000
  C   C96       1.0  0.28720  0.28270  0.64170  1.0000
  C   C97       1.0  0.36770  0.16210  0.16720  1.0000
  C   C98       1.0  0.63230  0.66210  0.33280  1.0000
  C   C99       1.0  0.63230  0.83790  0.83280  1.0000
  C   C100      1.0  0.36770  0.33790  0.66720  1.0000
  H   H61       1.0  0.42300  0.16800  0.21400  1.0000
  H   H62       1.0  0.57700  0.66800  0.28600  1.0000
  H   H63       1.0  0.57700  0.83200  0.78600  1.0000
  H   H64       1.0  0.42300  0.33200  0.71400  1.0000
  C   C101      1.0  0.37060  0.09980  0.12250  1.0000
  C   C102      1.0  0.62940  0.59980  0.37750  1.0000
  C   C103      1.0  0.62940  0.90020  0.87750  1.0000
  C   C104      1.0  0.37060  0.40020  0.62250  1.0000
  H   H65       1.0  0.42500  0.05700  0.13700  1.0000
  H   H66       1.0  0.57500  0.55700  0.36300  1.0000
  H   H67       1.0  0.57500  0.94300  0.86300  1.0000
  H   H68       1.0  0.42500  0.44300  0.63700  1.0000
  C   C105      1.0  0.27990  0.29190  0.18570  1.0000
  C   C106      1.0  0.72010  0.79190  0.31430  1.0000
  C   C107      1.0  0.72010  0.70810  0.81430  1.0000
  C   C108      1.0  0.27990  0.20810  0.68570  1.0000
  C   C109      1.0  0.10960  0.00050  0.80420  1.0000
  C   C110      1.0  0.89040  0.50050  0.69580  1.0000
  C   C111      1.0  0.89040  0.99950  0.19580  1.0000
  C   C112      1.0  0.10960  0.49950  0.30420  1.0000
  C   C113      1.0  0.05590  0.70890  0.85950  1.0000
  C   C114      1.0  0.94410  0.20890  0.64050  1.0000
  C   C115      1.0  0.94410  0.29110  0.14050  1.0000
  C   C116      1.0  0.05590  0.79110  0.35950  1.0000
  H   H69       1.0  0.02800  0.70500  0.81800  1.0000
  H   H70       1.0  0.97200  0.20500  0.68200  1.0000
  H   H71       1.0  0.97200  0.29500  0.18200  1.0000
  H   H72       1.0  0.02800  0.79500  0.31800  1.0000
  C   C117      1.0  0.14630  0.74720  0.90110  1.0000
  C   C118      1.0  0.85370  0.24720  0.59890  1.0000
  C   C119      1.0  0.85370  0.25280  0.09890  1.0000
  C   C120      1.0  0.14630  0.75280  0.40110  1.0000
  H   H73       1.0  0.16600  0.76800  0.87600  1.0000
  H   H74       1.0  0.83400  0.26800  0.62400  1.0000
  H   H75       1.0  0.83400  0.23200  0.12400  1.0000
  H   H76       1.0  0.16600  0.73200  0.37600  1.0000
  C   C121      1.0  0.19760  0.74360  0.97210  1.0000
  C   C122      1.0  0.80240  0.24360  0.52790  1.0000
  C   C123      1.0  0.80240  0.25640  0.02790  1.0000
  C   C124      1.0  0.19760  0.75640  0.47210  1.0000
  C   C125      1.0  0.15180  0.70280  0.99820  1.0000
  C   C126      1.0  0.84820  0.20280  0.50180  1.0000
  C   C127      1.0  0.84820  0.29720  0.00180  1.0000
  C   C128      1.0  0.15180  0.79720  0.49820  1.0000
  H   H77       1.0  0.17600  0.69700  0.04100  1.0000
  H   H78       1.0  0.82400  0.19700  0.45900  1.0000
  H   H79       1.0  0.82400  0.30300  0.95900  1.0000
  H   H80       1.0  0.17600  0.80300  0.54100  1.0000
  C   C129      1.0  0.06190  0.66820  0.95350  1.0000
  C   C130      1.0  0.93810  0.16820  0.54650  1.0000
  C   C131      1.0  0.93810  0.33180  0.04650  1.0000
  C   C132      1.0  0.06190  0.83180  0.45350  1.0000
  H   H81       1.0  0.02300  0.64300  0.96400  1.0000
  H   H82       1.0  0.97700  0.14300  0.53600  1.0000
  H   H83       1.0  0.97700  0.35700  0.03600  1.0000
  H   H84       1.0  0.02300  0.85700  0.46400  1.0000
  C   C133      1.0  0.29560  0.78090  0.01840  1.0000
  C   C134      1.0  0.70440  0.28090  0.48160  1.0000
  C   C135      1.0  0.70440  0.21910  0.98160  1.0000
  C   C136      1.0  0.29560  0.71910  0.51840  1.0000
  C   C137      1.0  0.34050  0.82250  0.99360  1.0000
  C   C138      1.0  0.65950  0.32250  0.50640  1.0000
  C   C139      1.0  0.65950  0.17750  0.00640  1.0000
  C   C140      1.0  0.34050  0.67750  0.49360  1.0000
  H   H85       1.0  0.31300  0.82000  0.94600  1.0000
  H   H86       1.0  0.68700  0.32000  0.55400  1.0000
  H   H87       1.0  0.68700  0.18000  0.05400  1.0000
  H   H88       1.0  0.31300  0.68000  0.44600  1.0000
  C   C141      1.0  0.43150  0.85650  0.03860  1.0000
  C   C142      1.0  0.56850  0.35650  0.46140  1.0000
  C   C143      1.0  0.56850  0.14350  0.96140  1.0000
  C   C144      1.0  0.43150  0.64350  0.53860  1.0000
  H   H89       1.0  0.46200  0.88400  0.02300  1.0000
  H   H90       1.0  0.53800  0.38400  0.47700  1.0000
  H   H91       1.0  0.53800  0.11600  0.97700  1.0000
  H   H92       1.0  0.46200  0.61600  0.52300  1.0000
  C   C145      1.0  0.43720  0.81200  0.13070  1.0000
  C   C146      1.0  0.56280  0.31200  0.36930  1.0000
  C   C147      1.0  0.56280  0.18800  0.86930  1.0000
  C   C148      1.0  0.43720  0.68800  0.63070  1.0000
  H   H93       1.0  0.47100  0.80200  0.17800  1.0000
  H   H94       1.0  0.52900  0.30200  0.32200  1.0000
  H   H95       1.0  0.52900  0.19800  0.82200  1.0000
  H   H96       1.0  0.47100  0.69800  0.67800  1.0000
  C   C149      1.0  0.34720  0.77650  0.08970  1.0000
  C   C150      1.0  0.65280  0.27650  0.41030  1.0000
  C   C151      1.0  0.65280  0.22350  0.91030  1.0000
  C   C152      1.0  0.34720  0.72350  0.58970  1.0000
  H   H97       1.0  0.32000  0.74300  0.10700  1.0000
  H   H98       1.0  0.68000  0.24300  0.39300  1.0000
  H   H99       1.0  0.68000  0.25700  0.89300  1.0000
  H   H100      1.0  0.32000  0.75700  0.60700  1.0000
