data_image0
_chemical_formula_structural       Cd6C54N18C18H18C18H18C18N18
_chemical_formula_sum              "Cd6 C108 N36 H36"
_cell_length_a       12.6751
_cell_length_b       12.6751
_cell_length_c       32.243
_cell_angle_alpha    90
_cell_angle_beta     90
_cell_angle_gamma    120

_space_group_name_H-M_alt    "P 1"
_space_group_IT_number       1

loop_
  _space_group_symop_operation_xyz
  'x, y, z'

loop_
  _atom_site_type_symbol
  _atom_site_label
  _atom_site_symmetry_multiplicity
  _atom_site_fract_x
  _atom_site_fract_y
  _atom_site_fract_z
  _atom_site_occupancy
  Cd  Cd1       1.0  0.33340  0.66660  0.16660  1.0000
  Cd  Cd2       1.0  0.00007  0.99993  0.49993  1.0000
  Cd  Cd3       1.0  0.66673  0.33327  0.83327  1.0000
  Cd  Cd4       1.0  0.00000  0.00000  0.00000  1.0000
  Cd  Cd5       1.0  0.66667  0.33333  0.33333  1.0000
  Cd  Cd6       1.0  0.33333  0.66667  0.66667  1.0000
  C   C1        1.0  0.04070  0.21390  0.07478  1.0000
  C   C2        1.0  0.78610  0.82680  0.07478  1.0000
  C   C3        1.0  0.17320  0.95930  0.07478  1.0000
  C   C4        1.0  0.70737  0.54723  0.40811  1.0000
  C   C5        1.0  0.45277  0.16013  0.40811  1.0000
  C   C6        1.0  0.83987  0.29263  0.40811  1.0000
  C   C7        1.0  0.37403  0.88057  0.74145  1.0000
  C   C8        1.0  0.11943  0.49347  0.74145  1.0000
  C   C9        1.0  0.50653  0.62597  0.74145  1.0000
  C   C10       1.0  0.95930  0.78610  0.92522  1.0000
  C   C11       1.0  0.21390  0.17320  0.92522  1.0000
  C   C12       1.0  0.82680  0.04070  0.92522  1.0000
  C   C13       1.0  0.29263  0.45277  0.59189  1.0000
  C   C14       1.0  0.54723  0.83987  0.59189  1.0000
  C   C15       1.0  0.16013  0.70737  0.59189  1.0000
  C   C16       1.0  0.62597  0.11943  0.25855  1.0000
  C   C17       1.0  0.88057  0.50653  0.25855  1.0000
  C   C18       1.0  0.49347  0.37403  0.25855  1.0000
  C   C19       1.0  0.13900  0.39120  0.11938  1.0000
  C   C20       1.0  0.60880  0.74780  0.11938  1.0000
  C   C21       1.0  0.25220  0.86100  0.11938  1.0000
  C   C22       1.0  0.80567  0.72453  0.45271  1.0000
  C   C23       1.0  0.27547  0.08113  0.45271  1.0000
  C   C24       1.0  0.91887  0.19433  0.45271  1.0000
  C   C25       1.0  0.47233  0.05787  0.78605  1.0000
  C   C26       1.0  0.94213  0.41447  0.78605  1.0000
  C   C27       1.0  0.58553  0.52767  0.78605  1.0000
  C   C28       1.0  0.86100  0.60880  0.88062  1.0000
  C   C29       1.0  0.39120  0.25220  0.88062  1.0000
  C   C30       1.0  0.74780  0.13900  0.88062  1.0000
  C   C31       1.0  0.19433  0.27547  0.54729  1.0000
  C   C32       1.0  0.72453  0.91887  0.54729  1.0000
  C   C33       1.0  0.08113  0.80567  0.54729  1.0000
  C   C34       1.0  0.52767  0.94213  0.21395  1.0000
  C   C35       1.0  0.05787  0.58553  0.21395  1.0000
  C   C36       1.0  0.41447  0.47233  0.21395  1.0000
  C   C37       1.0  0.93470  0.21970  0.13911  1.0000
  C   C38       1.0  0.78030  0.71500  0.13911  1.0000
  C   C39       1.0  0.28500  0.06530  0.13911  1.0000
  C   C40       1.0  0.60137  0.55303  0.47244  1.0000
  C   C41       1.0  0.44697  0.04833  0.47244  1.0000
  C   C42       1.0  0.95167  0.39863  0.47244  1.0000
  C   C43       1.0  0.26803  0.88637  0.80578  1.0000
  C   C44       1.0  0.11363  0.38167  0.80578  1.0000
  C   C45       1.0  0.61833  0.73197  0.80578  1.0000
  C   C46       1.0  0.06530  0.78030  0.86089  1.0000
  C   C47       1.0  0.21970  0.28500  0.86089  1.0000
  C   C48       1.0  0.71500  0.93470  0.86089  1.0000
  C   C49       1.0  0.39863  0.44697  0.52756  1.0000
  C   C50       1.0  0.55303  0.95167  0.52756  1.0000
  C   C51       1.0  0.04833  0.60137  0.52756  1.0000
  C   C52       1.0  0.73197  0.11363  0.19422  1.0000
  C   C53       1.0  0.88637  0.61833  0.19422  1.0000
  C   C54       1.0  0.38167  0.26803  0.19422  1.0000
  N   N1        1.0  0.21585  0.48808  0.12814  1.0000
  N   N2        1.0  0.51192  0.72777  0.12814  1.0000
  N   N3        1.0  0.27223  0.78415  0.12814  1.0000
  N   N4        1.0  0.88252  0.82141  0.46147  1.0000
  N   N5        1.0  0.17859  0.06110  0.46147  1.0000
  N   N6        1.0  0.93890  0.11748  0.46147  1.0000
  N   N7        1.0  0.54918  0.15475  0.79481  1.0000
  N   N8        1.0  0.84525  0.39444  0.79481  1.0000
  N   N9        1.0  0.60556  0.45082  0.79481  1.0000
  N   N10       1.0  0.78415  0.51192  0.87186  1.0000
  N   N11       1.0  0.48808  0.27223  0.87186  1.0000
  N   N12       1.0  0.72777  0.21585  0.87186  1.0000
  N   N13       1.0  0.11748  0.17859  0.53853  1.0000
  N   N14       1.0  0.82141  0.93890  0.53853  1.0000
  N   N15       1.0  0.06110  0.88252  0.53853  1.0000
  N   N16       1.0  0.45082  0.84525  0.20519  1.0000
  N   N17       1.0  0.15475  0.60556  0.20519  1.0000
  N   N18       1.0  0.39444  0.54918  0.20519  1.0000
  C   C55       1.0  0.83320  0.10560  0.13113  1.0000
  C   C56       1.0  0.89440  0.72760  0.13113  1.0000
  C   C57       1.0  0.27240  0.16680  0.13113  1.0000
  C   C58       1.0  0.49987  0.43893  0.46446  1.0000
  C   C59       1.0  0.56107  0.06093  0.46446  1.0000
  C   C60       1.0  0.93907  0.50013  0.46446  1.0000
  C   C61       1.0  0.16653  0.77227  0.79780  1.0000
  C   C62       1.0  0.22773  0.39427  0.79780  1.0000
  C   C63       1.0  0.60573  0.83347  0.79780  1.0000
  C   C64       1.0  0.16680  0.89440  0.86887  1.0000
  C   C65       1.0  0.10560  0.27240  0.86887  1.0000
  C   C66       1.0  0.72760  0.83320  0.86887  1.0000
  C   C67       1.0  0.50013  0.56107  0.53554  1.0000
  C   C68       1.0  0.43893  0.93907  0.53554  1.0000
  C   C69       1.0  0.06093  0.49987  0.53554  1.0000
  C   C70       1.0  0.83347  0.22773  0.20220  1.0000
  C   C71       1.0  0.77227  0.60573  0.20220  1.0000
  C   C72       1.0  0.39427  0.16653  0.20220  1.0000
  H   H1        1.0  0.83180  0.06260  0.10680  1.0000
  H   H2        1.0  0.93740  0.76920  0.10680  1.0000
  H   H3        1.0  0.23080  0.16820  0.10680  1.0000
  H   H4        1.0  0.49847  0.39593  0.44013  1.0000
  H   H5        1.0  0.60407  0.10253  0.44013  1.0000
  H   H6        1.0  0.89747  0.50153  0.44013  1.0000
  H   H7        1.0  0.16513  0.72927  0.77347  1.0000
  H   H8        1.0  0.27073  0.43587  0.77347  1.0000
  H   H9        1.0  0.56413  0.83487  0.77347  1.0000
  H   H10       1.0  0.16820  0.93740  0.89320  1.0000
  H   H11       1.0  0.06260  0.23080  0.89320  1.0000
  H   H12       1.0  0.76920  0.83180  0.89320  1.0000
  H   H13       1.0  0.50153  0.60407  0.55987  1.0000
  H   H14       1.0  0.39593  0.89747  0.55987  1.0000
  H   H15       1.0  0.10253  0.49847  0.55987  1.0000
  H   H16       1.0  0.83487  0.27073  0.22653  1.0000
  H   H17       1.0  0.72927  0.56413  0.22653  1.0000
  H   H18       1.0  0.43587  0.16513  0.22653  1.0000
  C   C73       1.0  0.93240  0.27970  0.17540  1.0000
  C   C74       1.0  0.72030  0.65270  0.17540  1.0000
  C   C75       1.0  0.34730  0.06760  0.17540  1.0000
  C   C76       1.0  0.59907  0.61303  0.50873  1.0000
  C   C77       1.0  0.38697  0.98603  0.50873  1.0000
  C   C78       1.0  0.01397  0.40093  0.50873  1.0000
  C   C79       1.0  0.26573  0.94637  0.84207  1.0000
  C   C80       1.0  0.05363  0.31937  0.84207  1.0000
  C   C81       1.0  0.68063  0.73427  0.84207  1.0000
  C   C82       1.0  0.06760  0.72030  0.82460  1.0000
  C   C83       1.0  0.27970  0.34730  0.82460  1.0000
  C   C84       1.0  0.65270  0.93240  0.82460  1.0000
  C   C85       1.0  0.40093  0.38697  0.49127  1.0000
  C   C86       1.0  0.61303  0.01397  0.49127  1.0000
  C   C87       1.0  0.98603  0.59907  0.49127  1.0000
  C   C88       1.0  0.73427  0.05363  0.15793  1.0000
  C   C89       1.0  0.94637  0.68063  0.15793  1.0000
  C   C90       1.0  0.31937  0.26573  0.15793  1.0000
  H   H19       1.0  0.99990  0.35750  0.18170  1.0000
  H   H20       1.0  0.64250  0.64240  0.18170  1.0000
  H   H21       1.0  0.35760  0.00010  0.18170  1.0000
  H   H22       1.0  0.66657  0.69083  0.51503  1.0000
  H   H23       1.0  0.30917  0.97573  0.51503  1.0000
  H   H24       1.0  0.02427  0.33343  0.51503  1.0000
  H   H25       1.0  0.33323  0.02417  0.84837  1.0000
  H   H26       1.0  0.97583  0.30907  0.84837  1.0000
  H   H27       1.0  0.69093  0.66677  0.84837  1.0000
  H   H28       1.0  0.00010  0.64250  0.81830  1.0000
  H   H29       1.0  0.35750  0.35760  0.81830  1.0000
  H   H30       1.0  0.64240  0.99990  0.81830  1.0000
  H   H31       1.0  0.33343  0.30917  0.48497  1.0000
  H   H32       1.0  0.69083  0.02427  0.48497  1.0000
  H   H33       1.0  0.97573  0.66657  0.48497  1.0000
  H   H34       1.0  0.66677  0.97583  0.15163  1.0000
  H   H35       1.0  0.02417  0.69093  0.15163  1.0000
  H   H36       1.0  0.30907  0.33323  0.15163  1.0000
  C   C91       1.0  0.04000  0.27520  0.11090  1.0000
  C   C92       1.0  0.72480  0.76480  0.11090  1.0000
  C   C93       1.0  0.23520  0.96000  0.11090  1.0000
  C   C94       1.0  0.70667  0.60853  0.44423  1.0000
  C   C95       1.0  0.39147  0.09813  0.44423  1.0000
  C   C96       1.0  0.90187  0.29333  0.44423  1.0000
  C   C97       1.0  0.37333  0.94187  0.77757  1.0000
  C   C98       1.0  0.05813  0.43147  0.77757  1.0000
  C   C99       1.0  0.56853  0.62667  0.77757  1.0000
  C   C100      1.0  0.96000  0.72480  0.88910  1.0000
  C   C101      1.0  0.27520  0.23520  0.88910  1.0000
  C   C102      1.0  0.76480  0.04000  0.88910  1.0000
  C   C103      1.0  0.29333  0.39147  0.55577  1.0000
  C   C104      1.0  0.60853  0.90187  0.55577  1.0000
  C   C105      1.0  0.09813  0.70667  0.55577  1.0000
  C   C106      1.0  0.62667  0.05813  0.22243  1.0000
  C   C107      1.0  0.94187  0.56853  0.22243  1.0000
  C   C108      1.0  0.43147  0.37333  0.22243  1.0000
  N   N19       1.0  0.03591  0.15919  0.04544  1.0000
  N   N20       1.0  0.84081  0.87672  0.04544  1.0000
  N   N21       1.0  0.12328  0.96409  0.04544  1.0000
  N   N22       1.0  0.70258  0.49252  0.37877  1.0000
  N   N23       1.0  0.50748  0.21005  0.37877  1.0000
  N   N24       1.0  0.78995  0.29742  0.37877  1.0000
  N   N25       1.0  0.36924  0.82586  0.71211  1.0000
  N   N26       1.0  0.17414  0.54339  0.71211  1.0000
  N   N27       1.0  0.45661  0.63076  0.71211  1.0000
  N   N28       1.0  0.96409  0.84081  0.95456  1.0000
  N   N29       1.0  0.15919  0.12328  0.95456  1.0000
  N   N30       1.0  0.87672  0.03591  0.95456  1.0000
  N   N31       1.0  0.29742  0.50748  0.62123  1.0000
  N   N32       1.0  0.49252  0.78995  0.62123  1.0000
  N   N33       1.0  0.21005  0.70258  0.62123  1.0000
  N   N34       1.0  0.63076  0.17414  0.28789  1.0000
  N   N35       1.0  0.82586  0.45661  0.28789  1.0000
  N   N36       1.0  0.54339  0.36924  0.28789  1.0000
