data_image0
_chemical_formula_structural       Nd8O16C4O16C8O16N4C12O16N4C8H20
_chemical_formula_sum              "Nd8 O64 C32 N8 H20"
_cell_length_a       16.315
_cell_length_b       12.127
_cell_length_c       11.43
_cell_angle_alpha    90
_cell_angle_beta     116.638
_cell_angle_gamma    90

_space_group_name_H-M_alt    "P 1"
_space_group_IT_number       1

loop_
  _space_group_symop_operation_xyz
  'x, y, z'

loop_
  _atom_site_type_symbol
  _atom_site_label
  _atom_site_symmetry_multiplicity
  _atom_site_fract_x
  _atom_site_fract_y
  _atom_site_fract_z
  _atom_site_occupancy
  Nd  Nd1       1.0  0.10965  0.00000  0.19499  1.0000
  Nd  Nd2       1.0  0.89035  0.00000  0.80501  1.0000
  Nd  Nd3       1.0  0.60965  0.50000  0.19499  1.0000
  Nd  Nd4       1.0  0.39035  0.50000  0.80501  1.0000
  Nd  Nd5       1.0  0.28697  0.00000  0.81338  1.0000
  Nd  Nd6       1.0  0.71303  0.00000  0.18662  1.0000
  Nd  Nd7       1.0  0.78697  0.50000  0.81338  1.0000
  Nd  Nd8       1.0  0.21303  0.50000  0.18662  1.0000
  O   O1        1.0  0.19962  0.00000  0.94270  1.0000
  O   O2        1.0  0.80038  0.00000  0.05730  1.0000
  O   O3        1.0  0.69962  0.50000  0.94270  1.0000
  O   O4        1.0  0.30038  0.50000  0.05730  1.0000
  O   O5        1.0  0.06312  0.00000  0.94770  1.0000
  O   O6        1.0  0.93688  0.00000  0.05230  1.0000
  O   O7        1.0  0.56312  0.50000  0.94770  1.0000
  O   O8        1.0  0.43688  0.50000  0.05230  1.0000
  O   O9        1.0  0.11770  0.00000  0.68480  1.0000
  O   O10       1.0  0.88230  0.00000  0.31520  1.0000
  O   O11       1.0  0.61770  0.50000  0.68480  1.0000
  O   O12       1.0  0.38230  0.50000  0.31520  1.0000
  O   O13       1.0  0.98182  0.00000  0.68350  1.0000
  O   O14       1.0  0.01818  0.00000  0.31650  1.0000
  O   O15       1.0  0.48182  0.50000  0.68350  1.0000
  O   O16       1.0  0.51818  0.50000  0.31650  1.0000
  C   C1        1.0  0.11410  0.00000  0.89200  1.0000
  C   C2        1.0  0.88590  0.00000  0.10800  1.0000
  C   C3        1.0  0.61410  0.50000  0.89200  1.0000
  C   C4        1.0  0.38590  0.50000  0.10800  1.0000
  O   O17       1.0  0.05132  0.19281  0.15300  1.0000
  O   O18       1.0  0.94868  0.19281  0.84700  1.0000
  O   O19       1.0  0.55132  0.69281  0.15300  1.0000
  O   O20       1.0  0.44868  0.69281  0.84700  1.0000
  O   O21       1.0  0.94868  0.80719  0.84700  1.0000
  O   O22       1.0  0.05132  0.80719  0.15300  1.0000
  O   O23       1.0  0.44868  0.30719  0.84700  1.0000
  O   O24       1.0  0.55132  0.30719  0.15300  1.0000
  O   O25       1.0  0.08476  0.36947  0.14090  1.0000
  O   O26       1.0  0.91524  0.36947  0.85910  1.0000
  O   O27       1.0  0.58476  0.86947  0.14090  1.0000
  O   O28       1.0  0.41524  0.86947  0.85910  1.0000
  O   O29       1.0  0.91524  0.63053  0.85910  1.0000
  O   O30       1.0  0.08476  0.63053  0.14090  1.0000
  O   O31       1.0  0.41524  0.13053  0.85910  1.0000
  O   O32       1.0  0.58476  0.13053  0.14090  1.0000
  C   C5        1.0  0.10198  0.26870  0.14820  1.0000
  C   C6        1.0  0.89802  0.26870  0.85180  1.0000
  C   C7        1.0  0.60198  0.76870  0.14820  1.0000
  C   C8        1.0  0.39802  0.76870  0.85180  1.0000
  C   C9        1.0  0.89802  0.73130  0.85180  1.0000
  C   C10       1.0  0.10198  0.73130  0.14820  1.0000
  C   C11       1.0  0.39802  0.23130  0.85180  1.0000
  C   C12       1.0  0.60198  0.23130  0.14820  1.0000
  O   O33       1.0  0.24162  0.30902  0.13920  1.0000
  O   O34       1.0  0.75838  0.30902  0.86080  1.0000
  O   O35       1.0  0.74162  0.80902  0.13920  1.0000
  O   O36       1.0  0.25838  0.80902  0.86080  1.0000
  O   O37       1.0  0.75838  0.69098  0.86080  1.0000
  O   O38       1.0  0.24162  0.69098  0.13920  1.0000
  O   O39       1.0  0.25838  0.19098  0.86080  1.0000
  O   O40       1.0  0.74162  0.19098  0.13920  1.0000
  O   O41       1.0  0.21369  0.13326  0.16600  1.0000
  O   O42       1.0  0.78631  0.13326  0.83400  1.0000
  O   O43       1.0  0.71369  0.63326  0.16600  1.0000
  O   O44       1.0  0.28631  0.63326  0.83400  1.0000
  O   O45       1.0  0.78631  0.86674  0.83400  1.0000
  O   O46       1.0  0.21369  0.86674  0.16600  1.0000
  O   O47       1.0  0.28631  0.36674  0.83400  1.0000
  O   O48       1.0  0.71369  0.36674  0.16600  1.0000
  N   N1        1.0  0.40110  0.00000  0.07210  1.0000
  N   N2        1.0  0.59890  0.00000  0.92790  1.0000
  N   N3        1.0  0.90110  0.50000  0.07210  1.0000
  N   N4        1.0  0.09890  0.50000  0.92790  1.0000
  C   C13       1.0  0.19364  0.23370  0.15100  1.0000
  C   C14       1.0  0.80636  0.23370  0.84900  1.0000
  C   C15       1.0  0.69364  0.73370  0.15100  1.0000
  C   C16       1.0  0.30636  0.73370  0.84900  1.0000
  C   C17       1.0  0.80636  0.76630  0.84900  1.0000
  C   C18       1.0  0.19364  0.76630  0.15100  1.0000
  C   C19       1.0  0.30636  0.26630  0.84900  1.0000
  C   C20       1.0  0.69364  0.26630  0.15100  1.0000
  C   C21       1.0  0.06590  0.00000  0.74090  1.0000
  C   C22       1.0  0.93410  0.00000  0.25910  1.0000
  C   C23       1.0  0.56590  0.50000  0.74090  1.0000
  C   C24       1.0  0.43410  0.50000  0.25910  1.0000
  O   O49       1.0  0.25176  0.10982  0.61580  1.0000
  O   O50       1.0  0.74824  0.10982  0.38420  1.0000
  O   O51       1.0  0.75176  0.60982  0.61580  1.0000
  O   O52       1.0  0.24824  0.60982  0.38420  1.0000
  O   O53       1.0  0.74824  0.89018  0.38420  1.0000
  O   O54       1.0  0.25176  0.89018  0.61580  1.0000
  O   O55       1.0  0.24824  0.39018  0.38420  1.0000
  O   O56       1.0  0.75176  0.39018  0.61580  1.0000
  O   O57       1.0  0.19382  0.10943  0.39830  1.0000
  O   O58       1.0  0.80618  0.10943  0.60170  1.0000
  O   O59       1.0  0.69382  0.60943  0.39830  1.0000
  O   O60       1.0  0.30618  0.60943  0.60170  1.0000
  O   O61       1.0  0.80618  0.89057  0.60170  1.0000
  O   O62       1.0  0.19382  0.89057  0.39830  1.0000
  O   O63       1.0  0.30618  0.39057  0.60170  1.0000
  O   O64       1.0  0.69382  0.39057  0.39830  1.0000
  N   N5        1.0  0.36700  0.00000  0.17000  1.0000
  N   N6        1.0  0.63300  0.00000  0.83000  1.0000
  N   N7        1.0  0.86700  0.50000  0.17000  1.0000
  N   N8        1.0  0.13300  0.50000  0.83000  1.0000
  C   C25       1.0  0.22330  0.06340  0.50680  1.0000
  C   C26       1.0  0.77670  0.06340  0.49320  1.0000
  C   C27       1.0  0.72330  0.56340  0.50680  1.0000
  C   C28       1.0  0.27670  0.56340  0.49320  1.0000
  C   C29       1.0  0.77670  0.93660  0.49320  1.0000
  C   C30       1.0  0.22330  0.93660  0.50680  1.0000
  C   C31       1.0  0.27670  0.43660  0.49320  1.0000
  C   C32       1.0  0.72330  0.43660  0.50680  1.0000
  H   H1        1.0  0.44157  0.94785  0.08975  1.0000
  H   H2        1.0  0.55843  0.94785  0.91025  1.0000
  H   H3        1.0  0.94157  0.44785  0.08975  1.0000
  H   H4        1.0  0.05843  0.44785  0.91025  1.0000
  H   H5        1.0  0.55843  0.05215  0.91025  1.0000
  H   H6        1.0  0.44157  0.05215  0.08975  1.0000
  H   H7        1.0  0.05843  0.55215  0.91025  1.0000
  H   H8        1.0  0.94157  0.55215  0.08975  1.0000
  H   H9        1.0  0.41310  0.00000  0.24786  1.0000
  H   H10       1.0  0.58690  0.00000  0.75214  1.0000
  H   H11       1.0  0.91310  0.50000  0.24786  1.0000
  H   H12       1.0  0.08690  0.50000  0.75214  1.0000
  H   H13       1.0  0.33380  0.05857  0.16036  1.0000
  H   H14       1.0  0.66620  0.05857  0.83964  1.0000
  H   H15       1.0  0.83380  0.55857  0.16036  1.0000
  H   H16       1.0  0.16620  0.55857  0.83964  1.0000
  H   H17       1.0  0.66620  0.94143  0.83964  1.0000
  H   H18       1.0  0.33380  0.94143  0.16036  1.0000
  H   H19       1.0  0.16620  0.44143  0.83964  1.0000
  H   H20       1.0  0.83380  0.44143  0.16036  1.0000
