data_image0
_chemical_formula_structural       Na2Cr2C4O8C4O8C4O8
_chemical_formula_sum              "Na2 Cr2 C12 O24"
_cell_length_a       10.4088
_cell_length_b       14.7524
_cell_length_c       18.2275
_cell_angle_alpha    90
_cell_angle_beta     94.741
_cell_angle_gamma    90

_space_group_name_H-M_alt    "P 1"
_space_group_IT_number       1

loop_
  _space_group_symop_operation_xyz
  'x, y, z'

loop_
  _atom_site_type_symbol
  _atom_site_label
  _atom_site_symmetry_multiplicity
  _atom_site_fract_x
  _atom_site_fract_y
  _atom_site_fract_z
  _atom_site_occupancy
  Na  Na1       1.0  0.79840  0.69190  0.00730  1.0000
  Na  Na2       1.0  0.20160  0.19190  0.99270  1.0000
  Cr  Cr1       1.0  0.30460  0.56020  0.00420  1.0000
  Cr  Cr2       1.0  0.69540  0.06020  0.99580  1.0000
  C   C1        1.0  0.09000  0.66090  0.97350  1.0000
  C   C2        1.0  0.91000  0.16090  0.02650  1.0000
  C   C3        1.0  0.06400  0.60100  0.04590  1.0000
  C   C4        1.0  0.93600  0.10100  0.95410  1.0000
  O   O1        1.0  0.20020  0.65930  0.95870  1.0000
  O   O2        1.0  0.79980  0.15930  0.04130  1.0000
  O   O3        1.0  0.16240  0.55970  0.07290  1.0000
  O   O4        1.0  0.83760  0.05970  0.92710  1.0000
  O   O5        1.0  0.95500  0.59780  0.06760  1.0000
  O   O6        1.0  0.04500  0.09780  0.93240  1.0000
  O   O7        1.0  0.99610  0.70520  0.94800  1.0000
  O   O8        1.0  0.00390  0.20520  0.05200  1.0000
  C   C5        1.0  0.21100  0.39380  0.96120  1.0000
  C   C6        1.0  0.78900  0.89380  0.03880  1.0000
  C   C7        1.0  0.31100  0.37430  0.02670  1.0000
  C   C8        1.0  0.68900  0.87430  0.97330  1.0000
  O   O9        1.0  0.20190  0.47170  0.94040  1.0000
  O   O10       1.0  0.79810  0.97170  0.05960  1.0000
  O   O11       1.0  0.37240  0.44910  0.05120  1.0000
  O   O12       1.0  0.62760  0.94910  0.94880  1.0000
  O   O13       1.0  0.32410  0.30120  0.05720  1.0000
  O   O14       1.0  0.67590  0.80120  0.94280  1.0000
  O   O15       1.0  0.15370  0.32770  0.93430  1.0000
  O   O16       1.0  0.84630  0.82770  0.06570  1.0000
  C   C9        1.0  0.55100  0.59290  0.97340  1.0000
  C   C10       1.0  0.44900  0.09290  0.02660  1.0000
  C   C11       1.0  0.53900  0.64300  0.04710  1.0000
  C   C12       1.0  0.46100  0.14300  0.95290  1.0000
  O   O17       1.0  0.44700  0.56520  0.93960  1.0000
  O   O18       1.0  0.55300  0.06520  0.06040  1.0000
  O   O19       1.0  0.42070  0.63800  0.06690  1.0000
  O   O20       1.0  0.57930  0.13800  0.93310  1.0000
  O   O21       1.0  0.63370  0.67330  0.08230  1.0000
  O   O22       1.0  0.36630  0.17330  0.91770  1.0000
  O   O23       1.0  0.66100  0.59020  0.94730  1.0000
  O   O24       1.0  0.33900  0.09020  0.05270  1.0000
