data_image0
_chemical_formula_structural       Ag4Pd4S16O8N16C32
_chemical_formula_sum              "Ag4 Pd4 S16 O8 N16 C32"
_cell_length_a       9.649
_cell_length_b       13.235
_cell_length_c       25.107
_cell_angle_alpha    90
_cell_angle_beta     91.03
_cell_angle_gamma    90

_space_group_name_H-M_alt    "P 1"
_space_group_IT_number       1

loop_
  _space_group_symop_operation_xyz
  'x, y, z'

loop_
  _atom_site_type_symbol
  _atom_site_label
  _atom_site_symmetry_multiplicity
  _atom_site_fract_x
  _atom_site_fract_y
  _atom_site_fract_z
  _atom_site_occupancy
  Ag  Ag1       1.0  0.14863  0.02314  0.94636  1.0000
  Ag  Ag2       1.0  0.14863  0.47686  0.44636  1.0000
  Ag  Ag3       1.0  0.85137  0.97686  0.05364  1.0000
  Ag  Ag4       1.0  0.85137  0.52314  0.55364  1.0000
  Pd  Pd1       1.0  0.11000  0.13279  0.05032  1.0000
  Pd  Pd2       1.0  0.11000  0.36721  0.55032  1.0000
  Pd  Pd3       1.0  0.89000  0.86721  0.94968  1.0000
  Pd  Pd4       1.0  0.89000  0.63279  0.44968  1.0000
  S   S1        1.0  0.11770  0.06340  0.13240  1.0000
  S   S2        1.0  0.11770  0.43660  0.63240  1.0000
  S   S3        1.0  0.88230  0.93660  0.86760  1.0000
  S   S4        1.0  0.88230  0.56340  0.36760  1.0000
  S   S5        1.0  0.34020  0.09190  0.04018  1.0000
  S   S6        1.0  0.34020  0.40810  0.54018  1.0000
  S   S7        1.0  0.65980  0.90810  0.95982  1.0000
  S   S8        1.0  0.65980  0.59190  0.45982  1.0000
  S   S9        1.0  0.87580  0.16440  0.05629  1.0000
  S   S10       1.0  0.87580  0.33560  0.55629  1.0000
  S   S11       1.0  0.12420  0.83560  0.94371  1.0000
  S   S12       1.0  0.12420  0.66440  0.44371  1.0000
  S   S13       1.0  0.10860  0.20640  0.96638  1.0000
  S   S14       1.0  0.10860  0.29360  0.46638  1.0000
  S   S15       1.0  0.89140  0.79360  0.03362  1.0000
  S   S16       1.0  0.89140  0.70640  0.53362  1.0000
  O   O1        1.0  0.02340  0.97800  0.13750  1.0000
  O   O2        1.0  0.02340  0.52200  0.63750  1.0000
  O   O3        1.0  0.97660  0.02200  0.86250  1.0000
  O   O4        1.0  0.97660  0.47800  0.36250  1.0000
  O   O5        1.0  0.11180  0.13480  0.17630  1.0000
  O   O6        1.0  0.11180  0.36520  0.67630  1.0000
  O   O7        1.0  0.88820  0.86520  0.82370  1.0000
  O   O8        1.0  0.88820  0.63480  0.32370  1.0000
  N   N1        1.0  0.35300  0.92400  0.22680  1.0000
  N   N2        1.0  0.35300  0.57600  0.72680  1.0000
  N   N3        1.0  0.64700  0.07600  0.77320  1.0000
  N   N4        1.0  0.64700  0.42400  0.27320  1.0000
  N   N5        1.0  0.62800  0.96160  0.10110  1.0000
  N   N6        1.0  0.62800  0.53840  0.60110  1.0000
  N   N7        1.0  0.37200  0.03840  0.89890  1.0000
  N   N8        1.0  0.37200  0.46160  0.39890  1.0000
  N   N9        1.0  0.57600  0.23870  0.97040  1.0000
  N   N10       1.0  0.57600  0.26130  0.47040  1.0000
  N   N11       1.0  0.42400  0.76130  0.02960  1.0000
  N   N12       1.0  0.42400  0.73870  0.52960  1.0000
  N   N13       1.0  0.86100  0.29130  0.86310  1.0000
  N   N14       1.0  0.86100  0.20870  0.36310  1.0000
  N   N15       1.0  0.13900  0.70870  0.13690  1.0000
  N   N16       1.0  0.13900  0.79130  0.63690  1.0000
  C   C1        1.0  0.28790  0.00930  0.13770  1.0000
  C   C2        1.0  0.28790  0.49070  0.63770  1.0000
  C   C3        1.0  0.71210  0.99070  0.86230  1.0000
  C   C4        1.0  0.71210  0.50930  0.36230  1.0000
  C   C5        1.0  0.37700  0.02340  0.09750  1.0000
  C   C6        1.0  0.37700  0.47660  0.59750  1.0000
  C   C7        1.0  0.62300  0.97660  0.90250  1.0000
  C   C8        1.0  0.62300  0.52340  0.40250  1.0000
  C   C9        1.0  0.32600  0.95920  0.18720  1.0000
  C   C10       1.0  0.32600  0.54080  0.68720  1.0000
  C   C11       1.0  0.67400  0.04080  0.81280  1.0000
  C   C12       1.0  0.67400  0.45920  0.31280  1.0000
  C   C13       1.0  0.51500  0.98720  0.09970  1.0000
  C   C14       1.0  0.51500  0.51280  0.59970  1.0000
  C   C15       1.0  0.48500  0.01280  0.90030  1.0000
  C   C16       1.0  0.48500  0.48720  0.40030  1.0000
  C   C17       1.0  0.83500  0.20540  0.99140  1.0000
  C   C18       1.0  0.83500  0.29460  0.49140  1.0000
  C   C19       1.0  0.16500  0.79460  0.00860  1.0000
  C   C20       1.0  0.16500  0.70540  0.50860  1.0000
  C   C21       1.0  0.93040  0.22420  0.95510  1.0000
  C   C22       1.0  0.93040  0.27580  0.45510  1.0000
  C   C23       1.0  0.06960  0.77580  0.04490  1.0000
  C   C24       1.0  0.06960  0.72420  0.54490  1.0000
  C   C25       1.0  0.69200  0.22500  0.98040  1.0000
  C   C26       1.0  0.69200  0.27500  0.48040  1.0000
  C   C27       1.0  0.30800  0.77500  0.01960  1.0000
  C   C28       1.0  0.30800  0.72500  0.51960  1.0000
  C   C29       1.0  0.88900  0.26140  0.90300  1.0000
  C   C30       1.0  0.88900  0.23860  0.40300  1.0000
  C   C31       1.0  0.11100  0.73860  0.09700  1.0000
  C   C32       1.0  0.11100  0.76140  0.59700  1.0000
