data_image0
_chemical_formula_structural       In8O72N8H16N8H16C24H8C8H8C16H8C8H8C32H8C16H8C16H8C8H8C16H8C8H8C24H8C32H8C8H8C16H8C8H8C16H8C24H8C8H8C16H8C8H8C8
_chemical_formula_sum              "In8 O72 N16 H192 C320"
_cell_length_a       24.589
_cell_length_b       32.42
_cell_length_c       32.839
_cell_angle_alpha    90
_cell_angle_beta     90
_cell_angle_gamma    90

_space_group_name_H-M_alt    "P 1"
_space_group_IT_number       1

loop_
  _space_group_symop_operation_xyz
  'x, y, z'

loop_
  _atom_site_type_symbol
  _atom_site_label
  _atom_site_symmetry_multiplicity
  _atom_site_fract_x
  _atom_site_fract_y
  _atom_site_fract_z
  _atom_site_occupancy
  In  In1       1.0  0.36861  0.98050  0.22723  1.0000
  In  In2       1.0  0.13139  0.01950  0.72723  1.0000
  In  In3       1.0  0.63139  0.48050  0.27277  1.0000
  In  In4       1.0  0.86861  0.51950  0.77277  1.0000
  In  In5       1.0  0.63139  0.01950  0.77277  1.0000
  In  In6       1.0  0.86861  0.98050  0.27277  1.0000
  In  In7       1.0  0.36861  0.51950  0.72723  1.0000
  In  In8       1.0  0.13139  0.48050  0.22723  1.0000
  O   O1        1.0  0.42697  0.93140  0.25572  1.0000
  O   O2        1.0  0.07303  0.06860  0.75572  1.0000
  O   O3        1.0  0.57303  0.43140  0.24428  1.0000
  O   O4        1.0  0.92697  0.56860  0.74428  1.0000
  O   O5        1.0  0.57303  0.06860  0.74428  1.0000
  O   O6        1.0  0.92697  0.93140  0.24428  1.0000
  O   O7        1.0  0.42697  0.56860  0.75572  1.0000
  O   O8        1.0  0.07303  0.43140  0.25572  1.0000
  O   O9        1.0  0.33866  0.92080  0.25332  1.0000
  O   O10       1.0  0.16134  0.07920  0.75332  1.0000
  O   O11       1.0  0.66134  0.42080  0.24668  1.0000
  O   O12       1.0  0.83866  0.57920  0.74668  1.0000
  O   O13       1.0  0.66134  0.07920  0.74668  1.0000
  O   O14       1.0  0.83866  0.92080  0.24668  1.0000
  O   O15       1.0  0.33866  0.57920  0.75332  1.0000
  O   O16       1.0  0.16134  0.42080  0.25332  1.0000
  O   O17       1.0  0.62350  0.54364  0.30088  1.0000
  O   O18       1.0  0.87650  0.45636  0.80088  1.0000
  O   O19       1.0  0.37650  0.04364  0.19912  1.0000
  O   O20       1.0  0.12350  0.95636  0.69912  1.0000
  O   O21       1.0  0.37650  0.45636  0.69912  1.0000
  O   O22       1.0  0.12350  0.54364  0.19912  1.0000
  O   O23       1.0  0.62350  0.95636  0.80088  1.0000
  O   O24       1.0  0.87650  0.04364  0.30088  1.0000
  O   O25       1.0  0.54882  0.51367  0.28030  1.0000
  O   O26       1.0  0.95118  0.48633  0.78030  1.0000
  O   O27       1.0  0.45118  0.01367  0.21970  1.0000
  O   O28       1.0  0.04882  0.98633  0.71970  1.0000
  O   O29       1.0  0.45118  0.48633  0.71970  1.0000
  O   O30       1.0  0.04882  0.51367  0.21970  1.0000
  O   O31       1.0  0.54882  0.98633  0.78030  1.0000
  O   O32       1.0  0.95118  0.01367  0.28030  1.0000
  O   O33       1.0  0.34865  0.70429  0.43532  1.0000
  O   O34       1.0  0.15135  0.29571  0.93532  1.0000
  O   O35       1.0  0.65135  0.20429  0.06468  1.0000
  O   O36       1.0  0.84865  0.79571  0.56468  1.0000
  O   O37       1.0  0.65135  0.29571  0.56468  1.0000
  O   O38       1.0  0.84865  0.70429  0.06468  1.0000
  O   O39       1.0  0.34865  0.79571  0.93532  1.0000
  O   O40       1.0  0.15135  0.20429  0.43532  1.0000
  O   O41       1.0  0.20564  0.50882  0.25736  1.0000
  O   O42       1.0  0.29436  0.49118  0.75736  1.0000
  O   O43       1.0  0.79436  0.00882  0.24264  1.0000
  O   O44       1.0  0.70564  0.99118  0.74264  1.0000
  O   O45       1.0  0.79436  0.49118  0.74264  1.0000
  O   O46       1.0  0.70564  0.50882  0.24264  1.0000
  O   O47       1.0  0.20564  0.99118  0.75736  1.0000
  O   O48       1.0  0.29436  0.00882  0.25736  1.0000
  O   O49       1.0  0.12851  0.50775  0.29096  1.0000
  O   O50       1.0  0.37149  0.49225  0.79096  1.0000
  O   O51       1.0  0.87149  0.00775  0.20904  1.0000
  O   O52       1.0  0.62851  0.99225  0.70904  1.0000
  O   O53       1.0  0.87149  0.49225  0.70904  1.0000
  O   O54       1.0  0.62851  0.50775  0.20904  1.0000
  O   O55       1.0  0.12851  0.99225  0.79096  1.0000
  O   O56       1.0  0.37149  0.00775  0.29096  1.0000
  O   O57       1.0  0.39579  0.55017  0.66841  1.0000
  O   O58       1.0  0.10421  0.44983  0.16841  1.0000
  O   O59       1.0  0.60421  0.05017  0.83159  1.0000
  O   O60       1.0  0.89579  0.94983  0.33159  1.0000
  O   O61       1.0  0.60421  0.44983  0.33159  1.0000
  O   O62       1.0  0.89579  0.55017  0.83159  1.0000
  O   O63       1.0  0.39579  0.94983  0.16841  1.0000
  O   O64       1.0  0.10421  0.05017  0.66841  1.0000
  O   O65       1.0  0.31020  0.53355  0.67446  1.0000
  O   O66       1.0  0.18980  0.46645  0.17446  1.0000
  O   O67       1.0  0.68980  0.03355  0.82554  1.0000
  O   O68       1.0  0.81020  0.96645  0.32554  1.0000
  O   O69       1.0  0.68980  0.46645  0.32554  1.0000
  O   O70       1.0  0.81020  0.53355  0.82554  1.0000
  O   O71       1.0  0.31020  0.96645  0.17446  1.0000
  O   O72       1.0  0.18980  0.03355  0.67446  1.0000
  N   N1        1.0  0.48010  0.72838  0.29680  1.0000
  N   N2        1.0  0.01990  0.27162  0.79680  1.0000
  N   N3        1.0  0.51990  0.22838  0.20320  1.0000
  N   N4        1.0  0.98010  0.77162  0.70320  1.0000
  N   N5        1.0  0.51990  0.27162  0.70320  1.0000
  N   N6        1.0  0.98010  0.72838  0.20320  1.0000
  N   N7        1.0  0.48010  0.77162  0.79680  1.0000
  N   N8        1.0  0.01990  0.22838  0.29680  1.0000
  H   H1        1.0  0.48898  0.70482  0.28674  1.0000
  H   H2        1.0  0.01102  0.29518  0.78674  1.0000
  H   H3        1.0  0.51102  0.20482  0.21326  1.0000
  H   H4        1.0  0.98898  0.79518  0.71326  1.0000
  H   H5        1.0  0.51102  0.29518  0.71326  1.0000
  H   H6        1.0  0.98898  0.70482  0.21326  1.0000
  H   H7        1.0  0.48898  0.79518  0.78674  1.0000
  H   H8        1.0  0.01102  0.20482  0.28674  1.0000
  H   H9        1.0  0.46216  0.74225  0.27896  1.0000
  H   H10       1.0  0.03784  0.25775  0.77896  1.0000
  H   H11       1.0  0.53784  0.24225  0.22104  1.0000
  H   H12       1.0  0.96216  0.75775  0.72104  1.0000
  H   H13       1.0  0.53784  0.25775  0.72104  1.0000
  H   H14       1.0  0.96216  0.74225  0.22104  1.0000
  H   H15       1.0  0.46216  0.75775  0.77896  1.0000
  H   H16       1.0  0.03784  0.24225  0.27896  1.0000
  N   N9        1.0  0.26620  0.54835  0.46903  1.0000
  N   N10       1.0  0.23380  0.45165  0.96903  1.0000
  N   N11       1.0  0.73380  0.04835  0.03097  1.0000
  N   N12       1.0  0.76620  0.95165  0.53097  1.0000
  N   N13       1.0  0.73380  0.45165  0.53097  1.0000
  N   N14       1.0  0.76620  0.54835  0.03097  1.0000
  N   N15       1.0  0.26620  0.95165  0.96903  1.0000
  N   N16       1.0  0.23380  0.04835  0.46903  1.0000
  H   H17       1.0  0.27989  0.54030  0.49179  1.0000
  H   H18       1.0  0.22011  0.45970  0.99179  1.0000
  H   H19       1.0  0.72011  0.04030  0.00821  1.0000
  H   H20       1.0  0.77989  0.95970  0.50821  1.0000
  H   H21       1.0  0.72011  0.45970  0.50821  1.0000
  H   H22       1.0  0.77989  0.54030  0.00821  1.0000
  H   H23       1.0  0.27989  0.95970  0.99179  1.0000
  H   H24       1.0  0.22011  0.04030  0.49179  1.0000
  H   H25       1.0  0.23126  0.54847  0.47088  1.0000
  H   H26       1.0  0.26874  0.45153  0.97088  1.0000
  H   H27       1.0  0.76874  0.04847  0.02912  1.0000
  H   H28       1.0  0.73126  0.95153  0.52912  1.0000
  H   H29       1.0  0.76874  0.45153  0.52912  1.0000
  H   H30       1.0  0.73126  0.54847  0.02912  1.0000
  H   H31       1.0  0.23126  0.95153  0.97088  1.0000
  H   H32       1.0  0.26874  0.04847  0.47088  1.0000
  C   C1        1.0  0.38540  0.90870  0.26366  1.0000
  C   C2        1.0  0.11460  0.09130  0.76366  1.0000
  C   C3        1.0  0.61460  0.40870  0.23634  1.0000
  C   C4        1.0  0.88540  0.59130  0.73634  1.0000
  C   C5        1.0  0.61460  0.09130  0.73634  1.0000
  C   C6        1.0  0.88540  0.90870  0.23634  1.0000
  C   C7        1.0  0.38540  0.59130  0.76366  1.0000
  C   C8        1.0  0.11460  0.40870  0.26366  1.0000
  C   C9        1.0  0.39220  0.86872  0.28422  1.0000
  C   C10       1.0  0.10780  0.13128  0.78422  1.0000
  C   C11       1.0  0.60780  0.36872  0.21578  1.0000
  C   C12       1.0  0.89220  0.63128  0.71578  1.0000
  C   C13       1.0  0.60780  0.13128  0.71578  1.0000
  C   C14       1.0  0.89220  0.86872  0.21578  1.0000
  C   C15       1.0  0.39220  0.63128  0.78422  1.0000
  C   C16       1.0  0.10780  0.36872  0.28422  1.0000
  C   C17       1.0  0.44320  0.85586  0.29609  1.0000
  C   C18       1.0  0.05680  0.14414  0.79609  1.0000
  C   C19       1.0  0.55680  0.35586  0.20391  1.0000
  C   C20       1.0  0.94320  0.64414  0.70391  1.0000
  C   C21       1.0  0.55680  0.14414  0.70391  1.0000
  C   C22       1.0  0.94320  0.85586  0.20391  1.0000
  C   C23       1.0  0.44320  0.64414  0.79609  1.0000
  C   C24       1.0  0.05680  0.35586  0.29609  1.0000
  H   H33       1.0  0.47315  0.87271  0.29132  1.0000
  H   H34       1.0  0.02685  0.12729  0.79132  1.0000
  H   H35       1.0  0.52685  0.37271  0.20868  1.0000
  H   H36       1.0  0.97315  0.62729  0.70868  1.0000
  H   H37       1.0  0.52685  0.12729  0.70868  1.0000
  H   H38       1.0  0.97315  0.87271  0.20868  1.0000
  H   H39       1.0  0.47315  0.62729  0.79132  1.0000
  H   H40       1.0  0.02685  0.37271  0.29132  1.0000
  C   C25       1.0  0.45050  0.81715  0.31551  1.0000
  C   C26       1.0  0.04950  0.18285  0.81551  1.0000
  C   C27       1.0  0.54950  0.31715  0.18449  1.0000
  C   C28       1.0  0.95050  0.68285  0.68449  1.0000
  C   C29       1.0  0.54950  0.18285  0.68449  1.0000
  C   C30       1.0  0.95050  0.81715  0.18449  1.0000
  C   C31       1.0  0.45050  0.68285  0.81551  1.0000
  C   C32       1.0  0.04950  0.31715  0.31551  1.0000
  H   H41       1.0  0.48519  0.80818  0.32254  1.0000
  H   H42       1.0  0.01481  0.19182  0.82254  1.0000
  H   H43       1.0  0.51481  0.30818  0.17746  1.0000
  H   H44       1.0  0.98519  0.69182  0.67746  1.0000
  H   H45       1.0  0.51481  0.19182  0.67746  1.0000
  H   H46       1.0  0.98519  0.80818  0.17746  1.0000
  H   H47       1.0  0.48519  0.69182  0.82254  1.0000
  H   H48       1.0  0.01481  0.30818  0.32254  1.0000
  C   C33       1.0  0.40590  0.79300  0.32387  1.0000
  C   C34       1.0  0.09410  0.20700  0.82387  1.0000
  C   C35       1.0  0.59410  0.29300  0.17613  1.0000
  C   C36       1.0  0.90590  0.70700  0.67613  1.0000
  C   C37       1.0  0.59410  0.20700  0.67613  1.0000
  C   C38       1.0  0.90590  0.79300  0.17613  1.0000
  C   C39       1.0  0.40590  0.70700  0.82387  1.0000
  C   C40       1.0  0.09410  0.29300  0.32387  1.0000
  C   C41       1.0  0.35510  0.80771  0.31279  1.0000
  C   C42       1.0  0.14490  0.19229  0.81279  1.0000
  C   C43       1.0  0.64490  0.30771  0.18721  1.0000
  C   C44       1.0  0.85510  0.69229  0.68721  1.0000
  C   C45       1.0  0.64490  0.19229  0.68721  1.0000
  C   C46       1.0  0.85510  0.80771  0.18721  1.0000
  C   C47       1.0  0.35510  0.69229  0.81279  1.0000
  C   C48       1.0  0.14490  0.30771  0.31279  1.0000
  H   H49       1.0  0.32429  0.79229  0.31900  1.0000
  H   H50       1.0  0.17571  0.20771  0.81900  1.0000
  H   H51       1.0  0.67571  0.29229  0.18100  1.0000
  H   H52       1.0  0.82429  0.70771  0.68100  1.0000
  H   H53       1.0  0.67571  0.20771  0.68100  1.0000
  H   H54       1.0  0.82429  0.79229  0.18100  1.0000
  H   H55       1.0  0.32429  0.70771  0.81900  1.0000
  H   H56       1.0  0.17571  0.29229  0.31900  1.0000
  C   C49       1.0  0.34950  0.84428  0.29299  1.0000
  C   C50       1.0  0.15050  0.15572  0.79299  1.0000
  C   C51       1.0  0.65050  0.34428  0.20701  1.0000
  C   C52       1.0  0.84950  0.65572  0.70701  1.0000
  C   C53       1.0  0.65050  0.15572  0.70701  1.0000
  C   C54       1.0  0.84950  0.84428  0.20701  1.0000
  C   C55       1.0  0.34950  0.65572  0.79299  1.0000
  C   C56       1.0  0.15050  0.34428  0.29299  1.0000
  H   H57       1.0  0.31488  0.85275  0.28522  1.0000
  H   H58       1.0  0.18512  0.14725  0.78522  1.0000
  H   H59       1.0  0.68512  0.35275  0.21478  1.0000
  H   H60       1.0  0.81488  0.64725  0.71478  1.0000
  H   H61       1.0  0.68512  0.14725  0.71478  1.0000
  H   H62       1.0  0.81488  0.85275  0.21478  1.0000
  H   H63       1.0  0.31488  0.64725  0.78522  1.0000
  H   H64       1.0  0.18512  0.35275  0.28522  1.0000
  C   C57       1.0  0.41170  0.75339  0.34618  1.0000
  C   C58       1.0  0.08830  0.24661  0.84618  1.0000
  C   C59       1.0  0.58830  0.25339  0.15382  1.0000
  C   C60       1.0  0.91170  0.74661  0.65382  1.0000
  C   C61       1.0  0.58830  0.24661  0.65382  1.0000
  C   C62       1.0  0.91170  0.75339  0.15382  1.0000
  C   C63       1.0  0.41170  0.74661  0.84618  1.0000
  C   C64       1.0  0.08830  0.25339  0.34618  1.0000
  C   C65       1.0  0.44540  0.72254  0.33243  1.0000
  C   C66       1.0  0.05460  0.27746  0.83243  1.0000
  C   C67       1.0  0.55460  0.22254  0.16757  1.0000
  C   C68       1.0  0.94540  0.77746  0.66757  1.0000
  C   C69       1.0  0.55460  0.27746  0.66757  1.0000
  C   C70       1.0  0.94540  0.72254  0.16757  1.0000
  C   C71       1.0  0.44540  0.77746  0.83243  1.0000
  C   C72       1.0  0.05460  0.22254  0.33243  1.0000
  C   C73       1.0  0.44660  0.68340  0.35221  1.0000
  C   C74       1.0  0.05340  0.31660  0.85221  1.0000
  C   C75       1.0  0.55340  0.18340  0.14779  1.0000
  C   C76       1.0  0.94660  0.81660  0.64779  1.0000
  C   C77       1.0  0.55340  0.31660  0.64779  1.0000
  C   C78       1.0  0.94660  0.68340  0.14779  1.0000
  C   C79       1.0  0.44660  0.81660  0.85221  1.0000
  C   C80       1.0  0.05340  0.18340  0.35221  1.0000
  C   C81       1.0  0.41510  0.67783  0.38587  1.0000
  C   C82       1.0  0.08490  0.32217  0.88587  1.0000
  C   C83       1.0  0.58490  0.17783  0.11413  1.0000
  C   C84       1.0  0.91510  0.82217  0.61413  1.0000
  C   C85       1.0  0.58490  0.32217  0.61413  1.0000
  C   C86       1.0  0.91510  0.67783  0.11413  1.0000
  C   C87       1.0  0.41510  0.82217  0.88587  1.0000
  C   C88       1.0  0.08490  0.17783  0.38587  1.0000
  H   H65       1.0  0.41632  0.65282  0.39970  1.0000
  H   H66       1.0  0.08368  0.34718  0.89970  1.0000
  H   H67       1.0  0.58368  0.15282  0.10030  1.0000
  H   H68       1.0  0.91632  0.84718  0.60030  1.0000
  H   H69       1.0  0.58368  0.34718  0.60030  1.0000
  H   H70       1.0  0.91632  0.65282  0.10030  1.0000
  H   H71       1.0  0.41632  0.84718  0.89970  1.0000
  H   H72       1.0  0.08368  0.15282  0.39970  1.0000
  C   C89       1.0  0.38160  0.70866  0.39963  1.0000
  C   C90       1.0  0.11840  0.29134  0.89963  1.0000
  C   C91       1.0  0.61840  0.20866  0.10037  1.0000
  C   C92       1.0  0.88160  0.79134  0.60037  1.0000
  C   C93       1.0  0.61840  0.29134  0.60037  1.0000
  C   C94       1.0  0.88160  0.70866  0.10037  1.0000
  C   C95       1.0  0.38160  0.79134  0.89963  1.0000
  C   C96       1.0  0.11840  0.20866  0.39963  1.0000
  C   C97       1.0  0.37970  0.74595  0.38015  1.0000
  C   C98       1.0  0.12030  0.25405  0.88015  1.0000
  C   C99       1.0  0.62030  0.24595  0.11985  1.0000
  C   C100      1.0  0.87970  0.75405  0.61985  1.0000
  C   C101      1.0  0.62030  0.25405  0.61985  1.0000
  C   C102      1.0  0.87970  0.74595  0.11985  1.0000
  C   C103      1.0  0.37970  0.75405  0.88015  1.0000
  C   C104      1.0  0.12030  0.24595  0.38015  1.0000
  H   H73       1.0  0.35670  0.76651  0.38980  1.0000
  H   H74       1.0  0.14330  0.23349  0.88980  1.0000
  H   H75       1.0  0.64330  0.26651  0.11020  1.0000
  H   H76       1.0  0.85670  0.73349  0.61020  1.0000
  H   H77       1.0  0.64330  0.23349  0.61020  1.0000
  H   H78       1.0  0.85670  0.76651  0.11020  1.0000
  H   H79       1.0  0.35670  0.73349  0.88980  1.0000
  H   H80       1.0  0.14330  0.26651  0.38980  1.0000
  C   C105      1.0  0.48110  0.64815  0.33690  1.0000
  C   C106      1.0  0.01890  0.35185  0.83690  1.0000
  C   C107      1.0  0.51890  0.14815  0.16310  1.0000
  C   C108      1.0  0.98110  0.85185  0.66310  1.0000
  C   C109      1.0  0.51890  0.35185  0.66310  1.0000
  C   C110      1.0  0.98110  0.64815  0.16310  1.0000
  C   C111      1.0  0.48110  0.85185  0.83690  1.0000
  C   C112      1.0  0.01890  0.14815  0.33690  1.0000
  C   C113      1.0  0.53610  0.64798  0.33862  1.0000
  C   C114      1.0  0.96390  0.35202  0.83862  1.0000
  C   C115      1.0  0.46390  0.14798  0.16138  1.0000
  C   C116      1.0  0.03610  0.85202  0.66138  1.0000
  C   C117      1.0  0.46390  0.35202  0.66138  1.0000
  C   C118      1.0  0.03610  0.64798  0.16138  1.0000
  C   C119      1.0  0.53610  0.85202  0.83862  1.0000
  C   C120      1.0  0.96390  0.14798  0.33862  1.0000
  H   H81       1.0  0.55386  0.67124  0.34854  1.0000
  H   H82       1.0  0.94614  0.32876  0.84854  1.0000
  H   H83       1.0  0.44614  0.17124  0.15146  1.0000
  H   H84       1.0  0.05386  0.82876  0.65146  1.0000
  H   H85       1.0  0.44614  0.32876  0.65146  1.0000
  H   H86       1.0  0.05386  0.67124  0.15146  1.0000
  H   H87       1.0  0.55386  0.82876  0.84854  1.0000
  H   H88       1.0  0.94614  0.17124  0.34854  1.0000
  C   C121      1.0  0.56680  0.61482  0.32630  1.0000
  C   C122      1.0  0.93320  0.38518  0.82630  1.0000
  C   C123      1.0  0.43320  0.11482  0.17370  1.0000
  C   C124      1.0  0.06680  0.88518  0.67370  1.0000
  C   C125      1.0  0.43320  0.38518  0.67370  1.0000
  C   C126      1.0  0.06680  0.61482  0.17370  1.0000
  C   C127      1.0  0.56680  0.88518  0.82630  1.0000
  C   C128      1.0  0.93320  0.11482  0.32630  1.0000
  H   H89       1.0  0.60450  0.61541  0.32855  1.0000
  H   H90       1.0  0.89550  0.38459  0.82855  1.0000
  H   H91       1.0  0.39550  0.11541  0.17145  1.0000
  H   H92       1.0  0.10450  0.88459  0.67145  1.0000
  H   H93       1.0  0.39550  0.38459  0.67145  1.0000
  H   H94       1.0  0.10450  0.61541  0.17145  1.0000
  H   H95       1.0  0.60450  0.88459  0.82855  1.0000
  H   H96       1.0  0.89550  0.11541  0.32855  1.0000
  C   C129      1.0  0.54060  0.58036  0.31041  1.0000
  C   C130      1.0  0.95940  0.41964  0.81041  1.0000
  C   C131      1.0  0.45940  0.08036  0.18959  1.0000
  C   C132      1.0  0.04060  0.91964  0.68959  1.0000
  C   C133      1.0  0.45940  0.41964  0.68959  1.0000
  C   C134      1.0  0.04060  0.58036  0.18959  1.0000
  C   C135      1.0  0.54060  0.91964  0.81041  1.0000
  C   C136      1.0  0.95940  0.08036  0.31041  1.0000
  C   C137      1.0  0.48650  0.57932  0.30864  1.0000
  C   C138      1.0  0.01350  0.42068  0.80864  1.0000
  C   C139      1.0  0.51350  0.07932  0.19136  1.0000
  C   C140      1.0  0.98650  0.92068  0.69136  1.0000
  C   C141      1.0  0.51350  0.42068  0.69136  1.0000
  C   C142      1.0  0.98650  0.57932  0.19136  1.0000
  C   C143      1.0  0.48650  0.92068  0.80864  1.0000
  C   C144      1.0  0.01350  0.07932  0.30864  1.0000
  H   H97       1.0  0.46907  0.55630  0.29794  1.0000
  H   H98       1.0  0.03093  0.44370  0.79794  1.0000
  H   H99       1.0  0.53093  0.05630  0.20206  1.0000
  H   H100      1.0  0.96907  0.94370  0.70206  1.0000
  H   H101      1.0  0.53093  0.44370  0.70206  1.0000
  H   H102      1.0  0.96907  0.55630  0.20206  1.0000
  H   H103      1.0  0.46907  0.94370  0.79794  1.0000
  H   H104      1.0  0.03093  0.05630  0.29794  1.0000
  C   C145      1.0  0.45580  0.61291  0.32289  1.0000
  C   C146      1.0  0.04420  0.38709  0.82289  1.0000
  C   C147      1.0  0.54420  0.11291  0.17711  1.0000
  C   C148      1.0  0.95580  0.88709  0.67711  1.0000
  C   C149      1.0  0.54420  0.38709  0.67711  1.0000
  C   C150      1.0  0.95580  0.61291  0.17711  1.0000
  C   C151      1.0  0.45580  0.88709  0.82289  1.0000
  C   C152      1.0  0.04420  0.11291  0.32289  1.0000
  H   H105      1.0  0.41799  0.61136  0.32288  1.0000
  H   H106      1.0  0.08201  0.38864  0.82288  1.0000
  H   H107      1.0  0.58201  0.11136  0.17712  1.0000
  H   H108      1.0  0.91799  0.88864  0.67712  1.0000
  H   H109      1.0  0.58201  0.38864  0.67712  1.0000
  H   H110      1.0  0.91799  0.61136  0.17712  1.0000
  H   H111      1.0  0.41799  0.88864  0.82288  1.0000
  H   H112      1.0  0.08201  0.11136  0.32288  1.0000
  C   C153      1.0  0.57200  0.54401  0.29729  1.0000
  C   C154      1.0  0.92800  0.45599  0.79729  1.0000
  C   C155      1.0  0.42800  0.04401  0.20271  1.0000
  C   C156      1.0  0.07200  0.95599  0.70271  1.0000
  C   C157      1.0  0.42800  0.45599  0.70271  1.0000
  C   C158      1.0  0.07200  0.54401  0.20271  1.0000
  C   C159      1.0  0.57200  0.95599  0.79729  1.0000
  C   C160      1.0  0.92800  0.04401  0.29729  1.0000
  C   C161      1.0  0.32950  0.66557  0.44311  1.0000
  C   C162      1.0  0.17050  0.33443  0.94311  1.0000
  C   C163      1.0  0.67050  0.16557  0.05689  1.0000
  C   C164      1.0  0.82950  0.83443  0.55689  1.0000
  C   C165      1.0  0.67050  0.33443  0.55689  1.0000
  C   C166      1.0  0.82950  0.66557  0.05689  1.0000
  C   C167      1.0  0.32950  0.83443  0.94311  1.0000
  C   C168      1.0  0.17050  0.16557  0.44311  1.0000
  C   C169      1.0  0.33370  0.64880  0.48159  1.0000
  C   C170      1.0  0.16630  0.35120  0.98159  1.0000
  C   C171      1.0  0.66630  0.14880  0.01841  1.0000
  C   C172      1.0  0.83370  0.85120  0.51841  1.0000
  C   C173      1.0  0.66630  0.35120  0.51841  1.0000
  C   C174      1.0  0.83370  0.64880  0.01841  1.0000
  C   C175      1.0  0.33370  0.85120  0.98159  1.0000
  C   C176      1.0  0.16630  0.14880  0.48159  1.0000
  H   H113      1.0  0.35205  0.66395  0.50135  1.0000
  H   H114      1.0  0.14795  0.33605  0.00135  1.0000
  H   H115      1.0  0.64795  0.16395  0.99865  1.0000
  H   H116      1.0  0.85205  0.83605  0.49865  1.0000
  H   H117      1.0  0.64795  0.33605  0.49865  1.0000
  H   H118      1.0  0.85205  0.66395  0.99865  1.0000
  H   H119      1.0  0.35205  0.83605  0.00135  1.0000
  H   H120      1.0  0.14795  0.16395  0.50135  1.0000
  C   C177      1.0  0.31240  0.61066  0.49274  1.0000
  C   C178      1.0  0.18760  0.38934  0.99274  1.0000
  C   C179      1.0  0.68760  0.11066  0.00726  1.0000
  C   C180      1.0  0.81240  0.88934  0.50726  1.0000
  C   C181      1.0  0.68760  0.38934  0.50726  1.0000
  C   C182      1.0  0.81240  0.61066  0.00726  1.0000
  C   C183      1.0  0.31240  0.88934  0.99274  1.0000
  C   C184      1.0  0.18760  0.11066  0.49274  1.0000
  C   C185      1.0  0.28450  0.58748  0.46120  1.0000
  C   C186      1.0  0.21550  0.41252  0.96120  1.0000
  C   C187      1.0  0.71550  0.08748  0.03880  1.0000
  C   C188      1.0  0.78450  0.91252  0.53880  1.0000
  C   C189      1.0  0.71550  0.41252  0.53880  1.0000
  C   C190      1.0  0.78450  0.58748  0.03880  1.0000
  C   C191      1.0  0.28450  0.91252  0.96120  1.0000
  C   C192      1.0  0.21550  0.08748  0.46120  1.0000
  C   C193      1.0  0.28000  0.60434  0.42199  1.0000
  C   C194      1.0  0.22000  0.39566  0.92199  1.0000
  C   C195      1.0  0.72000  0.10434  0.07801  1.0000
  C   C196      1.0  0.78000  0.89566  0.57801  1.0000
  C   C197      1.0  0.72000  0.39566  0.57801  1.0000
  C   C198      1.0  0.78000  0.60434  0.07801  1.0000
  C   C199      1.0  0.28000  0.89566  0.92199  1.0000
  C   C200      1.0  0.22000  0.10434  0.42199  1.0000
  C   C201      1.0  0.30170  0.64296  0.41349  1.0000
  C   C202      1.0  0.19830  0.35704  0.91349  1.0000
  C   C203      1.0  0.69830  0.14296  0.08651  1.0000
  C   C204      1.0  0.80170  0.85704  0.58651  1.0000
  C   C205      1.0  0.69830  0.35704  0.58651  1.0000
  C   C206      1.0  0.80170  0.64296  0.08651  1.0000
  C   C207      1.0  0.30170  0.85704  0.91349  1.0000
  C   C208      1.0  0.19830  0.14296  0.41349  1.0000
  H   H121      1.0  0.29772  0.65397  0.38752  1.0000
  H   H122      1.0  0.20228  0.34603  0.88752  1.0000
  H   H123      1.0  0.70228  0.15397  0.11248  1.0000
  H   H124      1.0  0.79772  0.84603  0.61248  1.0000
  H   H125      1.0  0.70228  0.34603  0.61248  1.0000
  H   H126      1.0  0.79772  0.65397  0.11248  1.0000
  H   H127      1.0  0.29772  0.84603  0.88752  1.0000
  H   H128      1.0  0.20228  0.15397  0.38752  1.0000
  C   C209      1.0  0.28120  0.57589  0.35217  1.0000
  C   C210      1.0  0.21880  0.42411  0.85217  1.0000
  C   C211      1.0  0.71880  0.07589  0.14783  1.0000
  C   C212      1.0  0.78120  0.92411  0.64783  1.0000
  C   C213      1.0  0.71880  0.42411  0.64783  1.0000
  C   C214      1.0  0.78120  0.57589  0.14783  1.0000
  C   C215      1.0  0.28120  0.92411  0.85217  1.0000
  C   C216      1.0  0.21880  0.07589  0.35217  1.0000
  H   H129      1.0  0.31638  0.58605  0.34934  1.0000
  H   H130      1.0  0.18362  0.41395  0.84934  1.0000
  H   H131      1.0  0.68362  0.08605  0.15066  1.0000
  H   H132      1.0  0.81638  0.91395  0.65066  1.0000
  H   H133      1.0  0.68362  0.41395  0.65066  1.0000
  H   H134      1.0  0.81638  0.58605  0.15066  1.0000
  H   H135      1.0  0.31638  0.91395  0.84934  1.0000
  H   H136      1.0  0.18362  0.08605  0.34934  1.0000
  C   C217      1.0  0.25470  0.58139  0.38745  1.0000
  C   C218      1.0  0.24530  0.41861  0.88745  1.0000
  C   C219      1.0  0.74530  0.08139  0.11255  1.0000
  C   C220      1.0  0.75470  0.91861  0.61255  1.0000
  C   C221      1.0  0.74530  0.41861  0.61255  1.0000
  C   C222      1.0  0.75470  0.58139  0.11255  1.0000
  C   C223      1.0  0.25470  0.91861  0.88745  1.0000
  C   C224      1.0  0.24530  0.08139  0.38745  1.0000
  C   C225      1.0  0.20280  0.56531  0.39108  1.0000
  C   C226      1.0  0.29720  0.43469  0.89108  1.0000
  C   C227      1.0  0.79720  0.06531  0.10892  1.0000
  C   C228      1.0  0.70280  0.93469  0.60892  1.0000
  C   C229      1.0  0.79720  0.43469  0.60892  1.0000
  C   C230      1.0  0.70280  0.56531  0.10892  1.0000
  C   C231      1.0  0.20280  0.93469  0.89108  1.0000
  C   C232      1.0  0.29720  0.06531  0.39108  1.0000
  H   H137      1.0  0.18494  0.56762  0.41594  1.0000
  H   H138      1.0  0.31506  0.43238  0.91594  1.0000
  H   H139      1.0  0.81506  0.06762  0.08406  1.0000
  H   H140      1.0  0.68494  0.93238  0.58406  1.0000
  H   H141      1.0  0.81506  0.43238  0.58406  1.0000
  H   H142      1.0  0.68494  0.56762  0.08406  1.0000
  H   H143      1.0  0.18494  0.93238  0.91594  1.0000
  H   H144      1.0  0.31506  0.06762  0.41594  1.0000
  C   C233      1.0  0.17660  0.54609  0.35942  1.0000
  C   C234      1.0  0.32340  0.45391  0.85942  1.0000
  C   C235      1.0  0.82340  0.04609  0.14058  1.0000
  C   C236      1.0  0.67660  0.95391  0.64058  1.0000
  C   C237      1.0  0.82340  0.45391  0.64058  1.0000
  C   C238      1.0  0.67660  0.54609  0.14058  1.0000
  C   C239      1.0  0.17660  0.95391  0.85942  1.0000
  C   C240      1.0  0.32340  0.04609  0.35942  1.0000
  H   H145      1.0  0.14062  0.53786  0.36275  1.0000
  H   H146      1.0  0.35938  0.46214  0.86275  1.0000
  H   H147      1.0  0.85938  0.03786  0.13725  1.0000
  H   H148      1.0  0.64062  0.96214  0.63725  1.0000
  H   H149      1.0  0.85938  0.46214  0.63725  1.0000
  H   H150      1.0  0.64062  0.53786  0.13725  1.0000
  H   H151      1.0  0.14062  0.96214  0.86275  1.0000
  H   H152      1.0  0.35938  0.03786  0.36275  1.0000
  C   C241      1.0  0.20240  0.53865  0.32259  1.0000
  C   C242      1.0  0.29760  0.46135  0.82259  1.0000
  C   C243      1.0  0.79760  0.03865  0.17741  1.0000
  C   C244      1.0  0.70240  0.96135  0.67741  1.0000
  C   C245      1.0  0.79760  0.46135  0.67741  1.0000
  C   C246      1.0  0.70240  0.53865  0.17741  1.0000
  C   C247      1.0  0.20240  0.96135  0.82259  1.0000
  C   C248      1.0  0.29760  0.03865  0.32259  1.0000
  C   C249      1.0  0.25690  0.55514  0.31951  1.0000
  C   C250      1.0  0.24310  0.44486  0.81951  1.0000
  C   C251      1.0  0.74310  0.05514  0.18049  1.0000
  C   C252      1.0  0.75690  0.94486  0.68049  1.0000
  C   C253      1.0  0.74310  0.44486  0.68049  1.0000
  C   C254      1.0  0.75690  0.55514  0.18049  1.0000
  C   C255      1.0  0.25690  0.94486  0.81951  1.0000
  C   C256      1.0  0.24310  0.05514  0.31951  1.0000
  H   H153      1.0  0.27624  0.55189  0.29536  1.0000
  H   H154      1.0  0.22376  0.44811  0.79536  1.0000
  H   H155      1.0  0.72376  0.05189  0.20464  1.0000
  H   H156      1.0  0.77624  0.94811  0.70464  1.0000
  H   H157      1.0  0.72376  0.44811  0.70464  1.0000
  H   H158      1.0  0.77624  0.55189  0.20464  1.0000
  H   H159      1.0  0.27624  0.94811  0.79536  1.0000
  H   H160      1.0  0.22376  0.05189  0.29536  1.0000
  C   C257      1.0  0.17770  0.51705  0.28886  1.0000
  C   C258      1.0  0.32230  0.48295  0.78886  1.0000
  C   C259      1.0  0.82230  0.01705  0.21114  1.0000
  C   C260      1.0  0.67770  0.98295  0.71114  1.0000
  C   C261      1.0  0.82230  0.48295  0.71114  1.0000
  C   C262      1.0  0.67770  0.51705  0.21114  1.0000
  C   C263      1.0  0.17770  0.98295  0.78886  1.0000
  C   C264      1.0  0.32230  0.01705  0.28886  1.0000
  C   C265      1.0  0.32170  0.59481  0.53299  1.0000
  C   C266      1.0  0.17830  0.40519  0.03299  1.0000
  C   C267      1.0  0.67830  0.09481  0.96701  1.0000
  C   C268      1.0  0.82170  0.90519  0.46701  1.0000
  C   C269      1.0  0.67830  0.40519  0.46701  1.0000
  C   C270      1.0  0.82170  0.59481  0.96701  1.0000
  C   C271      1.0  0.32170  0.90519  0.03299  1.0000
  C   C272      1.0  0.17830  0.09481  0.53299  1.0000
  C   C273      1.0  0.37080  0.59446  0.54981  1.0000
  C   C274      1.0  0.12920  0.40554  0.04981  1.0000
  C   C275      1.0  0.62920  0.09446  0.95019  1.0000
  C   C276      1.0  0.87080  0.90554  0.45019  1.0000
  C   C277      1.0  0.62920  0.40554  0.45019  1.0000
  C   C278      1.0  0.87080  0.59446  0.95019  1.0000
  C   C279      1.0  0.37080  0.90554  0.04981  1.0000
  C   C280      1.0  0.12920  0.09446  0.54981  1.0000
  H   H161      1.0  0.40002  0.60410  0.53453  1.0000
  H   H162      1.0  0.09998  0.39590  0.03453  1.0000
  H   H163      1.0  0.59998  0.10410  0.96547  1.0000
  H   H164      1.0  0.90002  0.89590  0.46547  1.0000
  H   H165      1.0  0.59998  0.39590  0.46547  1.0000
  H   H166      1.0  0.90002  0.60410  0.96547  1.0000
  H   H167      1.0  0.40002  0.89590  0.03453  1.0000
  H   H168      1.0  0.09998  0.10410  0.53453  1.0000
  C   C281      1.0  0.38090  0.58026  0.58951  1.0000
  C   C282      1.0  0.11910  0.41974  0.08951  1.0000
  C   C283      1.0  0.61910  0.08026  0.91049  1.0000
  C   C284      1.0  0.88090  0.91974  0.41049  1.0000
  C   C285      1.0  0.61910  0.41974  0.41049  1.0000
  C   C286      1.0  0.88090  0.58026  0.91049  1.0000
  C   C287      1.0  0.38090  0.91974  0.08951  1.0000
  C   C288      1.0  0.11910  0.08026  0.58951  1.0000
  H   H169      1.0  0.41611  0.58070  0.59987  1.0000
  H   H170      1.0  0.08389  0.41930  0.09987  1.0000
  H   H171      1.0  0.58389  0.08070  0.90013  1.0000
  H   H172      1.0  0.91611  0.91930  0.40013  1.0000
  H   H173      1.0  0.58389  0.41930  0.40013  1.0000
  H   H174      1.0  0.91611  0.58070  0.90013  1.0000
  H   H175      1.0  0.41611  0.91930  0.09987  1.0000
  H   H176      1.0  0.08389  0.08070  0.59987  1.0000
  C   C289      1.0  0.33920  0.56585  0.61287  1.0000
  C   C290      1.0  0.16080  0.43415  0.11287  1.0000
  C   C291      1.0  0.66080  0.06585  0.88713  1.0000
  C   C292      1.0  0.83920  0.93415  0.38713  1.0000
  C   C293      1.0  0.66080  0.43415  0.38713  1.0000
  C   C294      1.0  0.83920  0.56585  0.88713  1.0000
  C   C295      1.0  0.33920  0.93415  0.11287  1.0000
  C   C296      1.0  0.16080  0.06585  0.61287  1.0000
  C   C297      1.0  0.28660  0.56519  0.59656  1.0000
  C   C298      1.0  0.21340  0.43481  0.09656  1.0000
  C   C299      1.0  0.71340  0.06519  0.90344  1.0000
  C   C300      1.0  0.78660  0.93481  0.40344  1.0000
  C   C301      1.0  0.71340  0.43481  0.40344  1.0000
  C   C302      1.0  0.78660  0.56519  0.90344  1.0000
  C   C303      1.0  0.28660  0.93481  0.09656  1.0000
  C   C304      1.0  0.21340  0.06519  0.59656  1.0000
  H   H177      1.0  0.25747  0.55516  0.61166  1.0000
  H   H178      1.0  0.24253  0.44484  0.11166  1.0000
  H   H179      1.0  0.74253  0.05516  0.88834  1.0000
  H   H180      1.0  0.75747  0.94484  0.38834  1.0000
  H   H181      1.0  0.74253  0.44484  0.38834  1.0000
  H   H182      1.0  0.75747  0.55516  0.88834  1.0000
  H   H183      1.0  0.25747  0.94484  0.11166  1.0000
  H   H184      1.0  0.24253  0.05516  0.61166  1.0000
  C   C305      1.0  0.27890  0.58031  0.55620  1.0000
  C   C306      1.0  0.22110  0.41969  0.05620  1.0000
  C   C307      1.0  0.72110  0.08031  0.94380  1.0000
  C   C308      1.0  0.77890  0.91969  0.44380  1.0000
  C   C309      1.0  0.72110  0.41969  0.44380  1.0000
  C   C310      1.0  0.77890  0.58031  0.94380  1.0000
  C   C311      1.0  0.27890  0.91969  0.05620  1.0000
  C   C312      1.0  0.22110  0.08031  0.55620  1.0000
  H   H185      1.0  0.24407  0.58040  0.54518  1.0000
  H   H186      1.0  0.25593  0.41960  0.04518  1.0000
  H   H187      1.0  0.75593  0.08040  0.95482  1.0000
  H   H188      1.0  0.74407  0.91960  0.45482  1.0000
  H   H189      1.0  0.75593  0.41960  0.45482  1.0000
  H   H190      1.0  0.74407  0.58040  0.95482  1.0000
  H   H191      1.0  0.24407  0.91960  0.04518  1.0000
  H   H192      1.0  0.25593  0.08040  0.54518  1.0000
  C   C313      1.0  0.34940  0.54881  0.65382  1.0000
  C   C314      1.0  0.15060  0.45119  0.15382  1.0000
  C   C315      1.0  0.65060  0.04881  0.84618  1.0000
  C   C316      1.0  0.84940  0.95119  0.34618  1.0000
  C   C317      1.0  0.65060  0.45119  0.34618  1.0000
  C   C318      1.0  0.84940  0.54881  0.84618  1.0000
  C   C319      1.0  0.34940  0.95119  0.15382  1.0000
  C   C320      1.0  0.15060  0.04881  0.65382  1.0000
