data_image0
_chemical_formula_structural       Cu2O18H2N4C12H2C2H2C4H2C4H2C6H2C2H2C6H2C2H2C4H2C2H2C2H4C2H4C4H2C2H2C2H2C2H2
_chemical_formula_sum              "Cu2 O18 H38 N4 C58"
_cell_length_a       10.2701
_cell_length_b       13.3741
_cell_length_c       14.9368
_cell_angle_alpha    89.016
_cell_angle_beta     86.975
_cell_angle_gamma    67.753

_space_group_name_H-M_alt    "P 1"
_space_group_IT_number       1

loop_
  _space_group_symop_operation_xyz
  'x, y, z'

loop_
  _atom_site_type_symbol
  _atom_site_label
  _atom_site_symmetry_multiplicity
  _atom_site_fract_x
  _atom_site_fract_y
  _atom_site_fract_z
  _atom_site_occupancy
  Cu  Cu1       1.0  0.79392  0.84381  0.92199  1.0000
  Cu  Cu2       1.0  0.20608  0.15619  0.07801  1.0000
  O   O1        1.0  0.65980  0.86940  0.02640  1.0000
  O   O2        1.0  0.34020  0.13060  0.97360  1.0000
  O   O3        1.0  0.82750  0.75340  0.10740  1.0000
  O   O4        1.0  0.17250  0.24660  0.89260  1.0000
  O   O5        1.0  0.61620  0.01060  0.20330  1.0000
  O   O6        1.0  0.38380  0.98940  0.79670  1.0000
  O   O7        1.0  0.39450  0.09170  0.16760  1.0000
  O   O8        1.0  0.60550  0.90830  0.83240  1.0000
  O   O9        1.0  0.36870  0.58260  0.29340  1.0000
  O   O10       1.0  0.63130  0.41740  0.70660  1.0000
  O   O11       1.0  0.02960  0.21200  0.15170  1.0000
  O   O12       1.0  0.97040  0.78800  0.84830  1.0000
  O   O13       1.0  0.09800  0.19150  0.29280  1.0000
  O   O14       1.0  0.90200  0.80850  0.70720  1.0000
  O   O15       1.0  0.84000  0.11430  0.24980  1.0000
  O   O16       1.0  0.16000  0.88570  0.75020  1.0000
  O   O17       1.0  0.61480  0.19500  0.21650  1.0000
  O   O18       1.0  0.38520  0.80500  0.78350  1.0000
  H   H1        1.0  0.62380  0.13350  0.20290  1.0000
  H   H2        1.0  0.37620  0.86650  0.79710  1.0000
  N   N1        1.0  0.78660  0.69310  0.91190  1.0000
  N   N2        1.0  0.21340  0.30690  0.08810  1.0000
  N   N3        1.0  0.80900  0.98810  0.93650  1.0000
  N   N4        1.0  0.19100  0.01190  0.06350  1.0000
  C   C1        1.0  0.70260  0.81130  0.09480  1.0000
  C   C2        1.0  0.29740  0.18870  0.90520  1.0000
  C   C3        1.0  0.49520  0.01090  0.18600  1.0000
  C   C4        1.0  0.50480  0.98910  0.81400  1.0000
  C   C5        1.0  0.47920  0.59300  0.27210  1.0000
  C   C6        1.0  0.52080  0.40700  0.72790  1.0000
  C   C7        1.0  0.58840  0.80860  0.16210  1.0000
  C   C8        1.0  0.41160  0.19140  0.83790  1.0000
  C   C9        1.0  0.48300  0.90230  0.19810  1.0000
  C   C10       1.0  0.51700  0.09770  0.80190  1.0000
  C   C11       1.0  0.37400  0.89460  0.25260  1.0000
  C   C12       1.0  0.62600  0.10540  0.74740  1.0000
  H   H3        1.0  0.30220  0.95700  0.27460  1.0000
  H   H4        1.0  0.69780  0.04300  0.72540  1.0000
  C   C13       1.0  0.37110  0.79350  0.27490  1.0000
  C   C14       1.0  0.62890  0.20650  0.72510  1.0000
  H   H5        1.0  0.29680  0.78870  0.31070  1.0000
  H   H6        1.0  0.70320  0.21130  0.68930  1.0000
  C   C15       1.0  0.47930  0.70000  0.24350  1.0000
  C   C16       1.0  0.52070  0.30000  0.75650  1.0000
  C   C17       1.0  0.58450  0.70900  0.18540  1.0000
  C   C18       1.0  0.41550  0.29100  0.81460  1.0000
  H   H7        1.0  0.65400  0.64660  0.16160  1.0000
  H   H8        1.0  0.34600  0.35340  0.83840  1.0000
  C   C19       1.0  0.61580  0.49730  0.27250  1.0000
  C   C20       1.0  0.38420  0.50270  0.72750  1.0000
  C   C21       1.0  0.61380  0.39590  0.25670  1.0000
  C   C22       1.0  0.38620  0.60410  0.74330  1.0000
  H   H9        1.0  0.52810  0.38850  0.25100  1.0000
  H   H10       1.0  0.47190  0.61150  0.74900  1.0000
  C   C23       1.0  0.73930  0.30430  0.24920  1.0000
  C   C24       1.0  0.26070  0.69570  0.75080  1.0000
  C   C25       1.0  0.86700  0.31730  0.25960  1.0000
  C   C26       1.0  0.13300  0.68270  0.74040  1.0000
  C   C27       1.0  0.86660  0.41650  0.28260  1.0000
  C   C28       1.0  0.13340  0.58350  0.71740  1.0000
  H   H11       1.0  0.95090  0.42310  0.29460  1.0000
  H   H12       1.0  0.04910  0.57690  0.70540  1.0000
  C   C29       1.0  0.74170  0.50700  0.28820  1.0000
  C   C30       1.0  0.25830  0.49300  0.71180  1.0000
  H   H13       1.0  0.74310  0.57390  0.30250  1.0000
  H   H14       1.0  0.25690  0.42610  0.69750  1.0000
  C   C31       1.0  0.00990  0.22930  0.23500  1.0000
  C   C32       1.0  0.99010  0.77070  0.76500  1.0000
  C   C33       1.0  0.73500  0.19530  0.23710  1.0000
  C   C34       1.0  0.26500  0.80470  0.76290  1.0000
  C   C35       1.0  0.89990  0.60170  0.90780  1.0000
  C   C36       1.0  0.10010  0.39830  0.09220  1.0000
  H   H15       1.0  0.98790  0.60690  0.90560  1.0000
  H   H16       1.0  0.01210  0.39310  0.09440  1.0000
  C   C37       1.0  0.89590  0.50040  0.90650  1.0000
  C   C38       1.0  0.10410  0.49960  0.09350  1.0000
  H   H17       1.0  0.97910  0.43950  0.90310  1.0000
  H   H18       1.0  0.02090  0.56050  0.09690  1.0000
  C   C39       1.0  0.76560  0.48950  0.91020  1.0000
  C   C40       1.0  0.23440  0.51050  0.08980  1.0000
  C   C41       1.0  0.64630  0.58410  0.91720  1.0000
  C   C42       1.0  0.35370  0.41590  0.08280  1.0000
  H   H19       1.0  0.55710  0.58140  0.92250  1.0000
  H   H20       1.0  0.44290  0.41860  0.07750  1.0000
  C   C43       1.0  0.66230  0.68280  0.91610  1.0000
  C   C44       1.0  0.33770  0.31720  0.08390  1.0000
  H   H21       1.0  0.58130  0.74540  0.91830  1.0000
  H   H22       1.0  0.41870  0.25460  0.08170  1.0000
  C   C45       1.0  0.75370  0.38000  0.90440  1.0000
  C   C46       1.0  0.24630  0.62000  0.09560  1.0000
  H   H23       1.0  0.65520  0.39000  0.91190  1.0000
  H   H24       1.0  0.34480  0.61000  0.08810  1.0000
  H   H25       1.0  0.78740  0.35010  0.84500  1.0000
  H   H26       1.0  0.21260  0.64990  0.15500  1.0000
  C   C47       1.0  0.83540  0.30020  0.97330  1.0000
  C   C48       1.0  0.16460  0.69980  0.02670  1.0000
  H   H27       1.0  0.79740  0.32680  0.03290  1.0000
  H   H28       1.0  0.20260  0.67320  0.96710  1.0000
  H   H29       1.0  0.93310  0.29290  0.96860  1.0000
  H   H30       1.0  0.06690  0.70710  0.03140  1.0000
  C   C49       1.0  0.82720  0.19040  0.95960  1.0000
  C   C50       1.0  0.17280  0.80960  0.04040  1.0000
  C   C51       1.0  0.92770  0.11010  0.90700  1.0000
  C   C52       1.0  0.07230  0.88990  0.09300  1.0000
  H   H31       1.0  0.00280  0.12240  0.87820  1.0000
  H   H32       1.0  0.99720  0.87760  0.12180  1.0000
  C   C53       1.0  0.91420  0.01200  0.89820  1.0000
  C   C54       1.0  0.08580  0.98800  0.10180  1.0000
  H   H33       1.0  0.98290  0.95910  0.86340  1.0000
  H   H34       1.0  0.01710  0.04090  0.13660  1.0000
  C   C55       1.0  0.70990  0.06660  0.98610  1.0000
  C   C56       1.0  0.29010  0.93340  0.01390  1.0000
  H   H35       1.0  0.63450  0.05290  0.01280  1.0000
  H   H36       1.0  0.36550  0.94710  0.98720  1.0000
  C   C57       1.0  0.71680  0.16670  0.99840  1.0000
  C   C58       1.0  0.28320  0.83330  0.00160  1.0000
  H   H37       1.0  0.64650  0.21870  0.03310  1.0000
  H   H38       1.0  0.35350  0.78130  0.96690  1.0000
