data_image0
_chemical_formula_structural       Ag4O12H4O16N8C8H4C8H4C8H4C12H4C4H4C8H4C4H4C4H4C4H4C8H4C4H4S4
_chemical_formula_sum              "Ag4 O28 H48 N8 C72 S4"
_cell_length_a       18.3027
_cell_length_b       11.4073
_cell_length_c       13.7081
_cell_angle_alpha    90
_cell_angle_beta     92.44
_cell_angle_gamma    90

_space_group_name_H-M_alt    "P 1"
_space_group_IT_number       1

loop_
  _space_group_symop_operation_xyz
  'x, y, z'

loop_
  _atom_site_type_symbol
  _atom_site_label
  _atom_site_symmetry_multiplicity
  _atom_site_fract_x
  _atom_site_fract_y
  _atom_site_fract_z
  _atom_site_occupancy
  Ag  Ag1       1.0  0.04784  0.33244  0.16224  1.0000
  Ag  Ag2       1.0  0.95216  0.33244  0.33776  1.0000
  Ag  Ag3       1.0  0.95216  0.66756  0.83776  1.0000
  Ag  Ag4       1.0  0.04784  0.66756  0.66224  1.0000
  O   O1        1.0  0.11620  0.37190  0.31660  1.0000
  O   O2        1.0  0.88380  0.37190  0.18340  1.0000
  O   O3        1.0  0.88380  0.62810  0.68340  1.0000
  O   O4        1.0  0.11620  0.62810  0.81660  1.0000
  O   O5        1.0  0.17990  0.20710  0.30920  1.0000
  O   O6        1.0  0.82010  0.20710  0.19080  1.0000
  O   O7        1.0  0.82010  0.79290  0.69080  1.0000
  O   O8        1.0  0.17990  0.79290  0.80920  1.0000
  O   O9        1.0  0.22620  0.68800  0.51890  1.0000
  O   O10       1.0  0.77380  0.68800  0.98110  1.0000
  O   O11       1.0  0.77380  0.31200  0.48110  1.0000
  O   O12       1.0  0.22620  0.31200  0.01890  1.0000
  H   H1        1.0  0.23620  0.75560  0.53460  1.0000
  H   H2        1.0  0.76380  0.75560  0.96540  1.0000
  H   H3        1.0  0.76380  0.24440  0.46540  1.0000
  H   H4        1.0  0.23620  0.24440  0.03460  1.0000
  O   O13       1.0  0.30790  0.64720  0.63870  1.0000
  O   O14       1.0  0.69210  0.64720  0.86130  1.0000
  O   O15       1.0  0.69210  0.35280  0.36130  1.0000
  O   O16       1.0  0.30790  0.35280  0.13870  1.0000
  O   O17       1.0  0.28650  0.07130  0.63970  1.0000
  O   O18       1.0  0.71350  0.07130  0.86030  1.0000
  O   O19       1.0  0.71350  0.92870  0.36030  1.0000
  O   O20       1.0  0.28650  0.92870  0.13970  1.0000
  O   O21       1.0  0.39580  0.18080  0.64070  1.0000
  O   O22       1.0  0.60420  0.18080  0.85930  1.0000
  O   O23       1.0  0.60420  0.81920  0.35930  1.0000
  O   O24       1.0  0.39580  0.81920  0.14070  1.0000
  O   O25       1.0  0.30830  0.21530  0.75830  1.0000
  O   O26       1.0  0.69170  0.21530  0.74170  1.0000
  O   O27       1.0  0.69170  0.78470  0.24170  1.0000
  O   O28       1.0  0.30830  0.78470  0.25830  1.0000
  N   N1        1.0  0.04080  0.14600  0.12910  1.0000
  N   N2        1.0  0.95920  0.14600  0.37090  1.0000
  N   N3        1.0  0.95920  0.85400  0.87090  1.0000
  N   N4        1.0  0.04080  0.85400  0.62910  1.0000
  N   N5        1.0  0.04380  0.52450  0.14180  1.0000
  N   N6        1.0  0.95620  0.52450  0.35820  1.0000
  N   N7        1.0  0.95620  0.47550  0.85820  1.0000
  N   N8        1.0  0.04380  0.47550  0.64180  1.0000
  C   C1        1.0  0.20660  0.33780  0.43970  1.0000
  C   C2        1.0  0.79340  0.33780  0.06030  1.0000
  C   C3        1.0  0.79340  0.66220  0.56030  1.0000
  C   C4        1.0  0.20660  0.66220  0.93970  1.0000
  C   C5        1.0  0.21140  0.45540  0.46630  1.0000
  C   C6        1.0  0.78860  0.45540  0.03370  1.0000
  C   C7        1.0  0.78860  0.54460  0.53370  1.0000
  C   C8        1.0  0.21140  0.54460  0.96630  1.0000
  H   H5        1.0  0.18790  0.51170  0.42730  1.0000
  H   H6        1.0  0.81210  0.51170  0.07270  1.0000
  H   H7        1.0  0.81210  0.48830  0.57270  1.0000
  H   H8        1.0  0.18790  0.48830  0.92730  1.0000
  C   C9        1.0  0.25110  0.49010  0.55060  1.0000
  C   C10       1.0  0.74890  0.49010  0.94940  1.0000
  C   C11       1.0  0.74890  0.50990  0.44940  1.0000
  C   C12       1.0  0.25110  0.50990  0.05060  1.0000
  C   C13       1.0  0.28430  0.40340  0.60930  1.0000
  C   C14       1.0  0.71570  0.40340  0.89070  1.0000
  C   C15       1.0  0.71570  0.59660  0.39070  1.0000
  C   C16       1.0  0.28430  0.59660  0.10930  1.0000
  H   H9        1.0  0.31010  0.42470  0.66640  1.0000
  H   H10       1.0  0.68990  0.42470  0.83360  1.0000
  H   H11       1.0  0.68990  0.57530  0.33360  1.0000
  H   H12       1.0  0.31010  0.57530  0.16640  1.0000
  C   C17       1.0  0.27910  0.28740  0.58360  1.0000
  C   C18       1.0  0.72090  0.28740  0.91640  1.0000
  C   C19       1.0  0.72090  0.71260  0.41640  1.0000
  C   C20       1.0  0.27910  0.71260  0.08360  1.0000
  C   C21       1.0  0.24140  0.25320  0.49890  1.0000
  C   C22       1.0  0.75860  0.25320  0.00110  1.0000
  C   C23       1.0  0.75860  0.74680  0.50110  1.0000
  C   C24       1.0  0.24140  0.74680  0.99890  1.0000
  H   H13       1.0  0.23910  0.17450  0.48150  1.0000
  H   H14       1.0  0.76090  0.17450  0.01850  1.0000
  H   H15       1.0  0.76090  0.82550  0.51850  1.0000
  H   H16       1.0  0.23910  0.82550  0.98150  1.0000
  C   C25       1.0  0.16520  0.30220  0.34640  1.0000
  C   C26       1.0  0.83480  0.30220  0.15360  1.0000
  C   C27       1.0  0.83480  0.69780  0.65360  1.0000
  C   C28       1.0  0.16520  0.69780  0.84640  1.0000
  C   C29       1.0  0.26490  0.61570  0.57360  1.0000
  C   C30       1.0  0.73510  0.61570  0.92640  1.0000
  C   C31       1.0  0.73510  0.38430  0.42640  1.0000
  C   C32       1.0  0.26490  0.38430  0.07360  1.0000
  C   C33       1.0  0.97870  0.08360  0.12860  1.0000
  C   C34       1.0  0.02130  0.08360  0.37140  1.0000
  C   C35       1.0  0.02130  0.91640  0.87140  1.0000
  C   C36       1.0  0.97870  0.91640  0.62860  1.0000
  H   H17       1.0  0.93470  0.12400  0.12990  1.0000
  H   H18       1.0  0.06530  0.12400  0.37010  1.0000
  H   H19       1.0  0.06530  0.87600  0.87010  1.0000
  H   H20       1.0  0.93470  0.87600  0.62990  1.0000
  C   C37       1.0  0.97660  0.96390  0.12630  1.0000
  C   C38       1.0  0.02340  0.96390  0.37370  1.0000
  C   C39       1.0  0.02340  0.03610  0.87370  1.0000
  C   C40       1.0  0.97660  0.03610  0.62630  1.0000
  H   H21       1.0  0.93170  0.92570  0.12670  1.0000
  H   H22       1.0  0.06830  0.92570  0.37330  1.0000
  H   H23       1.0  0.06830  0.07430  0.87330  1.0000
  H   H24       1.0  0.93170  0.07430  0.62670  1.0000
  C   C41       1.0  0.04030  0.89840  0.12340  1.0000
  C   C42       1.0  0.95970  0.89840  0.37660  1.0000
  C   C43       1.0  0.95970  0.10160  0.87660  1.0000
  C   C44       1.0  0.04030  0.10160  0.62340  1.0000
  C   C45       1.0  0.10460  0.96400  0.12050  1.0000
  C   C46       1.0  0.89540  0.96400  0.37950  1.0000
  C   C47       1.0  0.89540  0.03600  0.87950  1.0000
  C   C48       1.0  0.10460  0.03600  0.62050  1.0000
  H   H25       1.0  0.14930  0.92570  0.11680  1.0000
  H   H26       1.0  0.85070  0.92570  0.38320  1.0000
  H   H27       1.0  0.85070  0.07430  0.88320  1.0000
  H   H28       1.0  0.14930  0.07430  0.61680  1.0000
  C   C49       1.0  0.10280  0.08380  0.12310  1.0000
  C   C50       1.0  0.89720  0.08380  0.37690  1.0000
  C   C51       1.0  0.89720  0.91620  0.87690  1.0000
  C   C52       1.0  0.10280  0.91620  0.62310  1.0000
  H   H29       1.0  0.14680  0.12430  0.12050  1.0000
  H   H30       1.0  0.85320  0.12430  0.37950  1.0000
  H   H31       1.0  0.85320  0.87570  0.87950  1.0000
  H   H32       1.0  0.14680  0.87570  0.62050  1.0000
  C   C53       1.0  0.09990  0.59070  0.17840  1.0000
  C   C54       1.0  0.90010  0.59070  0.32160  1.0000
  C   C55       1.0  0.90010  0.40930  0.82160  1.0000
  C   C56       1.0  0.09990  0.40930  0.67840  1.0000
  H   H33       1.0  0.14000  0.55290  0.20810  1.0000
  H   H34       1.0  0.86000  0.55290  0.29190  1.0000
  H   H35       1.0  0.86000  0.44710  0.79190  1.0000
  H   H36       1.0  0.14000  0.44710  0.70810  1.0000
  C   C57       1.0  0.10050  0.71050  0.17370  1.0000
  C   C58       1.0  0.89950  0.71050  0.32630  1.0000
  C   C59       1.0  0.89950  0.28950  0.82630  1.0000
  C   C60       1.0  0.10050  0.28950  0.67370  1.0000
  H   H37       1.0  0.13980  0.75250  0.20110  1.0000
  H   H38       1.0  0.86020  0.75250  0.29890  1.0000
  H   H39       1.0  0.86020  0.24750  0.79890  1.0000
  H   H40       1.0  0.13980  0.24750  0.70110  1.0000
  C   C61       1.0  0.04110  0.76980  0.12700  1.0000
  C   C62       1.0  0.95890  0.76980  0.37300  1.0000
  C   C63       1.0  0.95890  0.23020  0.87300  1.0000
  C   C64       1.0  0.04110  0.23020  0.62700  1.0000
  C   C65       1.0  0.98330  0.70130  0.09070  1.0000
  C   C66       1.0  0.01670  0.70130  0.40930  1.0000
  C   C67       1.0  0.01670  0.29870  0.90930  1.0000
  C   C68       1.0  0.98330  0.29870  0.59070  1.0000
  H   H41       1.0  0.94230  0.73660  0.06110  1.0000
  H   H42       1.0  0.05770  0.73660  0.43890  1.0000
  H   H43       1.0  0.05770  0.26340  0.93890  1.0000
  H   H44       1.0  0.94230  0.26340  0.56110  1.0000
  C   C69       1.0  0.98670  0.58310  0.09860  1.0000
  C   C70       1.0  0.01330  0.58310  0.40140  1.0000
  C   C71       1.0  0.01330  0.41690  0.90140  1.0000
  C   C72       1.0  0.98670  0.41690  0.59860  1.0000
  H   H45       1.0  0.94750  0.53950  0.07280  1.0000
  H   H46       1.0  0.05250  0.53950  0.42720  1.0000
  H   H47       1.0  0.05250  0.46050  0.92720  1.0000
  H   H48       1.0  0.94750  0.46050  0.57280  1.0000
  S   S1        1.0  0.32227  0.17929  0.65995  1.0000
  S   S2        1.0  0.67773  0.17929  0.84005  1.0000
  S   S3        1.0  0.67773  0.82071  0.34005  1.0000
  S   S4        1.0  0.32227  0.82071  0.15995  1.0000
