data_image0
_chemical_formula_structural       N8C16N8C32Na4H96In20Se36
_chemical_formula_sum              "N16 C48 Na4 H96 In20 Se36"
_cell_length_a       15.123
_cell_length_b       20.189
_cell_length_c       12.1666
_cell_angle_alpha    90
_cell_angle_beta     98.459
_cell_angle_gamma    90

_space_group_name_H-M_alt    "P 1"
_space_group_IT_number       1

loop_
  _space_group_symop_operation_xyz
  'x, y, z'

loop_
  _atom_site_type_symbol
  _atom_site_label
  _atom_site_symmetry_multiplicity
  _atom_site_fract_x
  _atom_site_fract_y
  _atom_site_fract_z
  _atom_site_occupancy
  N   N1        1.0  0.13850  0.42198  0.39060  1.0000
  N   N2        1.0  0.63850  0.92198  0.39060  1.0000
  N   N3        1.0  0.86150  0.42198  0.10940  1.0000
  N   N4        1.0  0.36150  0.92198  0.10940  1.0000
  N   N5        1.0  0.86150  0.57802  0.60940  1.0000
  N   N6        1.0  0.36150  0.07802  0.60940  1.0000
  N   N7        1.0  0.13850  0.57802  0.89060  1.0000
  N   N8        1.0  0.63850  0.07802  0.89060  1.0000
  C   C1        1.0  0.12140  0.44680  0.49920  1.0000
  C   C2        1.0  0.62140  0.94680  0.49920  1.0000
  C   C3        1.0  0.87860  0.44680  0.00080  1.0000
  C   C4        1.0  0.37860  0.94680  0.00080  1.0000
  C   C5        1.0  0.87860  0.55320  0.50080  1.0000
  C   C6        1.0  0.37860  0.05320  0.50080  1.0000
  C   C7        1.0  0.12140  0.55320  0.99920  1.0000
  C   C8        1.0  0.62140  0.05320  0.99920  1.0000
  C   C9        1.0  0.20650  0.44210  0.58750  1.0000
  C   C10       1.0  0.70650  0.94210  0.58750  1.0000
  C   C11       1.0  0.79350  0.44210  0.91250  1.0000
  C   C12       1.0  0.29350  0.94210  0.91250  1.0000
  C   C13       1.0  0.79350  0.55790  0.41250  1.0000
  C   C14       1.0  0.29350  0.05790  0.41250  1.0000
  C   C15       1.0  0.20650  0.55790  0.08750  1.0000
  C   C16       1.0  0.70650  0.05790  0.08750  1.0000
  N   N9        1.0  0.27570  0.40379  0.53720  1.0000
  N   N10       1.0  0.77570  0.90379  0.53720  1.0000
  N   N11       1.0  0.72430  0.40379  0.96280  1.0000
  N   N12       1.0  0.22430  0.90379  0.96280  1.0000
  N   N13       1.0  0.72430  0.59621  0.46280  1.0000
  N   N14       1.0  0.22430  0.09621  0.46280  1.0000
  N   N15       1.0  0.27570  0.59621  0.03720  1.0000
  N   N16       1.0  0.77570  0.09621  0.03720  1.0000
  C   C17       1.0  0.16040  0.35060  0.40140  1.0000
  C   C18       1.0  0.66040  0.85060  0.40140  1.0000
  C   C19       1.0  0.83960  0.35060  0.09860  1.0000
  C   C20       1.0  0.33960  0.85060  0.09860  1.0000
  C   C21       1.0  0.83960  0.64940  0.59860  1.0000
  C   C22       1.0  0.33960  0.14940  0.59860  1.0000
  C   C23       1.0  0.16040  0.64940  0.90140  1.0000
  C   C24       1.0  0.66040  0.14940  0.90140  1.0000
  C   C25       1.0  0.23700  0.33870  0.49730  1.0000
  C   C26       1.0  0.73700  0.83870  0.49730  1.0000
  C   C27       1.0  0.76300  0.33870  0.00270  1.0000
  C   C28       1.0  0.26300  0.83870  0.00270  1.0000
  C   C29       1.0  0.76300  0.66130  0.50270  1.0000
  C   C30       1.0  0.26300  0.16130  0.50270  1.0000
  C   C31       1.0  0.23700  0.66130  0.99730  1.0000
  C   C32       1.0  0.73700  0.16130  0.99730  1.0000
  C   C33       1.0  0.21610  0.45770  0.35980  1.0000
  C   C34       1.0  0.71610  0.95770  0.35980  1.0000
  C   C35       1.0  0.78390  0.45770  0.14020  1.0000
  C   C36       1.0  0.28390  0.95770  0.14020  1.0000
  C   C37       1.0  0.78390  0.54230  0.64020  1.0000
  C   C38       1.0  0.28390  0.04230  0.64020  1.0000
  C   C39       1.0  0.21610  0.54230  0.85980  1.0000
  C   C40       1.0  0.71610  0.04230  0.85980  1.0000
  C   C41       1.0  0.30160  0.44180  0.44150  1.0000
  C   C42       1.0  0.80160  0.94180  0.44150  1.0000
  C   C43       1.0  0.69840  0.44180  0.05850  1.0000
  C   C44       1.0  0.19840  0.94180  0.05850  1.0000
  C   C45       1.0  0.69840  0.55820  0.55850  1.0000
  C   C46       1.0  0.19840  0.05820  0.55850  1.0000
  C   C47       1.0  0.30160  0.55820  0.94150  1.0000
  C   C48       1.0  0.80160  0.05820  0.94150  1.0000
  Na  Na1       1.0  0.00000  0.43516  0.25000  1.0000
  Na  Na2       1.0  0.50000  0.93516  0.25000  1.0000
  Na  Na3       1.0  0.00000  0.56484  0.75000  1.0000
  Na  Na4       1.0  0.50000  0.06484  0.75000  1.0000
  H   H1        1.0  0.10310  0.49190  0.49170  1.0000
  H   H2        1.0  0.60310  0.99190  0.49170  1.0000
  H   H3        1.0  0.89690  0.49190  0.00830  1.0000
  H   H4        1.0  0.39690  0.99190  0.00830  1.0000
  H   H5        1.0  0.89690  0.50810  0.50830  1.0000
  H   H6        1.0  0.39690  0.00810  0.50830  1.0000
  H   H7        1.0  0.10310  0.50810  0.99170  1.0000
  H   H8        1.0  0.60310  0.00810  0.99170  1.0000
  H   H9        1.0  0.07520  0.42130  0.52330  1.0000
  H   H10       1.0  0.57520  0.92130  0.52330  1.0000
  H   H11       1.0  0.92480  0.42130  0.97670  1.0000
  H   H12       1.0  0.42480  0.92130  0.97670  1.0000
  H   H13       1.0  0.92480  0.57870  0.47670  1.0000
  H   H14       1.0  0.42480  0.07870  0.47670  1.0000
  H   H15       1.0  0.07520  0.57870  0.02330  1.0000
  H   H16       1.0  0.57520  0.07870  0.02330  1.0000
  H   H17       1.0  0.22820  0.48530  0.60730  1.0000
  H   H18       1.0  0.72820  0.98530  0.60730  1.0000
  H   H19       1.0  0.77180  0.48530  0.89270  1.0000
  H   H20       1.0  0.27180  0.98530  0.89270  1.0000
  H   H21       1.0  0.77180  0.51470  0.39270  1.0000
  H   H22       1.0  0.27180  0.01470  0.39270  1.0000
  H   H23       1.0  0.22820  0.51470  0.10730  1.0000
  H   H24       1.0  0.72820  0.01470  0.10730  1.0000
  H   H25       1.0  0.19280  0.41990  0.65160  1.0000
  H   H26       1.0  0.69280  0.91990  0.65160  1.0000
  H   H27       1.0  0.80720  0.41990  0.84840  1.0000
  H   H28       1.0  0.30720  0.91990  0.84840  1.0000
  H   H29       1.0  0.80720  0.58010  0.34840  1.0000
  H   H30       1.0  0.30720  0.08010  0.34840  1.0000
  H   H31       1.0  0.19280  0.58010  0.15160  1.0000
  H   H32       1.0  0.69280  0.08010  0.15160  1.0000
  H   H33       1.0  0.10910  0.32680  0.41530  1.0000
  H   H34       1.0  0.60910  0.82680  0.41530  1.0000
  H   H35       1.0  0.89090  0.32680  0.08470  1.0000
  H   H36       1.0  0.39090  0.82680  0.08470  1.0000
  H   H37       1.0  0.89090  0.67320  0.58470  1.0000
  H   H38       1.0  0.39090  0.17320  0.58470  1.0000
  H   H39       1.0  0.10910  0.67320  0.91530  1.0000
  H   H40       1.0  0.60910  0.17320  0.91530  1.0000
  H   H41       1.0  0.17820  0.33530  0.33400  1.0000
  H   H42       1.0  0.67820  0.83530  0.33400  1.0000
  H   H43       1.0  0.82180  0.33530  0.16600  1.0000
  H   H44       1.0  0.32180  0.83530  0.16600  1.0000
  H   H45       1.0  0.82180  0.66470  0.66600  1.0000
  H   H46       1.0  0.32180  0.16470  0.66600  1.0000
  H   H47       1.0  0.17820  0.66470  0.83400  1.0000
  H   H48       1.0  0.67820  0.16470  0.83400  1.0000
  H   H49       1.0  0.21460  0.31650  0.55650  1.0000
  H   H50       1.0  0.71460  0.81650  0.55650  1.0000
  H   H51       1.0  0.78540  0.31650  0.94350  1.0000
  H   H52       1.0  0.28540  0.81650  0.94350  1.0000
  H   H53       1.0  0.78540  0.68350  0.44350  1.0000
  H   H54       1.0  0.28540  0.18350  0.44350  1.0000
  H   H55       1.0  0.21460  0.68350  0.05650  1.0000
  H   H56       1.0  0.71460  0.18350  0.05650  1.0000
  H   H57       1.0  0.28190  0.31220  0.47210  1.0000
  H   H58       1.0  0.78190  0.81220  0.47210  1.0000
  H   H59       1.0  0.71810  0.31220  0.02790  1.0000
  H   H60       1.0  0.21810  0.81220  0.02790  1.0000
  H   H61       1.0  0.71810  0.68780  0.52790  1.0000
  H   H62       1.0  0.21810  0.18780  0.52790  1.0000
  H   H63       1.0  0.28190  0.68780  0.97210  1.0000
  H   H64       1.0  0.78190  0.18780  0.97210  1.0000
  H   H65       1.0  0.20490  0.50400  0.36120  1.0000
  H   H66       1.0  0.70490  0.00400  0.36120  1.0000
  H   H67       1.0  0.79510  0.50400  0.13880  1.0000
  H   H68       1.0  0.29510  0.00400  0.13880  1.0000
  H   H69       1.0  0.79510  0.49600  0.63880  1.0000
  H   H70       1.0  0.29510  0.99600  0.63880  1.0000
  H   H71       1.0  0.20490  0.49600  0.86120  1.0000
  H   H72       1.0  0.70490  0.99600  0.86120  1.0000
  H   H73       1.0  0.22470  0.44480  0.28700  1.0000
  H   H74       1.0  0.72470  0.94480  0.28700  1.0000
  H   H75       1.0  0.77530  0.44480  0.21300  1.0000
  H   H76       1.0  0.27530  0.94480  0.21300  1.0000
  H   H77       1.0  0.77530  0.55520  0.71300  1.0000
  H   H78       1.0  0.27530  0.05520  0.71300  1.0000
  H   H79       1.0  0.22470  0.55520  0.78700  1.0000
  H   H80       1.0  0.72470  0.05520  0.78700  1.0000
  H   H81       1.0  0.33040  0.48190  0.46750  1.0000
  H   H82       1.0  0.83040  0.98190  0.46750  1.0000
  H   H83       1.0  0.66960  0.48190  0.03250  1.0000
  H   H84       1.0  0.16960  0.98190  0.03250  1.0000
  H   H85       1.0  0.66960  0.51810  0.53250  1.0000
  H   H86       1.0  0.16960  0.01810  0.53250  1.0000
  H   H87       1.0  0.33040  0.51810  0.96750  1.0000
  H   H88       1.0  0.83040  0.01810  0.96750  1.0000
  H   H89       1.0  0.34110  0.41610  0.40500  1.0000
  H   H90       1.0  0.84110  0.91610  0.40500  1.0000
  H   H91       1.0  0.65890  0.41610  0.09500  1.0000
  H   H92       1.0  0.15890  0.91610  0.09500  1.0000
  H   H93       1.0  0.65890  0.58390  0.59500  1.0000
  H   H94       1.0  0.15890  0.08390  0.59500  1.0000
  H   H95       1.0  0.34110  0.58390  0.90500  1.0000
  H   H96       1.0  0.84110  0.08390  0.90500  1.0000
  In  In1       1.0  0.94063  0.67160  0.10740  1.0000
  In  In2       1.0  0.44063  0.17159  0.10740  1.0000
  In  In3       1.0  0.05938  0.67160  0.39260  1.0000
  In  In4       1.0  0.55937  0.17159  0.39260  1.0000
  In  In5       1.0  0.05938  0.32840  0.89260  1.0000
  In  In6       1.0  0.55937  0.82840  0.89260  1.0000
  In  In7       1.0  0.94063  0.32840  0.60740  1.0000
  In  In8       1.0  0.44063  0.82840  0.60740  1.0000
  In  In9       1.0  0.73846  0.67362  0.92530  1.0000
  In  In10      1.0  0.23846  0.17362  0.92530  1.0000
  In  In11      1.0  0.26154  0.67362  0.57470  1.0000
  In  In12      1.0  0.76154  0.17362  0.57470  1.0000
  In  In13      1.0  0.26154  0.32638  0.07470  1.0000
  In  In14      1.0  0.76154  0.82638  0.07470  1.0000
  In  In15      1.0  0.73846  0.32638  0.42530  1.0000
  In  In16      1.0  0.23846  0.82638  0.42530  1.0000
  In  In17      1.0  0.00000  0.83459  0.25000  1.0000
  In  In18      1.0  0.50000  0.33459  0.25000  1.0000
  In  In19      1.0  0.00000  0.16541  0.75000  1.0000
  In  In20      1.0  0.50000  0.66541  0.75000  1.0000
  Se  Se1       1.0  0.00000  0.58240  0.25000  1.0000
  Se  Se2       1.0  0.50000  0.08240  0.25000  1.0000
  Se  Se3       1.0  0.00000  0.41760  0.75000  1.0000
  Se  Se4       1.0  0.50000  0.91760  0.75000  1.0000
  Se  Se5       1.0  0.05599  0.76283  0.10191  1.0000
  Se  Se6       1.0  0.55599  0.26283  0.10191  1.0000
  Se  Se7       1.0  0.94401  0.76283  0.39809  1.0000
  Se  Se8       1.0  0.44401  0.26283  0.39809  1.0000
  Se  Se9       1.0  0.94401  0.23717  0.89809  1.0000
  Se  Se10      1.0  0.44401  0.73717  0.89809  1.0000
  Se  Se11      1.0  0.05599  0.23717  0.60191  1.0000
  Se  Se12      1.0  0.55599  0.73717  0.60191  1.0000
  Se  Se13      1.0  0.89448  0.62899  0.90777  1.0000
  Se  Se14      1.0  0.39448  0.12899  0.90777  1.0000
  Se  Se15      1.0  0.10552  0.62899  0.59223  1.0000
  Se  Se16      1.0  0.60552  0.12899  0.59223  1.0000
  Se  Se17      1.0  0.10552  0.37101  0.09223  1.0000
  Se  Se18      1.0  0.60552  0.87101  0.09223  1.0000
  Se  Se19      1.0  0.89448  0.37101  0.40777  1.0000
  Se  Se20      1.0  0.39448  0.87101  0.40777  1.0000
  Se  Se21      1.0  0.77579  0.70268  0.14185  1.0000
  Se  Se22      1.0  0.27579  0.20268  0.14185  1.0000
  Se  Se23      1.0  0.22421  0.70268  0.35815  1.0000
  Se  Se24      1.0  0.72421  0.20268  0.35815  1.0000
  Se  Se25      1.0  0.22421  0.29732  0.85815  1.0000
  Se  Se26      1.0  0.72421  0.79732  0.85815  1.0000
  Se  Se27      1.0  0.77579  0.29732  0.64185  1.0000
  Se  Se28      1.0  0.27579  0.79732  0.64185  1.0000
  Se  Se29      1.0  0.62155  0.58919  0.85291  1.0000
  Se  Se30      1.0  0.12155  0.08919  0.85291  1.0000
  Se  Se31      1.0  0.37845  0.58919  0.64709  1.0000
  Se  Se32      1.0  0.87845  0.08919  0.64709  1.0000
  Se  Se33      1.0  0.37845  0.41081  0.14709  1.0000
  Se  Se34      1.0  0.87845  0.91081  0.14709  1.0000
  Se  Se35      1.0  0.62155  0.41081  0.35291  1.0000
  Se  Se36      1.0  0.12155  0.91081  0.35291  1.0000
