data_image0
_chemical_formula_structural       C4O12Fe4O8H8
_chemical_formula_sum              "C4 O20 Fe4 H8"
_cell_length_a       6.6154
_cell_length_b       12.0639
_cell_length_c       6.0263
_cell_angle_alpha    90
_cell_angle_beta     90
_cell_angle_gamma    90

_space_group_name_H-M_alt    "P 1"
_space_group_IT_number       1

loop_
  _space_group_symop_operation_xyz
  'x, y, z'

loop_
  _atom_site_type_symbol
  _atom_site_label
  _atom_site_symmetry_multiplicity
  _atom_site_fract_x
  _atom_site_fract_y
  _atom_site_fract_z
  _atom_site_occupancy
  C   C1        1.0  0.00000  0.78740  0.25000  1.0000
  C   C2        1.0  0.00000  0.21260  0.75000  1.0000
  C   C3        1.0  0.50000  0.28740  0.25000  1.0000
  C   C4        1.0  0.50000  0.71260  0.75000  1.0000
  O   O1        1.0  0.00000  0.68050  0.25000  1.0000
  O   O2        1.0  0.00000  0.31950  0.75000  1.0000
  O   O3        1.0  0.50000  0.18050  0.25000  1.0000
  O   O4        1.0  0.50000  0.81950  0.75000  1.0000
  O   O5        1.0  0.00000  0.83950  0.06380  1.0000
  O   O6        1.0  0.00000  0.16050  0.56380  1.0000
  O   O7        1.0  0.00000  0.83950  0.43620  1.0000
  O   O8        1.0  0.00000  0.16050  0.93620  1.0000
  O   O9        1.0  0.50000  0.33950  0.06380  1.0000
  O   O10       1.0  0.50000  0.66050  0.56380  1.0000
  O   O11       1.0  0.50000  0.33950  0.43620  1.0000
  O   O12       1.0  0.50000  0.66050  0.93620  1.0000
  Fe  Fe1       1.0  0.00000  0.00000  0.00000  1.0000
  Fe  Fe2       1.0  0.00000  0.00000  0.50000  1.0000
  Fe  Fe3       1.0  0.50000  0.50000  0.00000  1.0000
  Fe  Fe4       1.0  0.50000  0.50000  0.50000  1.0000
  O   O13       1.0  0.19060  0.01630  0.25000  1.0000
  O   O14       1.0  0.80940  0.98370  0.75000  1.0000
  O   O15       1.0  0.80940  0.01630  0.25000  1.0000
  O   O16       1.0  0.19060  0.98370  0.75000  1.0000
  O   O17       1.0  0.69060  0.51630  0.25000  1.0000
  O   O18       1.0  0.30940  0.48370  0.75000  1.0000
  O   O19       1.0  0.30940  0.51630  0.25000  1.0000
  O   O20       1.0  0.69060  0.48370  0.75000  1.0000
  H   H1        1.0  0.19152  0.09751  0.25000  1.0000
  H   H2        1.0  0.80848  0.90249  0.75000  1.0000
  H   H3        1.0  0.80848  0.09751  0.25000  1.0000
  H   H4        1.0  0.19152  0.90249  0.75000  1.0000
  H   H5        1.0  0.69152  0.59751  0.25000  1.0000
  H   H6        1.0  0.30848  0.40249  0.75000  1.0000
  H   H7        1.0  0.30848  0.59751  0.25000  1.0000
  H   H8        1.0  0.69152  0.40249  0.75000  1.0000
