data_image0
_chemical_formula_structural       Mn4N30C20
_chemical_formula_sum              "Mn4 N30 C20"
_cell_length_a       10.368
_cell_length_b       10.377
_cell_length_c       11.898
_cell_angle_alpha    65.64
_cell_angle_beta     82.28
_cell_angle_gamma    62.83

_space_group_name_H-M_alt    "P 1"
_space_group_IT_number       1

loop_
  _space_group_symop_operation_xyz
  'x, y, z'

loop_
  _atom_site_type_symbol
  _atom_site_label
  _atom_site_symmetry_multiplicity
  _atom_site_fract_x
  _atom_site_fract_y
  _atom_site_fract_z
  _atom_site_occupancy
  Mn  Mn1       1.0  0.15430  0.77945  0.73446  1.0000
  Mn  Mn2       1.0  0.84570  0.22055  0.26554  1.0000
  Mn  Mn3       1.0  0.45551  0.14431  0.73319  1.0000
  Mn  Mn4       1.0  0.54449  0.85569  0.26681  1.0000
  N   N1        1.0  0.36620  0.07500  0.61795  1.0000
  N   N2        1.0  0.63380  0.92500  0.38205  1.0000
  N   N3        1.0  0.71930  0.58790  0.37102  1.0000
  N   N4        1.0  0.28070  0.41210  0.62898  1.0000
  N   N5        1.0  0.50900  0.23760  0.84650  1.0000
  N   N6        1.0  0.49100  0.76240  0.15350  1.0000
  N   N7        1.0  0.63230  0.90830  0.82390  1.0000
  N   N8        1.0  0.36770  0.09170  0.17610  1.0000
  N   N9        1.0  0.18640  0.00010  0.58237  1.0000
  N   N10       1.0  0.81360  0.99990  0.41763  1.0000
  N   N11       1.0  0.01820  0.15410  0.39690  1.0000
  N   N12       1.0  0.98180  0.84590  0.60310  1.0000
  N   N13       1.0  0.66300  0.25440  0.17046  1.0000
  N   N14       1.0  0.33700  0.74560  0.82954  1.0000
  N   N15       1.0  0.83660  0.44750  0.14708  1.0000
  N   N16       1.0  0.16340  0.55250  0.85292  1.0000
  N   N17       1.0  0.00450  0.08230  0.17300  1.0000
  N   N18       1.0  0.99550  0.91770  0.82700  1.0000
  N   N19       1.0  0.69500  0.35210  0.39593  1.0000
  N   N20       1.0  0.30500  0.64790  0.60407  1.0000
  N   N21       1.0  0.50530  0.34840  0.99220  1.0000
  N   N22       1.0  0.49470  0.65160  0.00780  1.0000
  N   N23       1.0  0.29420  0.10010  0.86200  1.0000
  N   N24       1.0  0.70580  0.89990  0.13800  1.0000
  N   N25       1.0  0.58980  0.22140  0.57910  1.0000
  N   N26       1.0  0.41020  0.77860  0.42090  1.0000
  N   N27       1.0  0.15200  0.99280  0.01870  1.0000
  N   N28       1.0  0.84800  0.00720  0.98130  1.0000
  N   N29       1.0  0.83100  0.67420  0.96480  1.0000
  N   N30       1.0  0.16900  0.32580  0.03520  1.0000
  C   C1        1.0  0.28140  0.04410  0.59740  1.0000
  C   C2        1.0  0.71860  0.95590  0.40260  1.0000
  C   C3        1.0  0.10000  0.08660  0.48080  1.0000
  C   C4        1.0  0.90000  0.91340  0.51920  1.0000
  C   C5        1.0  0.59450  0.28960  0.08570  1.0000
  C   C6        1.0  0.40550  0.71040  0.91430  1.0000
  C   C7        1.0  0.51440  0.28120  0.91920  1.0000
  C   C8        1.0  0.48560  0.71880  0.08080  1.0000
  C   C9        1.0  0.82460  0.55860  0.06100  1.0000
  C   C10       1.0  0.17540  0.44140  0.93900  1.0000
  C   C11       1.0  0.63850  0.28530  0.49570  1.0000
  C   C12       1.0  0.36150  0.71470  0.50430  1.0000
  C   C13       1.0  0.71970  0.79570  0.89470  1.0000
  C   C14       1.0  0.28030  0.20430  0.10530  1.0000
  C   C15       1.0  0.07650  0.04760  0.09840  1.0000
  C   C16       1.0  0.92350  0.95240  0.90160  1.0000
  C   C17       1.0  0.70590  0.47750  0.38595  1.0000
  C   C18       1.0  0.29410  0.52250  0.61405  1.0000
  C   C19       1.0  0.22570  0.05590  0.93830  1.0000
  C   C20       1.0  0.77430  0.94410  0.06170  1.0000
