data_image0
_chemical_formula_structural       Mn2C4N8C4N8C4N4C4N4
_chemical_formula_sum              "Mn2 C16 N24"
_cell_length_a       15.711
_cell_length_b       7.605
_cell_length_c       21.499
_cell_angle_alpha    90
_cell_angle_beta     102.86
_cell_angle_gamma    90

_space_group_name_H-M_alt    "P 1"
_space_group_IT_number       1

loop_
  _space_group_symop_operation_xyz
  'x, y, z'

loop_
  _atom_site_type_symbol
  _atom_site_label
  _atom_site_symmetry_multiplicity
  _atom_site_fract_x
  _atom_site_fract_y
  _atom_site_fract_z
  _atom_site_occupancy
  Mn  Mn1       1.0  0.50000  0.00000  0.00000  1.0000
  Mn  Mn2       1.0  0.00000  0.50000  0.50000  1.0000
  C   C1        1.0  0.61990  0.66910  0.06260  1.0000
  C   C2        1.0  0.88010  0.16910  0.43740  1.0000
  C   C3        1.0  0.38010  0.33090  0.93740  1.0000
  C   C4        1.0  0.11990  0.83090  0.56260  1.0000
  N   N1        1.0  0.59580  0.81120  0.06046  1.0000
  N   N2        1.0  0.90420  0.31120  0.43954  1.0000
  N   N3        1.0  0.40420  0.18880  0.93954  1.0000
  N   N4        1.0  0.09580  0.68880  0.56046  1.0000
  N   N5        1.0  0.42470  0.01550  0.07382  1.0000
  N   N6        1.0  0.07530  0.51550  0.42618  1.0000
  N   N7        1.0  0.57530  0.98450  0.92618  1.0000
  N   N8        1.0  0.92470  0.48450  0.57382  1.0000
  C   C5        1.0  0.37910  0.01140  0.10800  1.0000
  C   C6        1.0  0.12090  0.51140  0.39200  1.0000
  C   C7        1.0  0.62090  0.98860  0.89200  1.0000
  C   C8        1.0  0.87910  0.48860  0.60800  1.0000
  N   N9        1.0  0.57850  0.23680  0.04030  1.0000
  N   N10       1.0  0.92150  0.73680  0.45970  1.0000
  N   N11       1.0  0.42150  0.76320  0.95970  1.0000
  N   N12       1.0  0.07850  0.26320  0.54030  1.0000
  N   N13       1.0  0.33530  0.99230  0.15235  1.0000
  N   N14       1.0  0.16470  0.49230  0.34765  1.0000
  N   N15       1.0  0.66470  0.00770  0.84765  1.0000
  N   N16       1.0  0.83530  0.50770  0.65235  1.0000
  C   C9        1.0  0.60960  0.37040  0.05200  1.0000
  C   C10       1.0  0.89040  0.87040  0.44800  1.0000
  C   C11       1.0  0.39040  0.62960  0.94800  1.0000
  C   C12       1.0  0.10960  0.12960  0.55200  1.0000
  N   N17       1.0  0.65500  0.51370  0.06740  1.0000
  N   N18       1.0  0.84500  0.01370  0.43260  1.0000
  N   N19       1.0  0.34500  0.48630  0.93260  1.0000
  N   N20       1.0  0.15500  0.98630  0.56740  1.0000
  C   C13       1.0  0.26280  0.07630  0.15070  1.0000
  C   C14       1.0  0.23720  0.57630  0.34930  1.0000
  C   C15       1.0  0.73720  0.92370  0.84930  1.0000
  C   C16       1.0  0.76280  0.42370  0.65070  1.0000
  N   N21       1.0  0.19890  0.13410  0.15500  1.0000
  N   N22       1.0  0.30110  0.63410  0.34500  1.0000
  N   N23       1.0  0.80110  0.86590  0.84500  1.0000
  N   N24       1.0  0.69890  0.36590  0.65500  1.0000
