data_image0
_chemical_formula_structural       S6Na2O2H2O18C4H2C10H2C2H2C8H2C2H2C4H2C2O2H4O2H4O2H4
_chemical_formula_sum              "S6 Na2 O26 H26 C32"
_cell_length_a       9.887
_cell_length_b       7.0863
_cell_length_c       22.737
_cell_angle_alpha    90
_cell_angle_beta     91.55
_cell_angle_gamma    90

_space_group_name_H-M_alt    "P 1"
_space_group_IT_number       1

loop_
  _space_group_symop_operation_xyz
  'x, y, z'

loop_
  _atom_site_type_symbol
  _atom_site_label
  _atom_site_symmetry_multiplicity
  _atom_site_fract_x
  _atom_site_fract_y
  _atom_site_fract_z
  _atom_site_occupancy
  S   S1        1.0  0.97283  0.39180  0.39356  1.0000
  S   S2        1.0  0.97283  0.60820  0.89356  1.0000
  S   S3        1.0  0.67916  0.71804  0.68615  1.0000
  S   S4        1.0  0.67916  0.28196  0.18615  1.0000
  S   S5        1.0  0.17654  0.66527  0.58894  1.0000
  S   S6        1.0  0.17654  0.33473  0.08894  1.0000
  Na  Na1       1.0  0.99695  0.98960  0.67356  1.0000
  Na  Na2       1.0  0.99695  0.01040  0.17356  1.0000
  O   O1        1.0  0.48240  0.34370  0.32099  1.0000
  O   O2        1.0  0.48240  0.65630  0.82099  1.0000
  H   H1        1.0  0.52460  0.32160  0.29120  1.0000
  H   H2        1.0  0.52460  0.67840  0.79120  1.0000
  O   O3        1.0  0.98040  0.30630  0.33639  1.0000
  O   O4        1.0  0.98040  0.69370  0.83639  1.0000
  O   O5        1.0  0.02770  0.57840  0.39715  1.0000
  O   O6        1.0  0.02770  0.42160  0.89715  1.0000
  O   O7        1.0  0.02530  0.26580  0.44045  1.0000
  O   O8        1.0  0.02530  0.73420  0.94045  1.0000
  O   O9        1.0  0.79370  0.83270  0.67000  1.0000
  O   O10       1.0  0.79370  0.16730  0.17000  1.0000
  O   O11       1.0  0.71520  0.53380  0.70859  1.0000
  O   O12       1.0  0.71520  0.46620  0.20859  1.0000
  O   O13       1.0  0.58850  0.82140  0.72531  1.0000
  O   O14       1.0  0.58850  0.17860  0.22531  1.0000
  O   O15       1.0  0.16370  0.76160  0.64411  1.0000
  O   O16       1.0  0.16370  0.23840  0.14411  1.0000
  O   O17       1.0  0.12540  0.47150  0.58942  1.0000
  O   O18       1.0  0.12540  0.52850  0.08942  1.0000
  O   O19       1.0  0.12400  0.77470  0.53879  1.0000
  O   O20       1.0  0.12400  0.22530  0.03879  1.0000
  C   C1        1.0  0.56990  0.38720  0.36562  1.0000
  C   C2        1.0  0.56990  0.61280  0.86562  1.0000
  C   C3        1.0  0.70930  0.37180  0.35793  1.0000
  C   C4        1.0  0.70930  0.62820  0.85793  1.0000
  H   H3        1.0  0.74370  0.33330  0.32220  1.0000
  H   H4        1.0  0.74370  0.66670  0.82220  1.0000
  C   C5        1.0  0.79330  0.41530  0.40456  1.0000
  C   C6        1.0  0.79330  0.58470  0.90456  1.0000
  C   C7        1.0  0.74860  0.48140  0.45994  1.0000
  C   C8        1.0  0.74860  0.51860  0.95994  1.0000
  C   C9        1.0  0.60360  0.49590  0.46523  1.0000
  C   C10       1.0  0.60360  0.50410  0.96523  1.0000
  C   C11       1.0  0.51340  0.44830  0.41788  1.0000
  C   C12       1.0  0.51340  0.55170  0.91788  1.0000
  C   C13       1.0  0.37120  0.45650  0.42554  1.0000
  C   C14       1.0  0.37120  0.54350  0.92554  1.0000
  H   H5        1.0  0.31280  0.41790  0.39510  1.0000
  H   H6        1.0  0.31280  0.58210  0.89510  1.0000
  C   C15       1.0  0.32040  0.51880  0.47574  1.0000
  C   C16       1.0  0.32040  0.48120  0.97574  1.0000
  H   H7        1.0  0.22700  0.52790  0.47900  1.0000
  H   H8        1.0  0.22700  0.47210  0.97900  1.0000
  C   C17       1.0  0.40610  0.57200  0.52461  1.0000
  C   C18       1.0  0.40610  0.42800  0.02461  1.0000
  C   C19       1.0  0.54890  0.56030  0.51967  1.0000
  C   C20       1.0  0.54890  0.43970  0.01967  1.0000
  C   C21       1.0  0.63680  0.61030  0.56865  1.0000
  C   C22       1.0  0.63680  0.38970  0.06865  1.0000
  C   C23       1.0  0.78090  0.59000  0.56064  1.0000
  C   C24       1.0  0.78090  0.41000  0.06064  1.0000
  H   H9        1.0  0.84030  0.62130  0.59150  1.0000
  H   H10       1.0  0.84030  0.37870  0.09150  1.0000
  C   C25       1.0  0.83220  0.52640  0.50927  1.0000
  C   C26       1.0  0.83220  0.47360  0.00927  1.0000
  H   H11       1.0  0.92530  0.51220  0.50660  1.0000
  H   H12       1.0  0.92530  0.48780  0.00660  1.0000
  C   C27       1.0  0.58220  0.67390  0.62263  1.0000
  C   C28       1.0  0.58220  0.32610  0.12263  1.0000
  C   C29       1.0  0.44180  0.68880  0.62468  1.0000
  C   C30       1.0  0.44180  0.31120  0.12468  1.0000
  H   H13       1.0  0.40420  0.73250  0.65920  1.0000
  H   H14       1.0  0.40420  0.26750  0.15920  1.0000
  C   C31       1.0  0.35600  0.64200  0.57826  1.0000
  C   C32       1.0  0.35600  0.35800  0.07826  1.0000
  O   O21       1.0  0.99040  0.09920  0.57273  1.0000
  O   O22       1.0  0.99040  0.90080  0.07273  1.0000
  H   H15       1.0  0.03420  0.02330  0.55140  1.0000
  H   H16       1.0  0.03420  0.97670  0.05140  1.0000
  H   H17       1.0  0.02560  0.20840  0.57130  1.0000
  H   H18       1.0  0.02560  0.79160  0.07130  1.0000
  O   O23       1.0  0.09360  0.95970  0.76281  1.0000
  O   O24       1.0  0.09360  0.04030  0.26281  1.0000
  H   H19       1.0  0.05950  0.87680  0.78500  1.0000
  H   H20       1.0  0.05950  0.12320  0.28500  1.0000
  H   H21       1.0  0.15260  0.03060  0.77930  1.0000
  H   H22       1.0  0.15260  0.96940  0.27930  1.0000
  O   O25       1.0  0.95610  0.30210  0.68912  1.0000
  O   O26       1.0  0.95610  0.69790  0.18912  1.0000
  H   H23       1.0  0.01640  0.36200  0.70880  1.0000
  H   H24       1.0  0.01640  0.63800  0.20880  1.0000
  H   H25       1.0  0.88550  0.36790  0.69410  1.0000
  H   H26       1.0  0.88550  0.63210  0.19410  1.0000
