data_image0
_chemical_formula_structural       Pb4Cl16O32C48
_chemical_formula_sum              "Pb4 Cl16 O32 C48"
_cell_length_a       8.7771
_cell_length_b       8.7771
_cell_length_c       30.152
_cell_angle_alpha    90
_cell_angle_beta     90
_cell_angle_gamma    90

_space_group_name_H-M_alt    "P 1"
_space_group_IT_number       1

loop_
  _space_group_symop_operation_xyz
  'x, y, z'

loop_
  _atom_site_type_symbol
  _atom_site_label
  _atom_site_symmetry_multiplicity
  _atom_site_fract_x
  _atom_site_fract_y
  _atom_site_fract_z
  _atom_site_occupancy
  Pb  Pb1       1.0  0.50000  0.75000  0.62500  1.0000
  Pb  Pb2       1.0  0.00000  0.25000  0.12500  1.0000
  Pb  Pb3       1.0  0.00000  0.75000  0.87500  1.0000
  Pb  Pb4       1.0  0.50000  0.25000  0.37500  1.0000
  Cl  Cl1       1.0  0.23890  0.28442  0.53704  1.0000
  Cl  Cl2       1.0  0.26110  0.71558  0.03704  1.0000
  Cl  Cl3       1.0  0.46558  0.48890  0.78704  1.0000
  Cl  Cl4       1.0  0.03442  0.51110  0.28704  1.0000
  Cl  Cl5       1.0  0.73890  0.78442  0.03704  1.0000
  Cl  Cl6       1.0  0.76110  0.21558  0.53704  1.0000
  Cl  Cl7       1.0  0.96558  0.98890  0.28704  1.0000
  Cl  Cl8       1.0  0.53442  0.01110  0.78704  1.0000
  Cl  Cl9       1.0  0.76110  0.71558  0.46296  1.0000
  Cl  Cl10      1.0  0.73890  0.28442  0.96296  1.0000
  Cl  Cl11      1.0  0.53442  0.51110  0.21296  1.0000
  Cl  Cl12      1.0  0.96558  0.48890  0.71296  1.0000
  Cl  Cl13      1.0  0.26110  0.21558  0.96296  1.0000
  Cl  Cl14      1.0  0.23890  0.78442  0.46296  1.0000
  Cl  Cl15      1.0  0.03442  0.01110  0.71296  1.0000
  Cl  Cl16      1.0  0.46558  0.98890  0.21296  1.0000
  O   O1        1.0  0.33609  0.33020  0.44369  1.0000
  O   O2        1.0  0.16391  0.66980  0.94369  1.0000
  O   O3        1.0  0.41980  0.58609  0.69369  1.0000
  O   O4        1.0  0.08020  0.41391  0.19369  1.0000
  O   O5        1.0  0.83609  0.83020  0.94369  1.0000
  O   O6        1.0  0.66391  0.16980  0.44369  1.0000
  O   O7        1.0  0.91980  0.08609  0.19369  1.0000
  O   O8        1.0  0.58020  0.91391  0.69369  1.0000
  O   O9        1.0  0.66391  0.66980  0.55631  1.0000
  O   O10       1.0  0.83609  0.33020  0.05631  1.0000
  O   O11       1.0  0.58020  0.41391  0.30631  1.0000
  O   O12       1.0  0.91980  0.58609  0.80631  1.0000
  O   O13       1.0  0.16391  0.16980  0.05631  1.0000
  O   O14       1.0  0.33609  0.83020  0.55631  1.0000
  O   O15       1.0  0.08020  0.91391  0.80631  1.0000
  O   O16       1.0  0.41980  0.08609  0.30631  1.0000
  O   O17       1.0  0.44560  0.49064  0.58834  1.0000
  O   O18       1.0  0.05440  0.50936  0.08834  1.0000
  O   O19       1.0  0.25936  0.69560  0.83834  1.0000
  O   O20       1.0  0.24064  0.30440  0.33834  1.0000
  O   O21       1.0  0.94560  0.99064  0.08834  1.0000
  O   O22       1.0  0.55440  0.00936  0.58834  1.0000
  O   O23       1.0  0.75936  0.19560  0.33834  1.0000
  O   O24       1.0  0.74064  0.80440  0.83834  1.0000
  O   O25       1.0  0.55440  0.50936  0.41166  1.0000
  O   O26       1.0  0.94560  0.49064  0.91166  1.0000
  O   O27       1.0  0.74064  0.30440  0.16166  1.0000
  O   O28       1.0  0.75936  0.69560  0.66166  1.0000
  O   O29       1.0  0.05440  0.00936  0.91166  1.0000
  O   O30       1.0  0.44560  0.99064  0.41166  1.0000
  O   O31       1.0  0.24064  0.80440  0.66166  1.0000
  O   O32       1.0  0.25936  0.19560  0.16166  1.0000
  C   C1        1.0  0.38120  0.40390  0.51713  1.0000
  C   C2        1.0  0.11880  0.59610  0.01713  1.0000
  C   C3        1.0  0.34610  0.63120  0.76713  1.0000
  C   C4        1.0  0.15390  0.36880  0.26713  1.0000
  C   C5        1.0  0.88120  0.90390  0.01713  1.0000
  C   C6        1.0  0.61880  0.09610  0.51713  1.0000
  C   C7        1.0  0.84610  0.13120  0.26713  1.0000
  C   C8        1.0  0.65390  0.86880  0.76713  1.0000
  C   C9        1.0  0.61880  0.59610  0.48287  1.0000
  C   C10       1.0  0.88120  0.40390  0.98287  1.0000
  C   C11       1.0  0.65390  0.36880  0.23287  1.0000
  C   C12       1.0  0.84610  0.63120  0.73287  1.0000
  C   C13       1.0  0.11880  0.09610  0.98287  1.0000
  C   C14       1.0  0.38120  0.90390  0.48287  1.0000
  C   C15       1.0  0.15390  0.86880  0.73287  1.0000
  C   C16       1.0  0.34610  0.13120  0.23287  1.0000
  C   C17       1.0  0.40750  0.40720  0.47119  1.0000
  C   C18       1.0  0.09250  0.59280  0.97119  1.0000
  C   C19       1.0  0.34280  0.65750  0.72119  1.0000
  C   C20       1.0  0.15720  0.34250  0.22119  1.0000
  C   C21       1.0  0.90750  0.90720  0.97119  1.0000
  C   C22       1.0  0.59250  0.09280  0.47119  1.0000
  C   C23       1.0  0.84280  0.15750  0.22119  1.0000
  C   C24       1.0  0.65720  0.84250  0.72119  1.0000
  C   C25       1.0  0.59250  0.59280  0.52881  1.0000
  C   C26       1.0  0.90750  0.40720  0.02881  1.0000
  C   C27       1.0  0.65720  0.34250  0.27881  1.0000
  C   C28       1.0  0.84280  0.65750  0.77881  1.0000
  C   C29       1.0  0.09250  0.09280  0.02881  1.0000
  C   C30       1.0  0.40750  0.90720  0.52881  1.0000
  C   C31       1.0  0.15720  0.84250  0.77881  1.0000
  C   C32       1.0  0.34280  0.15750  0.27881  1.0000
  C   C33       1.0  0.46490  0.48910  0.54661  1.0000
  C   C34       1.0  0.03510  0.51090  0.04661  1.0000
  C   C35       1.0  0.26090  0.71490  0.79661  1.0000
  C   C36       1.0  0.23910  0.28510  0.29661  1.0000
  C   C37       1.0  0.96490  0.98910  0.04661  1.0000
  C   C38       1.0  0.53510  0.01090  0.54661  1.0000
  C   C39       1.0  0.76090  0.21490  0.29661  1.0000
  C   C40       1.0  0.73910  0.78510  0.79661  1.0000
  C   C41       1.0  0.53510  0.51090  0.45339  1.0000
  C   C42       1.0  0.96490  0.48910  0.95339  1.0000
  C   C43       1.0  0.73910  0.28510  0.20339  1.0000
  C   C44       1.0  0.76090  0.71490  0.70339  1.0000
  C   C45       1.0  0.03510  0.01090  0.95339  1.0000
  C   C46       1.0  0.46490  0.98910  0.45339  1.0000
  C   C47       1.0  0.23910  0.78510  0.70339  1.0000
  C   C48       1.0  0.26090  0.21490  0.20339  1.0000
