data_image0
_chemical_formula_structural       Fe2O24C12Li2
_chemical_formula_sum              "Fe2 O24 C12 Li2"
_cell_length_a       9.341
_cell_length_b       9.341
_cell_length_c       10.226
_cell_angle_alpha    90
_cell_angle_beta     90
_cell_angle_gamma    120

_space_group_name_H-M_alt    "P 1"
_space_group_IT_number       1

loop_
  _space_group_symop_operation_xyz
  'x, y, z'

loop_
  _atom_site_type_symbol
  _atom_site_label
  _atom_site_symmetry_multiplicity
  _atom_site_fract_x
  _atom_site_fract_y
  _atom_site_fract_z
  _atom_site_occupancy
  Fe  Fe1       1.0  0.00000  0.00000  0.99152  1.0000
  Fe  Fe2       1.0  0.00000  0.00000  0.49152  1.0000
  O   O1        1.0  0.98460  0.81770  0.10590  1.0000
  O   O2        1.0  0.18230  0.16690  0.10590  1.0000
  O   O3        1.0  0.81770  0.98460  0.60590  1.0000
  O   O4        1.0  0.83310  0.01540  0.10590  1.0000
  O   O5        1.0  0.01540  0.83310  0.60590  1.0000
  O   O6        1.0  0.16690  0.18230  0.60590  1.0000
  O   O7        1.0  0.83190  0.80710  0.89020  1.0000
  O   O8        1.0  0.19290  0.02480  0.89020  1.0000
  O   O9        1.0  0.80710  0.83190  0.39020  1.0000
  O   O10       1.0  0.97520  0.16810  0.89020  1.0000
  O   O11       1.0  0.16810  0.97520  0.39020  1.0000
  O   O12       1.0  0.02480  0.19290  0.39020  1.0000
  O   O13       1.0  0.68270  0.52930  0.89800  1.0000
  O   O14       1.0  0.47070  0.15340  0.89800  1.0000
  O   O15       1.0  0.52930  0.68270  0.39800  1.0000
  O   O16       1.0  0.84660  0.31730  0.89800  1.0000
  O   O17       1.0  0.31730  0.84660  0.39800  1.0000
  O   O18       1.0  0.15340  0.47070  0.39800  1.0000
  O   O19       1.0  0.83360  0.54210  0.12790  1.0000
  O   O20       1.0  0.45790  0.29150  0.12790  1.0000
  O   O21       1.0  0.54210  0.83360  0.62790  1.0000
  O   O22       1.0  0.70850  0.16640  0.12790  1.0000
  O   O23       1.0  0.16640  0.70850  0.62790  1.0000
  O   O24       1.0  0.29150  0.45790  0.62790  1.0000
  C   C1        1.0  0.78680  0.66690  0.94140  1.0000
  C   C2        1.0  0.33310  0.11990  0.94140  1.0000
  C   C3        1.0  0.66690  0.78680  0.44140  1.0000
  C   C4        1.0  0.88010  0.21320  0.94140  1.0000
  C   C5        1.0  0.21320  0.88010  0.44140  1.0000
  C   C6        1.0  0.11990  0.33310  0.44140  1.0000
  C   C7        1.0  0.87390  0.67120  0.07050  1.0000
  C   C8        1.0  0.32880  0.20270  0.07050  1.0000
  C   C9        1.0  0.67120  0.87390  0.57050  1.0000
  C   C10       1.0  0.79730  0.12610  0.07050  1.0000
  C   C11       1.0  0.12610  0.79730  0.57050  1.0000
  C   C12       1.0  0.20270  0.32880  0.57050  1.0000
  Li  Li1       1.0  0.66670  0.33330  0.01800  1.0000
  Li  Li2       1.0  0.33330  0.66670  0.51800  1.0000
