data_image0
_chemical_formula_structural       Pb2Sr2O20H2C12H2C4H2C4H2C4H2C4H2C4H2
_chemical_formula_sum              "Pb2 Sr2 O20 H14 C32"
_cell_length_a       9.8108
_cell_length_b       10.4971
_cell_length_c       12.3568
_cell_angle_alpha    68.336
_cell_angle_beta     87.529
_cell_angle_gamma    68.261

_space_group_name_H-M_alt    "P 1"
_space_group_IT_number       1

loop_
  _space_group_symop_operation_xyz
  'x, y, z'

loop_
  _atom_site_type_symbol
  _atom_site_label
  _atom_site_symmetry_multiplicity
  _atom_site_fract_x
  _atom_site_fract_y
  _atom_site_fract_z
  _atom_site_occupancy
  Pb  Pb1       1.0  0.04881  0.38588  0.72176  1.0000
  Pb  Pb2       1.0  0.95119  0.61412  0.27824  1.0000
  Sr  Sr1       1.0  0.95485  0.81461  0.49883  1.0000
  Sr  Sr2       1.0  0.04515  0.18539  0.50117  1.0000
  O   O1        1.0  0.11770  0.47000  0.86680  1.0000
  O   O2        1.0  0.88230  0.53000  0.13320  1.0000
  O   O3        1.0  0.06410  0.66630  0.70070  1.0000
  O   O4        1.0  0.93590  0.33370  0.29930  1.0000
  O   O5        1.0  0.10730  0.12040  0.71180  1.0000
  O   O6        1.0  0.89270  0.87960  0.28820  1.0000
  O   O7        1.0  0.17660  0.12220  0.87860  1.0000
  O   O8        1.0  0.82340  0.87780  0.12140  1.0000
  O   O9        1.0  0.86830  0.42410  0.53240  1.0000
  O   O10       1.0  0.13170  0.57590  0.46760  1.0000
  O   O11       1.0  0.82750  0.62440  0.57040  1.0000
  O   O12       1.0  0.17250  0.37560  0.42960  1.0000
  O   O13       1.0  0.30580  0.00850  0.48490  1.0000
  O   O14       1.0  0.69420  0.99150  0.51510  1.0000
  O   O15       1.0  0.13470  0.93970  0.44520  1.0000
  O   O16       1.0  0.86530  0.06030  0.55480  1.0000
  O   O17       1.0  0.14530  0.65190  0.18290  1.0000
  O   O18       1.0  0.85470  0.34810  0.81710  1.0000
  O   O19       1.0  0.42590  0.56960  0.25680  1.0000
  O   O20       1.0  0.57410  0.43040  0.74320  1.0000
  H   H1        1.0  0.33650  0.60250  0.23960  1.0000
  H   H2        1.0  0.66350  0.39750  0.76040  1.0000
  C   C1        1.0  0.10080  0.60430  0.80970  1.0000
  C   C2        1.0  0.89920  0.39570  0.19030  1.0000
  C   C3        1.0  0.14320  0.05970  0.82200  1.0000
  C   C4        1.0  0.85680  0.94030  0.17800  1.0000
  C   C5        1.0  0.78590  0.55400  0.52470  1.0000
  C   C6        1.0  0.21410  0.44600  0.47530  1.0000
  C   C7        1.0  0.26870  0.92390  0.45440  1.0000
  C   C8        1.0  0.73130  0.07610  0.54560  1.0000
  C   C9        1.0  0.11790  0.69060  0.87640  1.0000
  C   C10       1.0  0.88210  0.30940  0.12360  1.0000
  C   C11       1.0  0.12240  0.63460  0.99740  1.0000
  C   C12       1.0  0.87760  0.36540  0.00260  1.0000
  H   H3        1.0  0.11480  0.54310  0.03510  1.0000
  H   H4        1.0  0.88520  0.45690  0.96490  1.0000
  C   C13       1.0  0.13790  0.71150  0.06450  1.0000
  C   C14       1.0  0.86210  0.28850  0.93550  1.0000
  C   C15       1.0  0.14700  0.84910  0.00550  1.0000
  C   C16       1.0  0.85300  0.15090  0.99450  1.0000
  H   H5        1.0  0.15890  0.90230  0.04760  1.0000
  H   H6        1.0  0.84110  0.09770  0.95240  1.0000
  C   C17       1.0  0.13830  0.90760  0.88400  1.0000
  C   C18       1.0  0.86170  0.09240  0.11600  1.0000
  C   C19       1.0  0.12270  0.83090  0.81810  1.0000
  C   C20       1.0  0.87730  0.16910  0.18190  1.0000
  H   H7        1.0  0.11560  0.87190  0.73670  1.0000
  H   H8        1.0  0.88440  0.12810  0.26330  1.0000
  C   C21       1.0  0.63560  0.62660  0.45790  1.0000
  C   C22       1.0  0.36440  0.37340  0.54210  1.0000
  C   C23       1.0  0.59870  0.56770  0.38460  1.0000
  C   C24       1.0  0.40130  0.43230  0.61540  1.0000
  H   H9        1.0  0.66950  0.48700  0.37310  1.0000
  H   H10       1.0  0.33050  0.51300  0.62690  1.0000
  C   C25       1.0  0.45600  0.62930  0.32850  1.0000
  C   C26       1.0  0.54400  0.37070  0.67150  1.0000
  C   C27       1.0  0.34630  0.74580  0.35300  1.0000
  C   C28       1.0  0.65370  0.25420  0.64700  1.0000
  H   H11       1.0  0.24910  0.78370  0.32020  1.0000
  H   H12       1.0  0.75090  0.21630  0.67980  1.0000
  C   C29       1.0  0.38520  0.80200  0.42590  1.0000
  C   C30       1.0  0.61480  0.19800  0.57410  1.0000
  C   C31       1.0  0.52990  0.74560  0.47620  1.0000
  C   C32       1.0  0.47010  0.25440  0.52380  1.0000
  H   H13       1.0  0.55570  0.78780  0.52210  1.0000
  H   H14       1.0  0.44430  0.21220  0.47790  1.0000
