data_image0
_chemical_formula_structural       Zn8C16O16C24H16C16H16C8O24H8
_chemical_formula_sum              "Zn8 C64 O40 H40"
_cell_length_a       15.6967
_cell_length_b       15.2088
_cell_length_c       10.7777
_cell_angle_alpha    90
_cell_angle_beta     90
_cell_angle_gamma    90

_space_group_name_H-M_alt    "P 1"
_space_group_IT_number       1

loop_
  _space_group_symop_operation_xyz
  'x, y, z'

loop_
  _atom_site_type_symbol
  _atom_site_label
  _atom_site_symmetry_multiplicity
  _atom_site_fract_x
  _atom_site_fract_y
  _atom_site_fract_z
  _atom_site_occupancy
  Zn  Zn1       1.0  0.00000  0.36286  0.11332  1.0000
  Zn  Zn2       1.0  0.00000  0.63714  0.61332  1.0000
  Zn  Zn3       1.0  0.00000  0.36286  0.38668  1.0000
  Zn  Zn4       1.0  0.00000  0.63714  0.88668  1.0000
  Zn  Zn5       1.0  0.50000  0.86286  0.11332  1.0000
  Zn  Zn6       1.0  0.50000  0.13714  0.61332  1.0000
  Zn  Zn7       1.0  0.50000  0.86286  0.38668  1.0000
  Zn  Zn8       1.0  0.50000  0.13714  0.88668  1.0000
  C   C1        1.0  0.11610  0.48480  0.25000  1.0000
  C   C2        1.0  0.88390  0.51520  0.75000  1.0000
  C   C3        1.0  0.88390  0.48480  0.25000  1.0000
  C   C4        1.0  0.11610  0.51520  0.75000  1.0000
  C   C5        1.0  0.61610  0.98480  0.25000  1.0000
  C   C6        1.0  0.38390  0.01520  0.75000  1.0000
  C   C7        1.0  0.38390  0.98480  0.25000  1.0000
  C   C8        1.0  0.61610  0.01520  0.75000  1.0000
  C   C9        1.0  0.31330  0.67930  0.25000  1.0000
  C   C10       1.0  0.68670  0.32070  0.75000  1.0000
  C   C11       1.0  0.68670  0.67930  0.25000  1.0000
  C   C12       1.0  0.31330  0.32070  0.75000  1.0000
  C   C13       1.0  0.81330  0.17930  0.25000  1.0000
  C   C14       1.0  0.18670  0.82070  0.75000  1.0000
  C   C15       1.0  0.18670  0.17930  0.25000  1.0000
  C   C16       1.0  0.81330  0.82070  0.75000  1.0000
  O   O1        1.0  0.08950  0.45820  0.14890  1.0000
  O   O2        1.0  0.91050  0.54180  0.64890  1.0000
  O   O3        1.0  0.91050  0.45820  0.35110  1.0000
  O   O4        1.0  0.08950  0.54180  0.85110  1.0000
  O   O5        1.0  0.58950  0.95820  0.14890  1.0000
  O   O6        1.0  0.41050  0.04180  0.64890  1.0000
  O   O7        1.0  0.41050  0.95820  0.35110  1.0000
  O   O8        1.0  0.58950  0.04180  0.85110  1.0000
  O   O9        1.0  0.91050  0.54180  0.85110  1.0000
  O   O10       1.0  0.08950  0.45820  0.35110  1.0000
  O   O11       1.0  0.08950  0.54180  0.64890  1.0000
  O   O12       1.0  0.91050  0.45820  0.14890  1.0000
  O   O13       1.0  0.41050  0.04180  0.85110  1.0000
  O   O14       1.0  0.58950  0.95820  0.35110  1.0000
  O   O15       1.0  0.58950  0.04180  0.64890  1.0000
  O   O16       1.0  0.41050  0.95820  0.14890  1.0000
  C   C17       1.0  0.18490  0.55420  0.25000  1.0000
  C   C18       1.0  0.81510  0.44580  0.75000  1.0000
  C   C19       1.0  0.81510  0.55420  0.25000  1.0000
  C   C20       1.0  0.18490  0.44580  0.75000  1.0000
  C   C21       1.0  0.68490  0.05420  0.25000  1.0000
  C   C22       1.0  0.31510  0.94580  0.75000  1.0000
  C   C23       1.0  0.31510  0.05420  0.25000  1.0000
  C   C24       1.0  0.68490  0.94580  0.75000  1.0000
  C   C25       1.0  0.27950  0.64930  0.36110  1.0000
  C   C26       1.0  0.72050  0.35070  0.86110  1.0000
  C   C27       1.0  0.72050  0.64930  0.13890  1.0000
  C   C28       1.0  0.27950  0.35070  0.63890  1.0000
  C   C29       1.0  0.77950  0.14930  0.36110  1.0000
  C   C30       1.0  0.22050  0.85070  0.86110  1.0000
  C   C31       1.0  0.22050  0.14930  0.13890  1.0000
  C   C32       1.0  0.77950  0.85070  0.63890  1.0000
  C   C33       1.0  0.72050  0.35070  0.63890  1.0000
  C   C34       1.0  0.27950  0.64930  0.13890  1.0000
  C   C35       1.0  0.27950  0.35070  0.86110  1.0000
  C   C36       1.0  0.72050  0.64930  0.36110  1.0000
  C   C37       1.0  0.22050  0.85070  0.63890  1.0000
  C   C38       1.0  0.77950  0.14930  0.13890  1.0000
  C   C39       1.0  0.77950  0.85070  0.86110  1.0000
  C   C40       1.0  0.22050  0.14930  0.36110  1.0000
  H   H1        1.0  0.29990  0.67150  0.43580  1.0000
  H   H2        1.0  0.70010  0.32850  0.93580  1.0000
  H   H3        1.0  0.70010  0.67150  0.06420  1.0000
  H   H4        1.0  0.29990  0.32850  0.56420  1.0000
  H   H5        1.0  0.79990  0.17150  0.43580  1.0000
  H   H6        1.0  0.20010  0.82850  0.93580  1.0000
  H   H7        1.0  0.20010  0.17150  0.06420  1.0000
  H   H8        1.0  0.79990  0.82850  0.56420  1.0000
  H   H9        1.0  0.70010  0.32850  0.56420  1.0000
  H   H10       1.0  0.29990  0.67150  0.06420  1.0000
  H   H11       1.0  0.29990  0.32850  0.93580  1.0000
  H   H12       1.0  0.70010  0.67150  0.43580  1.0000
  H   H13       1.0  0.20010  0.82850  0.56420  1.0000
  H   H14       1.0  0.79990  0.17150  0.06420  1.0000
  H   H15       1.0  0.79990  0.82850  0.93580  1.0000
  H   H16       1.0  0.20010  0.17150  0.43580  1.0000
  C   C41       1.0  0.21620  0.58700  0.36150  1.0000
  C   C42       1.0  0.78380  0.41300  0.86150  1.0000
  C   C43       1.0  0.78380  0.58700  0.13850  1.0000
  C   C44       1.0  0.21620  0.41300  0.63850  1.0000
  C   C45       1.0  0.71620  0.08700  0.36150  1.0000
  C   C46       1.0  0.28380  0.91300  0.86150  1.0000
  C   C47       1.0  0.28380  0.08700  0.13850  1.0000
  C   C48       1.0  0.71620  0.91300  0.63850  1.0000
  C   C49       1.0  0.78380  0.41300  0.63850  1.0000
  C   C50       1.0  0.21620  0.58700  0.13850  1.0000
  C   C51       1.0  0.21620  0.41300  0.86150  1.0000
  C   C52       1.0  0.78380  0.58700  0.36150  1.0000
  C   C53       1.0  0.28380  0.91300  0.63850  1.0000
  C   C54       1.0  0.71620  0.08700  0.13850  1.0000
  C   C55       1.0  0.71620  0.91300  0.86150  1.0000
  C   C56       1.0  0.28380  0.08700  0.36150  1.0000
  H   H17       1.0  0.19430  0.56670  0.43640  1.0000
  H   H18       1.0  0.80570  0.43330  0.93640  1.0000
  H   H19       1.0  0.80570  0.56670  0.06360  1.0000
  H   H20       1.0  0.19430  0.43330  0.56360  1.0000
  H   H21       1.0  0.69430  0.06670  0.43640  1.0000
  H   H22       1.0  0.30570  0.93330  0.93640  1.0000
  H   H23       1.0  0.30570  0.06670  0.06360  1.0000
  H   H24       1.0  0.69430  0.93330  0.56360  1.0000
  H   H25       1.0  0.80570  0.43330  0.56360  1.0000
  H   H26       1.0  0.19430  0.56670  0.06360  1.0000
  H   H27       1.0  0.19430  0.43330  0.93640  1.0000
  H   H28       1.0  0.80570  0.56670  0.43640  1.0000
  H   H29       1.0  0.30570  0.93330  0.56360  1.0000
  H   H30       1.0  0.69430  0.06670  0.06360  1.0000
  H   H31       1.0  0.69430  0.93330  0.93640  1.0000
  H   H32       1.0  0.30570  0.06670  0.43640  1.0000
  C   C57       1.0  0.38320  0.74740  0.25000  1.0000
  C   C58       1.0  0.61680  0.25260  0.75000  1.0000
  C   C59       1.0  0.61680  0.74740  0.25000  1.0000
  C   C60       1.0  0.38320  0.25260  0.75000  1.0000
  C   C61       1.0  0.88320  0.24740  0.25000  1.0000
  C   C62       1.0  0.11680  0.75260  0.75000  1.0000
  C   C63       1.0  0.11680  0.24740  0.25000  1.0000
  C   C64       1.0  0.88320  0.75260  0.75000  1.0000
  O   O17       1.0  0.40950  0.77320  0.35240  1.0000
  O   O18       1.0  0.59050  0.22680  0.85240  1.0000
  O   O19       1.0  0.59050  0.77320  0.14760  1.0000
  O   O20       1.0  0.40950  0.22680  0.64760  1.0000
  O   O21       1.0  0.90950  0.27320  0.35240  1.0000
  O   O22       1.0  0.09050  0.72680  0.85240  1.0000
  O   O23       1.0  0.09050  0.27320  0.14760  1.0000
  O   O24       1.0  0.90950  0.72680  0.64760  1.0000
  O   O25       1.0  0.59050  0.22680  0.64760  1.0000
  O   O26       1.0  0.40950  0.77320  0.14760  1.0000
  O   O27       1.0  0.40950  0.22680  0.85240  1.0000
  O   O28       1.0  0.59050  0.77320  0.35240  1.0000
  O   O29       1.0  0.09050  0.72680  0.64760  1.0000
  O   O30       1.0  0.90950  0.27320  0.14760  1.0000
  O   O31       1.0  0.90950  0.72680  0.85240  1.0000
  O   O32       1.0  0.09050  0.27320  0.35240  1.0000
  O   O33       1.0  0.00000  0.37280  0.92970  1.0000
  O   O34       1.0  0.00000  0.62720  0.42970  1.0000
  O   O35       1.0  0.00000  0.37280  0.57030  1.0000
  O   O36       1.0  0.00000  0.62720  0.07030  1.0000
  O   O37       1.0  0.50000  0.87280  0.92970  1.0000
  O   O38       1.0  0.50000  0.12720  0.42970  1.0000
  O   O39       1.0  0.50000  0.87280  0.57030  1.0000
  O   O40       1.0  0.50000  0.12720  0.07030  1.0000
  H   H33       1.0  0.00000  0.32350  0.89900  1.0000
  H   H34       1.0  0.00000  0.67650  0.39900  1.0000
  H   H35       1.0  0.00000  0.32350  0.60100  1.0000
  H   H36       1.0  0.00000  0.67650  0.10100  1.0000
  H   H37       1.0  0.50000  0.82350  0.89900  1.0000
  H   H38       1.0  0.50000  0.17650  0.39900  1.0000
  H   H39       1.0  0.50000  0.82350  0.60100  1.0000
  H   H40       1.0  0.50000  0.17650  0.10100  1.0000
