data_image0
_chemical_formula_structural       Ti3O24C12
_chemical_formula_sum              "Ti3 O24 C12"
_cell_length_a       8.947
_cell_length_b       8.947
_cell_length_c       10.898
_cell_angle_alpha    90
_cell_angle_beta     90
_cell_angle_gamma    120

_space_group_name_H-M_alt    "P 1"
_space_group_IT_number       1

loop_
  _space_group_symop_operation_xyz
  'x, y, z'

loop_
  _atom_site_type_symbol
  _atom_site_label
  _atom_site_symmetry_multiplicity
  _atom_site_fract_x
  _atom_site_fract_y
  _atom_site_fract_z
  _atom_site_occupancy
  Ti  Ti1       1.0  0.00000  0.50000  0.83333  1.0000
  Ti  Ti2       1.0  0.50000  0.00000  0.50000  1.0000
  Ti  Ti3       1.0  0.50000  0.50000  0.16666  1.0000
  O   O1        1.0  0.76290  0.44890  0.72371  1.0000
  O   O2        1.0  0.31400  0.76290  0.39038  1.0000
  O   O3        1.0  0.55110  0.23710  0.60962  1.0000
  O   O4        1.0  0.55110  0.31400  0.05704  1.0000
  O   O5        1.0  0.31400  0.55110  0.27629  1.0000
  O   O6        1.0  0.23710  0.55110  0.72371  1.0000
  O   O7        1.0  0.76290  0.31400  0.94296  1.0000
  O   O8        1.0  0.68600  0.23710  0.39038  1.0000
  O   O9        1.0  0.44890  0.76290  0.60962  1.0000
  O   O10       1.0  0.44890  0.68600  0.05704  1.0000
  O   O11       1.0  0.68600  0.44890  0.27629  1.0000
  O   O12       1.0  0.23710  0.68600  0.94296  1.0000
  O   O13       1.0  0.92390  0.27240  0.73001  1.0000
  O   O14       1.0  0.65150  0.92390  0.39668  1.0000
  O   O15       1.0  0.72760  0.07610  0.60332  1.0000
  O   O16       1.0  0.72760  0.65150  0.06334  1.0000
  O   O17       1.0  0.65150  0.72760  0.26999  1.0000
  O   O18       1.0  0.07610  0.72760  0.73001  1.0000
  O   O19       1.0  0.92390  0.65150  0.93666  1.0000
  O   O20       1.0  0.34850  0.07610  0.39668  1.0000
  O   O21       1.0  0.27240  0.92390  0.60332  1.0000
  O   O22       1.0  0.27240  0.34850  0.06334  1.0000
  O   O23       1.0  0.34850  0.27240  0.26999  1.0000
  O   O24       1.0  0.07610  0.34850  0.93666  1.0000
  C   C1        1.0  0.69173  0.30867  0.66670  1.0000
  C   C2        1.0  0.38306  0.69173  0.33337  1.0000
  C   C3        1.0  0.69133  0.38306  0.00003  1.0000
  C   C4        1.0  0.30827  0.69133  0.66670  1.0000
  C   C5        1.0  0.61694  0.30827  0.33337  1.0000
  C   C6        1.0  0.30867  0.61694  0.00003  1.0000
  C   C7        1.0  0.78948  0.21052  0.66670  1.0000
  C   C8        1.0  0.57896  0.78948  0.33337  1.0000
  C   C9        1.0  0.78948  0.57896  0.00003  1.0000
  C   C10       1.0  0.21052  0.78948  0.66670  1.0000
  C   C11       1.0  0.42104  0.21052  0.33337  1.0000
  C   C12       1.0  0.21052  0.42104  0.00003  1.0000
