data_image0
_chemical_formula_structural       Ti3O24C12
_chemical_formula_sum              "Ti3 O24 C12"
_cell_length_a       8.931
_cell_length_b       8.931
_cell_length_c       10.893
_cell_angle_alpha    90
_cell_angle_beta     90
_cell_angle_gamma    120

_space_group_name_H-M_alt    "P 1"
_space_group_IT_number       1

loop_
  _space_group_symop_operation_xyz
  'x, y, z'

loop_
  _atom_site_type_symbol
  _atom_site_label
  _atom_site_symmetry_multiplicity
  _atom_site_fract_x
  _atom_site_fract_y
  _atom_site_fract_z
  _atom_site_occupancy
  Ti  Ti1       1.0  0.00000  0.50000  0.83333  1.0000
  Ti  Ti2       1.0  0.50000  0.00000  0.50000  1.0000
  Ti  Ti3       1.0  0.50000  0.50000  0.16666  1.0000
  O   O1        1.0  0.76287  0.44938  0.72385  1.0000
  O   O2        1.0  0.31349  0.76287  0.39052  1.0000
  O   O3        1.0  0.55062  0.23713  0.60948  1.0000
  O   O4        1.0  0.55062  0.31349  0.05718  1.0000
  O   O5        1.0  0.31349  0.55062  0.27615  1.0000
  O   O6        1.0  0.23713  0.55062  0.72385  1.0000
  O   O7        1.0  0.76287  0.31349  0.94282  1.0000
  O   O8        1.0  0.68651  0.23713  0.39052  1.0000
  O   O9        1.0  0.44938  0.76287  0.60948  1.0000
  O   O10       1.0  0.44938  0.68651  0.05718  1.0000
  O   O11       1.0  0.68651  0.44938  0.27615  1.0000
  O   O12       1.0  0.23713  0.68651  0.94282  1.0000
  O   O13       1.0  0.92462  0.27273  0.72991  1.0000
  O   O14       1.0  0.65189  0.92462  0.39658  1.0000
  O   O15       1.0  0.72727  0.07538  0.60342  1.0000
  O   O16       1.0  0.72727  0.65189  0.06324  1.0000
  O   O17       1.0  0.65189  0.72727  0.27009  1.0000
  O   O18       1.0  0.07538  0.72727  0.72991  1.0000
  O   O19       1.0  0.92462  0.65189  0.93676  1.0000
  O   O20       1.0  0.34811  0.07538  0.39658  1.0000
  O   O21       1.0  0.27273  0.92462  0.60342  1.0000
  O   O22       1.0  0.27273  0.34811  0.06324  1.0000
  O   O23       1.0  0.34811  0.27273  0.27009  1.0000
  O   O24       1.0  0.07538  0.34811  0.93676  1.0000
  C   C1        1.0  0.69163  0.30837  0.66670  1.0000
  C   C2        1.0  0.38326  0.69163  0.33337  1.0000
  C   C3        1.0  0.69163  0.38326  0.00003  1.0000
  C   C4        1.0  0.30837  0.69163  0.66670  1.0000
  C   C5        1.0  0.61674  0.30837  0.33337  1.0000
  C   C6        1.0  0.30837  0.61674  0.00003  1.0000
  C   C7        1.0  0.78975  0.21025  0.66670  1.0000
  C   C8        1.0  0.57950  0.78975  0.33337  1.0000
  C   C9        1.0  0.78975  0.57950  0.00003  1.0000
  C   C10       1.0  0.21025  0.78975  0.66670  1.0000
  C   C11       1.0  0.42050  0.21025  0.33337  1.0000
  C   C12       1.0  0.21025  0.42050  0.00003  1.0000
