data_image0
_chemical_formula_structural       Ti3O24C12
_chemical_formula_sum              "Ti3 O24 C12"
_cell_length_a       8.939
_cell_length_b       8.939
_cell_length_c       10.893
_cell_angle_alpha    90
_cell_angle_beta     90
_cell_angle_gamma    120

_space_group_name_H-M_alt    "P 1"
_space_group_IT_number       1

loop_
  _space_group_symop_operation_xyz
  'x, y, z'

loop_
  _atom_site_type_symbol
  _atom_site_label
  _atom_site_symmetry_multiplicity
  _atom_site_fract_x
  _atom_site_fract_y
  _atom_site_fract_z
  _atom_site_occupancy
  Ti  Ti1       1.0  0.00000  0.50000  0.83333  1.0000
  Ti  Ti2       1.0  0.50000  0.00000  0.50000  1.0000
  Ti  Ti3       1.0  0.50000  0.50000  0.16666  1.0000
  O   O1        1.0  0.76296  0.44900  0.72365  1.0000
  O   O2        1.0  0.31396  0.76296  0.39032  1.0000
  O   O3        1.0  0.55100  0.23704  0.60968  1.0000
  O   O4        1.0  0.55100  0.31396  0.05698  1.0000
  O   O5        1.0  0.31396  0.55100  0.27635  1.0000
  O   O6        1.0  0.23704  0.55100  0.72365  1.0000
  O   O7        1.0  0.76296  0.31396  0.94302  1.0000
  O   O8        1.0  0.68604  0.23704  0.39032  1.0000
  O   O9        1.0  0.44900  0.76296  0.60968  1.0000
  O   O10       1.0  0.44900  0.68604  0.05698  1.0000
  O   O11       1.0  0.68604  0.44900  0.27635  1.0000
  O   O12       1.0  0.23704  0.68604  0.94302  1.0000
  O   O13       1.0  0.92389  0.27249  0.72987  1.0000
  O   O14       1.0  0.65140  0.92389  0.39654  1.0000
  O   O15       1.0  0.72751  0.07611  0.60346  1.0000
  O   O16       1.0  0.72751  0.65140  0.06320  1.0000
  O   O17       1.0  0.65140  0.72751  0.27013  1.0000
  O   O18       1.0  0.07611  0.72751  0.72987  1.0000
  O   O19       1.0  0.92389  0.65140  0.93680  1.0000
  O   O20       1.0  0.34860  0.07611  0.39654  1.0000
  O   O21       1.0  0.27249  0.92389  0.60346  1.0000
  O   O22       1.0  0.27249  0.34860  0.06320  1.0000
  O   O23       1.0  0.34860  0.27249  0.27013  1.0000
  O   O24       1.0  0.07611  0.34860  0.93680  1.0000
  C   C1        1.0  0.69175  0.30825  0.66670  1.0000
  C   C2        1.0  0.38350  0.69175  0.33337  1.0000
  C   C3        1.0  0.69175  0.38350  0.00003  1.0000
  C   C4        1.0  0.30825  0.69175  0.66670  1.0000
  C   C5        1.0  0.61650  0.30825  0.33337  1.0000
  C   C6        1.0  0.30825  0.61650  0.00003  1.0000
  C   C7        1.0  0.78951  0.21049  0.66670  1.0000
  C   C8        1.0  0.57902  0.78951  0.33337  1.0000
  C   C9        1.0  0.78951  0.57902  0.00003  1.0000
  C   C10       1.0  0.21049  0.78951  0.66670  1.0000
  C   C11       1.0  0.42098  0.21049  0.33337  1.0000
  C   C12       1.0  0.21049  0.42098  0.00003  1.0000
