data_image0
_chemical_formula_structural       Fe4P8O12H2O2H2O12H2O2H2C4H6C4H6
_chemical_formula_sum              "Fe4 P8 O28 H20 C8"
_cell_length_a       5.5222
_cell_length_b       12.403
_cell_length_c       15.454
_cell_angle_alpha    87.71
_cell_angle_beta     89.57
_cell_angle_gamma    78.1

_space_group_name_H-M_alt    "P 1"
_space_group_IT_number       1

loop_
  _space_group_symop_operation_xyz
  'x, y, z'

loop_
  _atom_site_type_symbol
  _atom_site_label
  _atom_site_symmetry_multiplicity
  _atom_site_fract_x
  _atom_site_fract_y
  _atom_site_fract_z
  _atom_site_occupancy
  Fe  Fe1       1.0  0.32496  0.52380  0.09095  1.0000
  Fe  Fe2       1.0  0.67504  0.47620  0.90905  1.0000
  Fe  Fe3       1.0  0.14709  0.03846  0.40935  1.0000
  Fe  Fe4       1.0  0.85291  0.96154  0.59065  1.0000
  P   P1        1.0  0.88886  0.37735  0.10796  1.0000
  P   P2        1.0  0.11114  0.62265  0.89204  1.0000
  P   P3        1.0  0.76140  0.60095  0.18582  1.0000
  P   P4        1.0  0.23860  0.39905  0.81418  1.0000
  P   P5        1.0  0.72091  0.89438  0.39033  1.0000
  P   P6        1.0  0.27909  0.10562  0.60967  1.0000
  P   P7        1.0  0.62500  0.13104  0.32509  1.0000
  P   P8        1.0  0.37500  0.86896  0.67491  1.0000
  O   O1        1.0  0.14830  0.39401  0.08730  1.0000
  O   O2        1.0  0.85170  0.60599  0.91270  1.0000
  O   O3        1.0  0.69490  0.42751  0.03917  1.0000
  O   O4        1.0  0.30510  0.57249  0.96083  1.0000
  O   O5        1.0  0.88450  0.25634  0.12617  1.0000
  O   O6        1.0  0.11550  0.74366  0.87383  1.0000
  O   O7        1.0  0.00950  0.61948  0.15447  1.0000
  O   O8        1.0  0.99050  0.38052  0.84553  1.0000
  O   O9        1.0  0.54830  0.63578  0.12218  1.0000
  O   O10       1.0  0.45170  0.36422  0.87782  1.0000
  O   O11       1.0  0.68150  0.65600  0.27186  1.0000
  O   O12       1.0  0.31850  0.34400  0.72814  1.0000
  H   H1        1.0  0.78000  0.70100  0.30300  1.0000
  H   H2        1.0  0.22000  0.29900  0.69700  1.0000
  O   O13       1.0  0.52080  0.44423  0.21756  1.0000
  O   O14       1.0  0.47920  0.55577  0.78244  1.0000
  H   H3        1.0  0.51700  0.37460  0.23200  1.0000
  H   H4        1.0  0.48300  0.62540  0.76800  1.0000
  O   O15       1.0  0.44990  0.90375  0.41044  1.0000
  O   O16       1.0  0.55010  0.09625  0.58956  1.0000
  O   O17       1.0  0.87450  0.93313  0.45980  1.0000
  O   O18       1.0  0.12550  0.06687  0.54020  1.0000
  O   O19       1.0  0.84350  0.77608  0.36922  1.0000
  O   O20       1.0  0.15650  0.22392  0.63078  1.0000
  O   O21       1.0  0.37420  0.14117  0.36446  1.0000
  O   O22       1.0  0.62580  0.85883  0.63554  1.0000
  O   O23       1.0  0.82250  0.16329  0.38015  1.0000
  O   O24       1.0  0.17750  0.83671  0.61985  1.0000
  O   O25       1.0  0.58930  0.20214  0.23799  1.0000
  O   O26       1.0  0.41070  0.79786  0.76201  1.0000
  H   H5        1.0  0.72500  0.20800  0.20800  1.0000
  H   H6        1.0  0.27500  0.79200  0.79200  1.0000
  O   O27       1.0  0.01620  0.98300  0.28671  1.0000
  O   O28       1.0  0.98380  0.01700  0.71329  1.0000
  H   H7        1.0  0.08500  0.91890  0.26400  1.0000
  H   H8        1.0  0.91500  0.08110  0.73600  1.0000
  C   C1        1.0  0.78100  0.45210  0.20640  1.0000
  C   C2        1.0  0.21900  0.54790  0.79360  1.0000
  C   C3        1.0  0.93430  0.40820  0.28570  1.0000
  C   C4        1.0  0.06570  0.59180  0.71430  1.0000
  H   H9        1.0  0.87000  0.45020  0.33470  1.0000
  H   H10       1.0  0.13000  0.54980  0.66530  1.0000
  H   H11       1.0  0.10290  0.41420  0.27590  1.0000
  H   H12       1.0  0.89710  0.58580  0.72410  1.0000
  H   H13       1.0  0.92720  0.33220  0.29700  1.0000
  H   H14       1.0  0.07280  0.66780  0.70300  1.0000
  C   C5        1.0  0.75180  0.98730  0.29710  1.0000
  C   C6        1.0  0.24820  0.01270  0.70290  1.0000
  C   C7        1.0  0.63900  0.95630  0.21470  1.0000
  C   C8        1.0  0.36100  0.04370  0.78530  1.0000
  H   H15       1.0  0.71000  0.88100  0.20280  1.0000
  H   H16       1.0  0.29000  0.11900  0.79720  1.0000
  H   H17       1.0  0.67230  0.00350  0.16740  1.0000
  H   H18       1.0  0.32770  0.99650  0.83260  1.0000
  H   H19       1.0  0.46340  0.96480  0.22200  1.0000
  H   H20       1.0  0.53660  0.03520  0.77800  1.0000
