data_image0
_chemical_formula_structural       Co4P8O12H2O2H2O12H2O2H2C4H6C4H6
_chemical_formula_sum              "Co4 P8 O28 H20 C8"
_cell_length_a       5.4651
_cell_length_b       12.406
_cell_length_c       15.362
_cell_angle_alpha    87.452
_cell_angle_beta     88.909
_cell_angle_gamma    78.415

_space_group_name_H-M_alt    "P 1"
_space_group_IT_number       1

loop_
  _space_group_symop_operation_xyz
  'x, y, z'

loop_
  _atom_site_type_symbol
  _atom_site_label
  _atom_site_symmetry_multiplicity
  _atom_site_fract_x
  _atom_site_fract_y
  _atom_site_fract_z
  _atom_site_occupancy
  Co  Co1       1.0  0.33339  0.52252  0.09073  1.0000
  Co  Co2       1.0  0.66661  0.47748  0.90927  1.0000
  Co  Co3       1.0  0.14080  0.03633  0.40923  1.0000
  Co  Co4       1.0  0.85920  0.96367  0.59077  1.0000
  P   P1        1.0  0.89256  0.37835  0.10701  1.0000
  P   P2        1.0  0.10744  0.62165  0.89299  1.0000
  P   P3        1.0  0.76480  0.60147  0.18359  1.0000
  P   P4        1.0  0.23520  0.39853  0.81641  1.0000
  P   P5        1.0  0.71472  0.89480  0.39156  1.0000
  P   P6        1.0  0.28528  0.10520  0.60844  1.0000
  P   P7        1.0  0.62416  0.13028  0.32681  1.0000
  P   P8        1.0  0.37584  0.86972  0.67319  1.0000
  O   O1        1.0  0.15390  0.39489  0.08593  1.0000
  O   O2        1.0  0.84610  0.60511  0.91407  1.0000
  O   O3        1.0  0.69640  0.42736  0.03844  1.0000
  O   O4        1.0  0.30360  0.57264  0.96156  1.0000
  O   O5        1.0  0.88710  0.25756  0.12590  1.0000
  O   O6        1.0  0.11290  0.74244  0.87410  1.0000
  O   O7        1.0  0.01730  0.61970  0.15153  1.0000
  O   O8        1.0  0.98270  0.38030  0.84847  1.0000
  O   O9        1.0  0.54910  0.63519  0.12003  1.0000
  O   O10       1.0  0.45090  0.36481  0.87997  1.0000
  O   O11       1.0  0.68270  0.65800  0.26947  1.0000
  O   O12       1.0  0.31730  0.34200  0.73053  1.0000
  H   H1        1.0  0.77700  0.69600  0.30500  1.0000
  H   H2        1.0  0.22300  0.30400  0.69500  1.0000
  O   O13       1.0  0.51610  0.44559  0.21605  1.0000
  O   O14       1.0  0.48390  0.55441  0.78395  1.0000
  H   H3        1.0  0.50900  0.37490  0.22700  1.0000
  H   H4        1.0  0.49100  0.62510  0.77300  1.0000
  O   O15       1.0  0.43980  0.90457  0.41178  1.0000
  O   O16       1.0  0.56020  0.09543  0.58822  1.0000
  O   O17       1.0  0.87220  0.93305  0.46062  1.0000
  O   O18       1.0  0.12780  0.06695  0.53938  1.0000
  O   O19       1.0  0.83650  0.77607  0.37048  1.0000
  O   O20       1.0  0.16350  0.22393  0.62952  1.0000
  O   O21       1.0  0.37120  0.14012  0.36782  1.0000
  O   O22       1.0  0.62880  0.85988  0.63218  1.0000
  O   O23       1.0  0.82670  0.16129  0.38113  1.0000
  O   O24       1.0  0.17330  0.83871  0.61887  1.0000
  O   O25       1.0  0.58790  0.20270  0.23973  1.0000
  O   O26       1.0  0.41210  0.79730  0.76027  1.0000
  H   H5        1.0  0.73300  0.20800  0.21100  1.0000
  H   H6        1.0  0.26700  0.79200  0.78900  1.0000
  O   O27       1.0  0.01940  0.98255  0.28736  1.0000
  O   O28       1.0  0.98060  0.01745  0.71264  1.0000
  H   H7        1.0  0.10300  0.92110  0.26300  1.0000
  H   H8        1.0  0.89700  0.07890  0.73700  1.0000
  C   C1        1.0  0.77920  0.45370  0.20504  1.0000
  C   C2        1.0  0.22080  0.54630  0.79496  1.0000
  C   C3        1.0  0.92800  0.41060  0.28620  1.0000
  C   C4        1.0  0.07200  0.58940  0.71380  1.0000
  H   H9        1.0  0.86100  0.45380  0.33470  1.0000
  H   H10       1.0  0.13900  0.54620  0.66530  1.0000
  H   H11       1.0  0.09960  0.41570  0.27680  1.0000
  H   H12       1.0  0.90040  0.58430  0.72320  1.0000
  H   H13       1.0  0.91760  0.33510  0.29840  1.0000
  H   H14       1.0  0.08240  0.66490  0.70160  1.0000
  C   C5        1.0  0.75270  0.98700  0.29737  1.0000
  C   C6        1.0  0.24730  0.01300  0.70263  1.0000
  C   C7        1.0  0.64030  0.95760  0.21400  1.0000
  C   C8        1.0  0.35970  0.04240  0.78600  1.0000
  H   H15       1.0  0.71010  0.88250  0.20160  1.0000
  H   H16       1.0  0.28990  0.11750  0.79840  1.0000
  H   H17       1.0  0.67710  0.00520  0.16670  1.0000
  H   H18       1.0  0.32290  0.99480  0.83330  1.0000
  H   H19       1.0  0.46250  0.96660  0.22120  1.0000
  H   H20       1.0  0.53750  0.03340  0.77880  1.0000
