data_image0
_chemical_formula_structural       Mn4P8O12H2O2H2O12H2O2H2C4H6C4H6
_chemical_formula_sum              "Mn4 P8 O28 H20 C8"
_cell_length_a       5.6083
_cell_length_b       12.4098
_cell_length_c       15.5105
_cell_angle_alpha    87.8985
_cell_angle_beta     89.9113
_cell_angle_gamma    77.536

_space_group_name_H-M_alt    "P 1"
_space_group_IT_number       1

loop_
  _space_group_symop_operation_xyz
  'x, y, z'

loop_
  _atom_site_type_symbol
  _atom_site_label
  _atom_site_symmetry_multiplicity
  _atom_site_fract_x
  _atom_site_fract_y
  _atom_site_fract_z
  _atom_site_occupancy
  Mn  Mn1       1.0  0.31564  0.52430  0.09169  1.0000
  Mn  Mn2       1.0  0.68436  0.47570  0.90831  1.0000
  Mn  Mn3       1.0  0.15531  0.03850  0.40866  1.0000
  Mn  Mn4       1.0  0.84469  0.96150  0.59134  1.0000
  P   P1        1.0  0.88756  0.37446  0.10877  1.0000
  P   P2        1.0  0.11244  0.62554  0.89123  1.0000
  P   P3        1.0  0.75827  0.60017  0.18684  1.0000
  P   P4        1.0  0.24173  0.39983  0.81316  1.0000
  P   P5        1.0  0.72702  0.89265  0.38827  1.0000
  P   P6        1.0  0.27298  0.10735  0.61173  1.0000
  P   P7        1.0  0.62788  0.13170  0.32507  1.0000
  P   P8        1.0  0.37212  0.86830  0.67493  1.0000
  O   O1        1.0  0.14330  0.38980  0.08816  1.0000
  O   O2        1.0  0.85670  0.61020  0.91184  1.0000
  O   O3        1.0  0.69670  0.42450  0.03999  1.0000
  O   O4        1.0  0.30330  0.57550  0.96001  1.0000
  O   O5        1.0  0.88090  0.25350  0.12760  1.0000
  O   O6        1.0  0.11910  0.74650  0.87240  1.0000
  O   O7        1.0  0.00300  0.61870  0.15646  1.0000
  O   O8        1.0  0.99700  0.38130  0.84354  1.0000
  O   O9        1.0  0.54910  0.63660  0.12331  1.0000
  O   O10       1.0  0.45090  0.36340  0.87669  1.0000
  O   O11       1.0  0.67920  0.65380  0.27290  1.0000
  O   O12       1.0  0.32080  0.34620  0.72710  1.0000
  H   H1        1.0  0.74900  0.69300  0.29300  1.0000
  H   H2        1.0  0.25100  0.30700  0.70700  1.0000
  O   O13       1.0  0.52450  0.44260  0.21700  1.0000
  O   O14       1.0  0.47550  0.55740  0.78300  1.0000
  H   H3        1.0  0.53500  0.37220  0.23400  1.0000
  H   H4        1.0  0.46500  0.62780  0.76600  1.0000
  O   O15       1.0  0.45980  0.90050  0.40828  1.0000
  O   O16       1.0  0.54020  0.09950  0.59172  1.0000
  O   O17       1.0  0.87620  0.93100  0.45845  1.0000
  O   O18       1.0  0.12380  0.06900  0.54155  1.0000
  O   O19       1.0  0.85310  0.77500  0.36510  1.0000
  O   O20       1.0  0.14690  0.22500  0.63490  1.0000
  O   O21       1.0  0.38210  0.14290  0.36511  1.0000
  O   O22       1.0  0.61790  0.85710  0.63489  1.0000
  O   O23       1.0  0.82320  0.16350  0.38000  1.0000
  O   O24       1.0  0.17680  0.83650  0.62000  1.0000
  O   O25       1.0  0.59080  0.20290  0.23849  1.0000
  O   O26       1.0  0.40920  0.79710  0.76151  1.0000
  H   H5        1.0  0.72700  0.20700  0.20200  1.0000
  H   H6        1.0  0.27300  0.79300  0.79800  1.0000
  O   O27       1.0  0.01030  0.98250  0.28430  1.0000
  O   O28       1.0  0.98970  0.01750  0.71570  1.0000
  H   H7        1.0  0.08000  0.91470  0.26700  1.0000
  H   H8        1.0  0.92000  0.08530  0.73300  1.0000
  C   C1        1.0  0.78200  0.45050  0.20560  1.0000
  C   C2        1.0  0.21800  0.54950  0.79440  1.0000
  C   C3        1.0  0.93480  0.40700  0.28590  1.0000
  C   C4        1.0  0.06520  0.59300  0.71410  1.0000
  H   H9        1.0  0.86950  0.44930  0.33440  1.0000
  H   H10       1.0  0.13050  0.55070  0.66560  1.0000
  H   H11       1.0  0.10050  0.41330  0.27660  1.0000
  H   H12       1.0  0.89950  0.58670  0.72340  1.0000
  H   H13       1.0  0.93030  0.33080  0.29710  1.0000
  H   H14       1.0  0.06970  0.66920  0.70290  1.0000
  C   C5        1.0  0.75020  0.98740  0.29660  1.0000
  C   C6        1.0  0.24980  0.01260  0.70340  1.0000
  C   C7        1.0  0.63350  0.95800  0.21440  1.0000
  C   C8        1.0  0.36650  0.04200  0.78560  1.0000
  H   H15       1.0  0.70290  0.88270  0.20150  1.0000
  H   H16       1.0  0.29710  0.11730  0.79850  1.0000
  H   H17       1.0  0.66360  0.00580  0.16740  1.0000
  H   H18       1.0  0.33640  0.99420  0.83260  1.0000
  H   H19       1.0  0.46070  0.96710  0.22250  1.0000
  H   H20       1.0  0.53930  0.03290  0.77750  1.0000
