data_image0
_chemical_formula_structural       Zn4P8O12H2O2H2O12H2O2H2C4H6C4H6
_chemical_formula_sum              "Zn4 P8 O28 H20 C8"
_cell_length_a       5.4895
_cell_length_b       12.3661
_cell_length_c       15.4141
_cell_angle_alpha    87.505
_cell_angle_beta     89.774
_cell_angle_gamma    78.581

_space_group_name_H-M_alt    "P 1"
_space_group_IT_number       1

loop_
  _space_group_symop_operation_xyz
  'x, y, z'

loop_
  _atom_site_type_symbol
  _atom_site_label
  _atom_site_symmetry_multiplicity
  _atom_site_fract_x
  _atom_site_fract_y
  _atom_site_fract_z
  _atom_site_occupancy
  Zn  Zn1       1.0  0.30839  0.53033  0.08986  1.0000
  Zn  Zn2       1.0  0.69161  0.46967  0.91014  1.0000
  Zn  Zn3       1.0  0.15709  0.04256  0.40908  1.0000
  Zn  Zn4       1.0  0.84291  0.95744  0.59092  1.0000
  P   P1        1.0  0.89451  0.37889  0.10751  1.0000
  P   P2        1.0  0.10549  0.62111  0.89249  1.0000
  P   P3        1.0  0.75500  0.60378  0.18244  1.0000
  P   P4        1.0  0.24500  0.39622  0.81756  1.0000
  P   P5        1.0  0.71273  0.89497  0.39288  1.0000
  P   P6        1.0  0.28727  0.10503  0.60712  1.0000
  P   P7        1.0  0.63360  0.13122  0.32636  1.0000
  P   P8        1.0  0.36640  0.86878  0.67364  1.0000
  O   O1        1.0  0.15740  0.39600  0.08966  1.0000
  O   O2        1.0  0.84260  0.60400  0.91034  1.0000
  O   O3        1.0  0.70440  0.42600  0.03685  1.0000
  O   O4        1.0  0.29560  0.57400  0.96315  1.0000
  O   O5        1.0  0.89200  0.25740  0.12709  1.0000
  O   O6        1.0  0.10800  0.74260  0.87291  1.0000
  O   O7        1.0  0.00190  0.62480  0.14924  1.0000
  O   O8        1.0  0.99810  0.37520  0.85076  1.0000
  O   O9        1.0  0.53880  0.63620  0.11877  1.0000
  O   O10       1.0  0.46120  0.36380  0.88123  1.0000
  O   O11       1.0  0.67900  0.65990  0.26767  1.0000
  O   O12       1.0  0.32100  0.34010  0.73233  1.0000
  H   H1        1.0  0.75300  0.70100  0.30200  1.0000
  H   H2        1.0  0.24700  0.29900  0.69800  1.0000
  O   O13       1.0  0.51690  0.44500  0.21368  1.0000
  O   O14       1.0  0.48310  0.55500  0.78632  1.0000
  H   H3        1.0  0.53300  0.37380  0.22900  1.0000
  H   H4        1.0  0.46700  0.62620  0.77100  1.0000
  O   O15       1.0  0.43780  0.90600  0.41014  1.0000
  O   O16       1.0  0.56220  0.09400  0.58986  1.0000
  O   O17       1.0  0.86730  0.93090  0.46361  1.0000
  O   O18       1.0  0.13270  0.06910  0.53639  1.0000
  O   O19       1.0  0.82940  0.77560  0.37229  1.0000
  O   O20       1.0  0.17060  0.22440  0.62771  1.0000
  O   O21       1.0  0.38310  0.14360  0.36728  1.0000
  O   O22       1.0  0.61690  0.85640  0.63272  1.0000
  O   O23       1.0  0.83630  0.16240  0.38079  1.0000
  O   O24       1.0  0.16370  0.83760  0.61921  1.0000
  O   O25       1.0  0.59830  0.20200  0.23885  1.0000
  O   O26       1.0  0.40170  0.79800  0.76115  1.0000
  H   H5        1.0  0.72900  0.21100  0.20100  1.0000
  H   H6        1.0  0.27100  0.78900  0.79900  1.0000
  O   O27       1.0  0.02070  0.98160  0.29127  1.0000
  O   O28       1.0  0.97930  0.01840  0.70873  1.0000
  H   H7        1.0  0.09300  0.91640  0.27100  1.0000
  H   H8        1.0  0.90700  0.08360  0.72900  1.0000
  C   C1        1.0  0.77840  0.45500  0.20460  1.0000
  C   C2        1.0  0.22160  0.54500  0.79540  1.0000
  C   C3        1.0  0.93050  0.41410  0.28530  1.0000
  C   C4        1.0  0.06950  0.58590  0.71470  1.0000
  H   H9        1.0  0.86350  0.45710  0.33340  1.0000
  H   H10       1.0  0.13650  0.54290  0.66660  1.0000
  H   H11       1.0  0.09960  0.42140  0.27590  1.0000
  H   H12       1.0  0.90040  0.57860  0.72410  1.0000
  H   H13       1.0  0.92490  0.33790  0.29780  1.0000
  H   H14       1.0  0.07510  0.66210  0.70220  1.0000
  C   C5        1.0  0.75480  0.98640  0.29920  1.0000
  C   C6        1.0  0.24520  0.01360  0.70080  1.0000
  C   C7        1.0  0.64320  0.95640  0.21570  1.0000
  C   C8        1.0  0.35680  0.04360  0.78430  1.0000
  H   H15       1.0  0.71380  0.88120  0.20360  1.0000
  H   H16       1.0  0.28620  0.11880  0.79640  1.0000
  H   H17       1.0  0.67870  0.00430  0.16870  1.0000
  H   H18       1.0  0.32130  0.99570  0.83130  1.0000
  H   H19       1.0  0.46650  0.96470  0.22210  1.0000
  H   H20       1.0  0.53350  0.03530  0.77790  1.0000
