data_image0
_chemical_formula_structural       Zn4O28C14
_chemical_formula_sum              "Zn4 O28 C14"
_cell_length_a       8.9116
_cell_length_b       9.2445
_cell_length_c       18.724
_cell_angle_alpha    103.92
_cell_angle_beta     92.14
_cell_angle_gamma    109.46

_space_group_name_H-M_alt    "P 1"
_space_group_IT_number       1

loop_
  _space_group_symop_operation_xyz
  'x, y, z'

loop_
  _atom_site_type_symbol
  _atom_site_label
  _atom_site_symmetry_multiplicity
  _atom_site_fract_x
  _atom_site_fract_y
  _atom_site_fract_z
  _atom_site_occupancy
  Zn  Zn1       1.0  0.48622  0.78315  0.57946  1.0000
  Zn  Zn2       1.0  0.51378  0.21685  0.42054  1.0000
  Zn  Zn3       1.0  0.58538  0.84077  0.87582  1.0000
  Zn  Zn4       1.0  0.41462  0.15923  0.12418  1.0000
  O   O1        1.0  0.37140  0.36080  0.42230  1.0000
  O   O2        1.0  0.62860  0.63920  0.57770  1.0000
  O   O3        1.0  0.35360  0.58750  0.49230  1.0000
  O   O4        1.0  0.64640  0.41250  0.50770  1.0000
  O   O5        1.0  0.35630  0.92020  0.55570  1.0000
  O   O6        1.0  0.64370  0.07980  0.44430  1.0000
  O   O7        1.0  0.36170  0.09410  0.48910  1.0000
  O   O8        1.0  0.63830  0.90590  0.51090  1.0000
  O   O9        1.0  0.35050  0.71560  0.66410  1.0000
  O   O10       1.0  0.64950  0.28440  0.33590  1.0000
  O   O11       1.0  0.38020  0.76670  0.78810  1.0000
  O   O12       1.0  0.61980  0.23330  0.21190  1.0000
  O   O13       1.0  0.64460  0.94070  0.67400  1.0000
  O   O14       1.0  0.35540  0.05930  0.32600  1.0000
  O   O15       1.0  0.69540  0.93670  0.79120  1.0000
  O   O16       1.0  0.30460  0.06330  0.20880  1.0000
  O   O17       1.0  0.56190  0.60130  0.82750  1.0000
  O   O18       1.0  0.43810  0.39870  0.17250  1.0000
  O   O19       1.0  0.70990  0.44450  0.81300  1.0000
  O   O20       1.0  0.29010  0.55550  0.18700  1.0000
  O   O21       1.0  0.80220  0.83890  0.91970  1.0000
  O   O22       1.0  0.19780  0.16110  0.08030  1.0000
  O   O23       1.0  0.97080  0.70470  0.89110  1.0000
  O   O24       1.0  0.02920  0.29530  0.10890  1.0000
  O   O25       1.0  0.61840  0.07600  0.93530  1.0000
  O   O26       1.0  0.38160  0.92400  0.06470  1.0000
  O   O27       1.0  0.55890  0.20590  0.04190  1.0000
  O   O28       1.0  0.44110  0.79410  0.95810  1.0000
  C   C1        1.0  0.41930  0.48500  0.47610  1.0000
  C   C2        1.0  0.58070  0.51500  0.52390  1.0000
  C   C3        1.0  0.41900  0.00430  0.51290  1.0000
  C   C4        1.0  0.58100  0.99570  0.48710  1.0000
  C   C5        1.0  0.42830  0.77990  0.72730  1.0000
  C   C6        1.0  0.57170  0.22010  0.27270  1.0000
  C   C7        1.0  0.60630  0.89640  0.73150  1.0000
  C   C8        1.0  0.39370  0.10360  0.26850  1.0000
  C   C9        1.0  0.69040  0.57270  0.83810  1.0000
  C   C10       1.0  0.30960  0.42730  0.16190  1.0000
  C   C11       1.0  0.83470  0.71730  0.88700  1.0000
  C   C12       1.0  0.16530  0.28270  0.11300  1.0000
  C   C13       1.0  0.55120  0.08150  0.99290  1.0000
  C   C14       1.0  0.44880  0.91850  0.00710  1.0000
