data_image0
_chemical_formula_structural       Mn8O56C28
_chemical_formula_sum              "Mn8 O56 C28"
_cell_length_a       13.133
_cell_length_b       22.41
_cell_length_c       10.267
_cell_angle_alpha    90
_cell_angle_beta     98.96
_cell_angle_gamma    90

_space_group_name_H-M_alt    "P 1"
_space_group_IT_number       1

loop_
  _space_group_symop_operation_xyz
  'x, y, z'

loop_
  _atom_site_type_symbol
  _atom_site_label
  _atom_site_symmetry_multiplicity
  _atom_site_fract_x
  _atom_site_fract_y
  _atom_site_fract_z
  _atom_site_occupancy
  Mn  Mn1       1.0  0.24217  0.70020  0.15349  1.0000
  Mn  Mn2       1.0  0.75783  0.20020  0.34651  1.0000
  Mn  Mn3       1.0  0.75783  0.29980  0.84651  1.0000
  Mn  Mn4       1.0  0.24217  0.79980  0.65349  1.0000
  Mn  Mn5       1.0  0.31018  0.47256  0.33933  1.0000
  Mn  Mn6       1.0  0.68982  0.97256  0.16067  1.0000
  Mn  Mn7       1.0  0.68982  0.52744  0.66067  1.0000
  Mn  Mn8       1.0  0.31018  0.02744  0.83933  1.0000
  O   O1        1.0  0.22020  0.31320  0.47860  1.0000
  O   O2        1.0  0.77980  0.81320  0.02140  1.0000
  O   O3        1.0  0.77980  0.68680  0.52140  1.0000
  O   O4        1.0  0.22020  0.18680  0.97860  1.0000
  O   O5        1.0  0.62140  0.47010  0.49950  1.0000
  O   O6        1.0  0.37860  0.97010  0.00050  1.0000
  O   O7        1.0  0.37860  0.52990  0.50050  1.0000
  O   O8        1.0  0.62140  0.02990  0.99950  1.0000
  O   O9        1.0  0.22820  0.30310  0.21610  1.0000
  O   O10       1.0  0.77180  0.80310  0.28390  1.0000
  O   O11       1.0  0.77180  0.69690  0.78390  1.0000
  O   O12       1.0  0.22820  0.19690  0.71610  1.0000
  O   O13       1.0  0.34580  0.52660  0.17910  1.0000
  O   O14       1.0  0.65420  0.02660  0.32090  1.0000
  O   O15       1.0  0.65420  0.47340  0.82090  1.0000
  O   O16       1.0  0.34580  0.97340  0.67910  1.0000
  O   O17       1.0  0.47160  0.44370  0.38300  1.0000
  O   O18       1.0  0.52840  0.94370  0.11700  1.0000
  O   O19       1.0  0.52840  0.55630  0.61700  1.0000
  O   O20       1.0  0.47160  0.05630  0.88300  1.0000
  O   O21       1.0  0.26780  0.39900  0.21270  1.0000
  O   O22       1.0  0.73220  0.89900  0.28730  1.0000
  O   O23       1.0  0.73220  0.60100  0.78730  1.0000
  O   O24       1.0  0.26780  0.10100  0.71270  1.0000
  O   O25       1.0  0.18680  0.53640  0.31040  1.0000
  O   O26       1.0  0.81320  0.03640  0.18960  1.0000
  O   O27       1.0  0.81320  0.46360  0.68960  1.0000
  O   O28       1.0  0.18680  0.96360  0.81040  1.0000
  O   O29       1.0  0.25660  0.40930  0.46640  1.0000
  O   O30       1.0  0.74340  0.90930  0.03360  1.0000
  O   O31       1.0  0.74340  0.59070  0.53360  1.0000
  O   O32       1.0  0.25660  0.09070  0.96640  1.0000
  O   O33       1.0  0.15280  0.70320  0.95870  1.0000
  O   O34       1.0  0.84720  0.20320  0.54130  1.0000
  O   O35       1.0  0.84720  0.29680  0.04130  1.0000
  O   O36       1.0  0.15280  0.79680  0.45870  1.0000
  O   O37       1.0  0.32600  0.62080  0.11430  1.0000
  O   O38       1.0  0.67400  0.12080  0.38570  1.0000
  O   O39       1.0  0.67400  0.37920  0.88570  1.0000
  O   O40       1.0  0.32600  0.87920  0.61430  1.0000
  O   O41       1.0  0.34080  0.78970  0.84470  1.0000
  O   O42       1.0  0.65920  0.28970  0.65530  1.0000
  O   O43       1.0  0.65920  0.21030  0.15530  1.0000
  O   O44       1.0  0.34080  0.71030  0.34470  1.0000
  O   O45       1.0  0.33110  0.75810  0.04700  1.0000
  O   O46       1.0  0.66890  0.25810  0.45300  1.0000
  O   O47       1.0  0.66890  0.24190  0.95300  1.0000
  O   O48       1.0  0.33110  0.74190  0.54700  1.0000
  O   O49       1.0  0.15920  0.62900  0.23480  1.0000
  O   O50       1.0  0.84080  0.12900  0.26520  1.0000
  O   O51       1.0  0.84080  0.37100  0.76520  1.0000
  O   O52       1.0  0.15920  0.87100  0.73480  1.0000
  O   O53       1.0  0.16120  0.73540  0.75600  1.0000
  O   O54       1.0  0.83880  0.23540  0.74400  1.0000
  O   O55       1.0  0.83880  0.26460  0.24400  1.0000
  O   O56       1.0  0.16120  0.76460  0.25600  1.0000
  C   C1        1.0  0.52670  0.47540  0.46630  1.0000
  C   C2        1.0  0.47330  0.97540  0.03370  1.0000
  C   C3        1.0  0.47330  0.52460  0.53370  1.0000
  C   C4        1.0  0.52670  0.02460  0.96630  1.0000
  C   C5        1.0  0.20740  0.58170  0.24700  1.0000
  C   C6        1.0  0.79260  0.08170  0.25300  1.0000
  C   C7        1.0  0.79260  0.41830  0.75300  1.0000
  C   C8        1.0  0.20740  0.91830  0.74700  1.0000
  C   C9        1.0  0.29760  0.76210  0.92600  1.0000
  C   C10       1.0  0.70240  0.26210  0.57400  1.0000
  C   C11       1.0  0.70240  0.23790  0.07400  1.0000
  C   C12       1.0  0.29760  0.73790  0.42600  1.0000
  C   C13       1.0  0.19430  0.73090  0.87530  1.0000
  C   C14       1.0  0.80570  0.23090  0.62470  1.0000
  C   C15       1.0  0.80570  0.26910  0.12470  1.0000
  C   C16       1.0  0.19430  0.76910  0.37530  1.0000
  C   C17       1.0  0.24160  0.35800  0.41830  1.0000
  C   C18       1.0  0.75840  0.85800  0.08170  1.0000
  C   C19       1.0  0.75840  0.64200  0.58170  1.0000
  C   C20       1.0  0.24160  0.14200  0.91830  1.0000
  C   C21       1.0  0.24540  0.35130  0.27020  1.0000
  C   C22       1.0  0.75460  0.85130  0.22980  1.0000
  C   C23       1.0  0.75460  0.64870  0.72980  1.0000
  C   C24       1.0  0.24540  0.14870  0.77020  1.0000
  C   C25       1.0  0.30140  0.57550  0.17380  1.0000
  C   C26       1.0  0.69860  0.07550  0.32620  1.0000
  C   C27       1.0  0.69860  0.42450  0.82620  1.0000
  C   C28       1.0  0.30140  0.92450  0.67380  1.0000
