data_image0
_chemical_formula_structural       Br4Cu12Co4O48H12O24C36
_chemical_formula_sum              "Br4 Cu12 Co4 O72 H12 C36"
_cell_length_a       17.9181
_cell_length_b       17.9181
_cell_length_c       17.9181
_cell_angle_alpha    90
_cell_angle_beta     90
_cell_angle_gamma    90

_space_group_name_H-M_alt    "P 1"
_space_group_IT_number       1

loop_
  _space_group_symop_operation_xyz
  'x, y, z'

loop_
  _atom_site_type_symbol
  _atom_site_label
  _atom_site_symmetry_multiplicity
  _atom_site_fract_x
  _atom_site_fract_y
  _atom_site_fract_z
  _atom_site_occupancy
  Br  Br1       1.0  0.19836  0.19836  0.19836  1.0000
  Br  Br2       1.0  0.30164  0.80164  0.69836  1.0000
  Br  Br3       1.0  0.69836  0.30164  0.80164  1.0000
  Br  Br4       1.0  0.80164  0.69836  0.30164  1.0000
  Cu  Cu1       1.0  0.20336  0.05267  0.13614  1.0000
  Cu  Cu2       1.0  0.29664  0.94733  0.63614  1.0000
  Cu  Cu3       1.0  0.70336  0.44733  0.86386  1.0000
  Cu  Cu4       1.0  0.79664  0.55267  0.36386  1.0000
  Cu  Cu5       1.0  0.13614  0.20336  0.05267  1.0000
  Cu  Cu6       1.0  0.36386  0.79664  0.55267  1.0000
  Cu  Cu7       1.0  0.63614  0.29664  0.94733  1.0000
  Cu  Cu8       1.0  0.86386  0.70336  0.44733  1.0000
  Cu  Cu9       1.0  0.05267  0.13614  0.20336  1.0000
  Cu  Cu10      1.0  0.55267  0.36386  0.79664  1.0000
  Cu  Cu11      1.0  0.94733  0.63614  0.29664  1.0000
  Cu  Cu12      1.0  0.44733  0.86386  0.70336  1.0000
  Co  Co1       1.0  0.10651  0.89349  0.39349  1.0000
  Co  Co2       1.0  0.39349  0.10651  0.89349  1.0000
  Co  Co3       1.0  0.60651  0.60651  0.60651  1.0000
  Co  Co4       1.0  0.89349  0.39349  0.10651  1.0000
  O   O1        1.0  0.23280  0.99170  0.22000  1.0000
  O   O2        1.0  0.26720  0.00830  0.72000  1.0000
  O   O3        1.0  0.73280  0.50830  0.78000  1.0000
  O   O4        1.0  0.76720  0.49170  0.28000  1.0000
  O   O5        1.0  0.22000  0.23280  0.99170  1.0000
  O   O6        1.0  0.28000  0.76720  0.49170  1.0000
  O   O7        1.0  0.72000  0.26720  0.00830  1.0000
  O   O8        1.0  0.78000  0.73280  0.50830  1.0000
  O   O9        1.0  0.99170  0.22000  0.23280  1.0000
  O   O10       1.0  0.49170  0.28000  0.76720  1.0000
  O   O11       1.0  0.00830  0.72000  0.26720  1.0000
  O   O12       1.0  0.50830  0.78000  0.73280  1.0000
  O   O13       1.0  0.18660  0.93310  0.31790  1.0000
  O   O14       1.0  0.31340  0.06690  0.81790  1.0000
  O   O15       1.0  0.68660  0.56690  0.68210  1.0000
  O   O16       1.0  0.81340  0.43310  0.18210  1.0000
  O   O17       1.0  0.31790  0.18660  0.93310  1.0000
  O   O18       1.0  0.18210  0.81340  0.43310  1.0000
  O   O19       1.0  0.81790  0.31340  0.06690  1.0000
  O   O20       1.0  0.68210  0.68660  0.56690  1.0000
  O   O21       1.0  0.93310  0.31790  0.18660  1.0000
  O   O22       1.0  0.43310  0.18210  0.81340  1.0000
  O   O23       1.0  0.06690  0.81790  0.31340  1.0000
  O   O24       1.0  0.56690  0.68210  0.68660  1.0000
  O   O25       1.0  0.10680  0.04140  0.17950  1.0000
  O   O26       1.0  0.39320  0.95860  0.67950  1.0000
  O   O27       1.0  0.60680  0.45860  0.82050  1.0000
  O   O28       1.0  0.89320  0.54140  0.32050  1.0000
  O   O29       1.0  0.17950  0.10680  0.04140  1.0000
  O   O30       1.0  0.32050  0.89320  0.54140  1.0000
  O   O31       1.0  0.67950  0.39320  0.95860  1.0000
  O   O32       1.0  0.82050  0.60680  0.45860  1.0000
  O   O33       1.0  0.04140  0.17950  0.10680  1.0000
  O   O34       1.0  0.54140  0.32050  0.89320  1.0000
  O   O35       1.0  0.95860  0.67950  0.39320  1.0000
  O   O36       1.0  0.45860  0.82050  0.60680  1.0000
  O   O37       1.0  0.06990  0.92720  0.20110  1.0000
  O   O38       1.0  0.43010  0.07280  0.70110  1.0000
  O   O39       1.0  0.56990  0.57280  0.79890  1.0000
  O   O40       1.0  0.93010  0.42720  0.29890  1.0000
  O   O41       1.0  0.20110  0.06990  0.92720  1.0000
  O   O42       1.0  0.29890  0.93010  0.42720  1.0000
  O   O43       1.0  0.70110  0.43010  0.07280  1.0000
  O   O44       1.0  0.79890  0.56990  0.57280  1.0000
  O   O45       1.0  0.92720  0.20110  0.06990  1.0000
  O   O46       1.0  0.42720  0.29890  0.93010  1.0000
  O   O47       1.0  0.07280  0.70110  0.43010  1.0000
  O   O48       1.0  0.57280  0.79890  0.56990  1.0000
  H   H1        1.0  0.06452  0.89414  0.23230  1.0000
  H   H2        1.0  0.43548  0.10586  0.73230  1.0000
  H   H3        1.0  0.56452  0.60586  0.76770  1.0000
  H   H4        1.0  0.93548  0.39414  0.26770  1.0000
  H   H5        1.0  0.23230  0.06452  0.89414  1.0000
  H   H6        1.0  0.26770  0.93548  0.39414  1.0000
  H   H7        1.0  0.73230  0.43548  0.10586  1.0000
  H   H8        1.0  0.76770  0.56452  0.60586  1.0000
  H   H9        1.0  0.89414  0.23230  0.06452  1.0000
  H   H10       1.0  0.39414  0.26770  0.93548  1.0000
  H   H11       1.0  0.10586  0.73230  0.43548  1.0000
  H   H12       1.0  0.60586  0.76770  0.56452  1.0000
  O   O49       1.0  0.03870  0.97840  0.35480  1.0000
  O   O50       1.0  0.46130  0.02160  0.85480  1.0000
  O   O51       1.0  0.53870  0.52160  0.64520  1.0000
  O   O52       1.0  0.96130  0.47840  0.14520  1.0000
  O   O53       1.0  0.35480  0.03870  0.97840  1.0000
  O   O54       1.0  0.14520  0.96130  0.47840  1.0000
  O   O55       1.0  0.85480  0.46130  0.02160  1.0000
  O   O56       1.0  0.64520  0.53870  0.52160  1.0000
  O   O57       1.0  0.97840  0.35480  0.03870  1.0000
  O   O58       1.0  0.47840  0.14520  0.96130  1.0000
  O   O59       1.0  0.02160  0.85480  0.46130  1.0000
  O   O60       1.0  0.52160  0.64520  0.53870  1.0000
  O   O61       1.0  0.03040  0.08350  0.29690  1.0000
  O   O62       1.0  0.46960  0.91650  0.79690  1.0000
  O   O63       1.0  0.53040  0.41650  0.70310  1.0000
  O   O64       1.0  0.96960  0.58350  0.20310  1.0000
  O   O65       1.0  0.29690  0.03040  0.08350  1.0000
  O   O66       1.0  0.20310  0.96960  0.58350  1.0000
  O   O67       1.0  0.79690  0.46960  0.91650  1.0000
  O   O68       1.0  0.70310  0.53040  0.41650  1.0000
  O   O69       1.0  0.08350  0.29690  0.03040  1.0000
  O   O70       1.0  0.58350  0.20310  0.96960  1.0000
  O   O71       1.0  0.91650  0.79690  0.46960  1.0000
  O   O72       1.0  0.41650  0.70310  0.53040  1.0000
  C   C1        1.0  0.17640  0.96880  0.26240  1.0000
  C   C2        1.0  0.32360  0.03120  0.76240  1.0000
  C   C3        1.0  0.67640  0.53120  0.73760  1.0000
  C   C4        1.0  0.82360  0.46880  0.23760  1.0000
  C   C5        1.0  0.26240  0.17640  0.96880  1.0000
  C   C6        1.0  0.23760  0.82360  0.46880  1.0000
  C   C7        1.0  0.76240  0.32360  0.03120  1.0000
  C   C8        1.0  0.73760  0.67640  0.53120  1.0000
  C   C9        1.0  0.96880  0.26240  0.17640  1.0000
  C   C10       1.0  0.46880  0.23760  0.82360  1.0000
  C   C11       1.0  0.03120  0.76240  0.32360  1.0000
  C   C12       1.0  0.53120  0.73760  0.67640  1.0000
  C   C13       1.0  0.10420  0.99110  0.23540  1.0000
  C   C14       1.0  0.39580  0.00890  0.73540  1.0000
  C   C15       1.0  0.60420  0.50890  0.76460  1.0000
  C   C16       1.0  0.89580  0.49110  0.26460  1.0000
  C   C17       1.0  0.23540  0.10420  0.99110  1.0000
  C   C18       1.0  0.26460  0.89580  0.49110  1.0000
  C   C19       1.0  0.73540  0.39580  0.00890  1.0000
  C   C20       1.0  0.76460  0.60420  0.50890  1.0000
  C   C21       1.0  0.99110  0.23540  0.10420  1.0000
  C   C22       1.0  0.49110  0.26460  0.89580  1.0000
  C   C23       1.0  0.00890  0.73540  0.39580  1.0000
  C   C24       1.0  0.50890  0.76460  0.60420  1.0000
  C   C25       1.0  0.05210  0.01430  0.29350  1.0000
  C   C26       1.0  0.44790  0.98570  0.79350  1.0000
  C   C27       1.0  0.55210  0.48570  0.70650  1.0000
  C   C28       1.0  0.94790  0.51430  0.20650  1.0000
  C   C29       1.0  0.29350  0.05210  0.01430  1.0000
  C   C30       1.0  0.20650  0.94790  0.51430  1.0000
  C   C31       1.0  0.79350  0.44790  0.98570  1.0000
  C   C32       1.0  0.70650  0.55210  0.48570  1.0000
  C   C33       1.0  0.01430  0.29350  0.05210  1.0000
  C   C34       1.0  0.51430  0.20650  0.94790  1.0000
  C   C35       1.0  0.98570  0.79350  0.44790  1.0000
  C   C36       1.0  0.48570  0.70650  0.55210  1.0000
