data_image0
_chemical_formula_structural       O4Eu4S4O20C4N4C4H4C4N4H4C8O8
_chemical_formula_sum              "O32 Eu4 S4 C20 N8 H8"
_cell_length_a       6.5432
_cell_length_b       13.3204
_cell_length_c       12.6867
_cell_angle_alpha    90
_cell_angle_beta     101.694
_cell_angle_gamma    90

_space_group_name_H-M_alt    "P 1"
_space_group_IT_number       1

loop_
  _space_group_symop_operation_xyz
  'x, y, z'

loop_
  _atom_site_type_symbol
  _atom_site_label
  _atom_site_symmetry_multiplicity
  _atom_site_fract_x
  _atom_site_fract_y
  _atom_site_fract_z
  _atom_site_occupancy
  O   O1        1.0  0.56190  0.41220  0.28710  1.0000
  O   O2        1.0  0.43810  0.91220  0.21290  1.0000
  O   O3        1.0  0.43810  0.58780  0.71290  1.0000
  O   O4        1.0  0.56190  0.08780  0.78710  1.0000
  Eu  Eu1       1.0  0.59874  0.23993  0.26300  1.0000
  Eu  Eu2       1.0  0.40126  0.73993  0.23700  1.0000
  Eu  Eu3       1.0  0.40126  0.76007  0.73700  1.0000
  Eu  Eu4       1.0  0.59874  0.26007  0.76300  1.0000
  S   S1        1.0  0.58640  0.25022  0.00841  1.0000
  S   S2        1.0  0.41360  0.75022  0.49159  1.0000
  S   S3        1.0  0.41360  0.74978  0.99159  1.0000
  S   S4        1.0  0.58640  0.24978  0.50841  1.0000
  O   O5        1.0  0.59230  0.34170  0.07370  1.0000
  O   O6        1.0  0.40770  0.84170  0.42630  1.0000
  O   O7        1.0  0.40770  0.65830  0.92630  1.0000
  O   O8        1.0  0.59230  0.15830  0.57370  1.0000
  O   O9        1.0  0.56770  0.16550  0.08200  1.0000
  O   O10       1.0  0.43230  0.66550  0.41800  1.0000
  O   O11       1.0  0.43230  0.83450  0.91800  1.0000
  O   O12       1.0  0.56770  0.33450  0.58200  1.0000
  O   O13       1.0  0.41030  0.25300  0.91550  1.0000
  O   O14       1.0  0.58970  0.75300  0.58450  1.0000
  O   O15       1.0  0.58970  0.74700  0.08450  1.0000
  O   O16       1.0  0.41030  0.24700  0.41550  1.0000
  O   O17       1.0  0.77680  0.23640  0.96210  1.0000
  O   O18       1.0  0.22320  0.73640  0.53790  1.0000
  O   O19       1.0  0.22320  0.76360  0.03790  1.0000
  O   O20       1.0  0.77680  0.26360  0.46210  1.0000
  O   O21       1.0  0.57360  0.57540  0.25260  1.0000
  O   O22       1.0  0.42640  0.07540  0.24740  1.0000
  O   O23       1.0  0.42640  0.42460  0.74740  1.0000
  O   O24       1.0  0.57360  0.92460  0.75260  1.0000
  C   C1        1.0  0.47860  0.49290  0.24700  1.0000
  C   C2        1.0  0.52140  0.99290  0.25300  1.0000
  C   C3        1.0  0.52140  0.50710  0.75300  1.0000
  C   C4        1.0  0.47860  0.00710  0.74700  1.0000
  N   N1        1.0  0.17090  0.58900  0.16530  1.0000
  N   N2        1.0  0.82910  0.08900  0.33470  1.0000
  N   N3        1.0  0.82910  0.41100  0.83470  1.0000
  N   N4        1.0  0.17090  0.91100  0.66530  1.0000
  C   C5        1.0  0.96940  0.57360  0.12540  1.0000
  C   C6        1.0  0.03060  0.07360  0.37460  1.0000
  C   C7        1.0  0.03060  0.42640  0.87460  1.0000
  C   C8        1.0  0.96940  0.92640  0.62540  1.0000
  H   H1        1.0  0.87480  0.62360  0.09710  1.0000
  H   H2        1.0  0.12520  0.12360  0.40290  1.0000
  H   H3        1.0  0.12520  0.37640  0.90290  1.0000
  H   H4        1.0  0.87480  0.87640  0.59710  1.0000
  C   C9        1.0  0.25480  0.49500  0.19390  1.0000
  C   C10       1.0  0.74520  0.99500  0.30610  1.0000
  C   C11       1.0  0.74520  0.50500  0.80610  1.0000
  C   C12       1.0  0.25480  0.00500  0.69390  1.0000
  N   N5        1.0  0.92090  0.47570  0.13130  1.0000
  N   N6        1.0  0.07910  0.97570  0.36870  1.0000
  N   N7        1.0  0.07910  0.52430  0.86870  1.0000
  N   N8        1.0  0.92090  0.02430  0.63130  1.0000
  H   H5        1.0  0.79850  0.45010  0.11140  1.0000
  H   H6        1.0  0.20150  0.95010  0.38860  1.0000
  H   H7        1.0  0.20150  0.54990  0.88860  1.0000
  H   H8        1.0  0.79850  0.04990  0.61140  1.0000
  C   C13       1.0  0.09930  0.42380  0.17430  1.0000
  C   C14       1.0  0.90070  0.92380  0.32570  1.0000
  C   C15       1.0  0.90070  0.57620  0.82570  1.0000
  C   C16       1.0  0.09930  0.07620  0.67430  1.0000
  C   C17       1.0  0.09150  0.31420  0.20060  1.0000
  C   C18       1.0  0.90850  0.81420  0.29940  1.0000
  C   C19       1.0  0.90850  0.68580  0.79940  1.0000
  C   C20       1.0  0.09150  0.18580  0.70060  1.0000
  O   O25       1.0  0.24120  0.26110  0.18660  1.0000
  O   O26       1.0  0.75880  0.76110  0.31340  1.0000
  O   O27       1.0  0.75880  0.73890  0.81340  1.0000
  O   O28       1.0  0.24120  0.23890  0.68660  1.0000
  O   O29       1.0  0.93820  0.28450  0.23740  1.0000
  O   O30       1.0  0.06180  0.78450  0.26260  1.0000
  O   O31       1.0  0.06180  0.71550  0.76260  1.0000
  O   O32       1.0  0.93820  0.21550  0.73740  1.0000
