data_image0
_chemical_formula_structural       O4Sm4S4O20C4N4C4H4C4N4H4C8O8
_chemical_formula_sum              "O32 Sm4 S4 C20 N8 H8"
_cell_length_a       6.555
_cell_length_b       13.3453
_cell_length_c       12.6525
_cell_angle_alpha    90
_cell_angle_beta     101.999
_cell_angle_gamma    90

_space_group_name_H-M_alt    "P 1"
_space_group_IT_number       1

loop_
  _space_group_symop_operation_xyz
  'x, y, z'

loop_
  _atom_site_type_symbol
  _atom_site_label
  _atom_site_symmetry_multiplicity
  _atom_site_fract_x
  _atom_site_fract_y
  _atom_site_fract_z
  _atom_site_occupancy
  O   O1        1.0  0.56020  0.41300  0.28910  1.0000
  O   O2        1.0  0.43980  0.91300  0.21090  1.0000
  O   O3        1.0  0.43980  0.58700  0.71090  1.0000
  O   O4        1.0  0.56020  0.08700  0.78910  1.0000
  Sm  Sm1       1.0  0.60009  0.24024  0.26389  1.0000
  Sm  Sm2       1.0  0.39991  0.74024  0.23611  1.0000
  Sm  Sm3       1.0  0.39991  0.75976  0.73611  1.0000
  Sm  Sm4       1.0  0.60009  0.25976  0.76389  1.0000
  S   S1        1.0  0.58674  0.24837  0.01017  1.0000
  S   S2        1.0  0.41326  0.74837  0.48983  1.0000
  S   S3        1.0  0.41326  0.75163  0.98983  1.0000
  S   S4        1.0  0.58674  0.25163  0.51017  1.0000
  O   O5        1.0  0.59300  0.33870  0.07720  1.0000
  O   O6        1.0  0.40700  0.83870  0.42280  1.0000
  O   O7        1.0  0.40700  0.66130  0.92280  1.0000
  O   O8        1.0  0.59300  0.16130  0.57720  1.0000
  O   O9        1.0  0.56900  0.16280  0.08220  1.0000
  O   O10       1.0  0.43100  0.66280  0.41780  1.0000
  O   O11       1.0  0.43100  0.83720  0.91780  1.0000
  O   O12       1.0  0.56900  0.33720  0.58220  1.0000
  O   O13       1.0  0.41090  0.25240  0.91660  1.0000
  O   O14       1.0  0.58910  0.75240  0.58340  1.0000
  O   O15       1.0  0.58910  0.74760  0.08340  1.0000
  O   O16       1.0  0.41090  0.24760  0.41660  1.0000
  O   O17       1.0  0.77730  0.23620  0.96430  1.0000
  O   O18       1.0  0.22270  0.73620  0.53570  1.0000
  O   O19       1.0  0.22270  0.76380  0.03570  1.0000
  O   O20       1.0  0.77730  0.26380  0.46430  1.0000
  O   O21       1.0  0.57340  0.57550  0.25120  1.0000
  O   O22       1.0  0.42660  0.07550  0.24880  1.0000
  O   O23       1.0  0.42660  0.42450  0.74880  1.0000
  O   O24       1.0  0.57340  0.92450  0.75120  1.0000
  C   C1        1.0  0.47680  0.49200  0.24690  1.0000
  C   C2        1.0  0.52320  0.99200  0.25310  1.0000
  C   C3        1.0  0.52320  0.50800  0.75310  1.0000
  C   C4        1.0  0.47680  0.00800  0.74690  1.0000
  N   N1        1.0  0.17000  0.58840  0.16330  1.0000
  N   N2        1.0  0.83000  0.08840  0.33670  1.0000
  N   N3        1.0  0.83000  0.41160  0.83670  1.0000
  N   N4        1.0  0.17000  0.91160  0.66330  1.0000
  C   C5        1.0  0.96630  0.57310  0.12430  1.0000
  C   C6        1.0  0.03370  0.07310  0.37570  1.0000
  C   C7        1.0  0.03370  0.42690  0.87570  1.0000
  C   C8        1.0  0.96630  0.92690  0.62430  1.0000
  H   H1        1.0  0.86880  0.62380  0.09560  1.0000
  H   H2        1.0  0.13120  0.12380  0.40440  1.0000
  H   H3        1.0  0.13120  0.37620  0.90440  1.0000
  H   H4        1.0  0.86880  0.87620  0.59560  1.0000
  C   C9        1.0  0.25380  0.49530  0.19350  1.0000
  C   C10       1.0  0.74620  0.99530  0.30650  1.0000
  C   C11       1.0  0.74620  0.50470  0.80650  1.0000
  C   C12       1.0  0.25380  0.00470  0.69350  1.0000
  N   N5        1.0  0.91950  0.47520  0.13150  1.0000
  N   N6        1.0  0.08050  0.97520  0.36850  1.0000
  N   N7        1.0  0.08050  0.52480  0.86850  1.0000
  N   N8        1.0  0.91950  0.02480  0.63150  1.0000
  H   H5        1.0  0.79460  0.44860  0.11160  1.0000
  H   H6        1.0  0.20540  0.94860  0.38840  1.0000
  H   H7        1.0  0.20540  0.55140  0.88840  1.0000
  H   H8        1.0  0.79460  0.05140  0.61160  1.0000
  C   C13       1.0  0.09880  0.42380  0.17500  1.0000
  C   C14       1.0  0.90120  0.92380  0.32500  1.0000
  C   C15       1.0  0.90120  0.57620  0.82500  1.0000
  C   C16       1.0  0.09880  0.07620  0.67500  1.0000
  C   C17       1.0  0.09280  0.31400  0.20210  1.0000
  C   C18       1.0  0.90720  0.81400  0.29790  1.0000
  C   C19       1.0  0.90720  0.68600  0.79790  1.0000
  C   C20       1.0  0.09280  0.18600  0.70210  1.0000
  O   O25       1.0  0.24080  0.26040  0.18630  1.0000
  O   O26       1.0  0.75920  0.76040  0.31370  1.0000
  O   O27       1.0  0.75920  0.73960  0.81370  1.0000
  O   O28       1.0  0.24080  0.23960  0.68630  1.0000
  O   O29       1.0  0.94210  0.28420  0.24020  1.0000
  O   O30       1.0  0.05790  0.78420  0.25980  1.0000
  O   O31       1.0  0.05790  0.71580  0.75980  1.0000
  O   O32       1.0  0.94210  0.21580  0.74020  1.0000
