data_image0
_chemical_formula_structural       Co6Mn6O72C36
_chemical_formula_sum              "Co6 Mn6 O72 C36"
_cell_length_a       9.242
_cell_length_b       9.242
_cell_length_c       54.524
_cell_angle_alpha    90
_cell_angle_beta     90
_cell_angle_gamma    120

_space_group_name_H-M_alt    "P 1"
_space_group_IT_number       1

loop_
  _space_group_symop_operation_xyz
  'x, y, z'

loop_
  _atom_site_type_symbol
  _atom_site_label
  _atom_site_symmetry_multiplicity
  _atom_site_fract_x
  _atom_site_fract_y
  _atom_site_fract_z
  _atom_site_occupancy
  Co  Co1       1.0  0.00000  0.00000  0.00020  1.0000
  Co  Co2       1.0  0.00000  0.00000  0.50020  1.0000
  Co  Co3       1.0  0.33333  0.66667  0.66687  1.0000
  Co  Co4       1.0  0.33333  0.66667  0.16687  1.0000
  Co  Co5       1.0  0.66667  0.33333  0.33353  1.0000
  Co  Co6       1.0  0.66667  0.33333  0.83353  1.0000
  Mn  Mn1       1.0  0.33330  0.66670  0.99960  1.0000
  Mn  Mn2       1.0  0.33330  0.66670  0.49960  1.0000
  Mn  Mn3       1.0  0.66663  0.33337  0.66627  1.0000
  Mn  Mn4       1.0  0.66663  0.33337  0.16627  1.0000
  Mn  Mn5       1.0  0.99997  0.00003  0.33293  1.0000
  Mn  Mn6       1.0  0.99997  0.00003  0.83293  1.0000
  O   O1        1.0  0.99730  0.17390  0.01790  1.0000
  O   O2        1.0  0.82610  0.82340  0.01790  1.0000
  O   O3        1.0  0.82610  0.00270  0.51790  1.0000
  O   O4        1.0  0.17660  0.00270  0.01790  1.0000
  O   O5        1.0  0.99730  0.82340  0.51790  1.0000
  O   O6        1.0  0.17660  0.17390  0.51790  1.0000
  O   O7        1.0  0.33063  0.84057  0.68457  1.0000
  O   O8        1.0  0.15943  0.49007  0.68457  1.0000
  O   O9        1.0  0.15943  0.66937  0.18457  1.0000
  O   O10       1.0  0.50993  0.66937  0.68457  1.0000
  O   O11       1.0  0.33063  0.49007  0.18457  1.0000
  O   O12       1.0  0.50993  0.84057  0.18457  1.0000
  O   O13       1.0  0.66397  0.50723  0.35123  1.0000
  O   O14       1.0  0.49277  0.15673  0.35123  1.0000
  O   O15       1.0  0.49277  0.33603  0.85123  1.0000
  O   O16       1.0  0.84327  0.33603  0.35123  1.0000
  O   O17       1.0  0.66397  0.15673  0.85123  1.0000
  O   O18       1.0  0.84327  0.50723  0.85123  1.0000
  O   O19       1.0  0.15250  0.17340  0.98100  1.0000
  O   O20       1.0  0.82660  0.97910  0.98100  1.0000
  O   O21       1.0  0.82660  0.84750  0.48100  1.0000
  O   O22       1.0  0.02090  0.84750  0.98100  1.0000
  O   O23       1.0  0.15250  0.97910  0.48100  1.0000
  O   O24       1.0  0.02090  0.17340  0.48100  1.0000
  O   O25       1.0  0.48583  0.84007  0.64767  1.0000
  O   O26       1.0  0.15993  0.64577  0.64767  1.0000
  O   O27       1.0  0.15993  0.51417  0.14767  1.0000
  O   O28       1.0  0.35423  0.51417  0.64767  1.0000
  O   O29       1.0  0.48583  0.64577  0.14767  1.0000
  O   O30       1.0  0.35423  0.84007  0.14767  1.0000
  O   O31       1.0  0.81917  0.50673  0.31433  1.0000
  O   O32       1.0  0.49327  0.31243  0.31433  1.0000
  O   O33       1.0  0.49327  0.18083  0.81433  1.0000
  O   O34       1.0  0.68757  0.18083  0.31433  1.0000
  O   O35       1.0  0.81917  0.31243  0.81433  1.0000
  O   O36       1.0  0.68757  0.50673  0.81433  1.0000
  O   O37       1.0  0.13030  0.44470  0.01860  1.0000
  O   O38       1.0  0.55530  0.68560  0.01860  1.0000
  O   O39       1.0  0.55530  0.86970  0.51860  1.0000
  O   O40       1.0  0.31440  0.86970  0.01860  1.0000
  O   O41       1.0  0.13030  0.68560  0.51860  1.0000
  O   O42       1.0  0.31440  0.44470  0.51860  1.0000
  O   O43       1.0  0.46363  0.11137  0.68527  1.0000
  O   O44       1.0  0.88863  0.35227  0.68527  1.0000
  O   O45       1.0  0.88863  0.53637  0.18527  1.0000
  O   O46       1.0  0.64773  0.53637  0.68527  1.0000
  O   O47       1.0  0.46363  0.35227  0.18527  1.0000
  O   O48       1.0  0.64773  0.11137  0.18527  1.0000
  O   O49       1.0  0.79697  0.77803  0.35193  1.0000
  O   O50       1.0  0.22197  0.01893  0.35193  1.0000
  O   O51       1.0  0.22197  0.20303  0.85193  1.0000
  O   O52       1.0  0.98107  0.20303  0.35193  1.0000
  O   O53       1.0  0.79697  0.01893  0.85193  1.0000
  O   O54       1.0  0.98107  0.77803  0.85193  1.0000
  O   O55       1.0  0.29150  0.45260  0.97630  1.0000
  O   O56       1.0  0.54740  0.83890  0.97630  1.0000
  O   O57       1.0  0.54740  0.70850  0.47630  1.0000
  O   O58       1.0  0.16110  0.70850  0.97630  1.0000
  O   O59       1.0  0.29150  0.83890  0.47630  1.0000
  O   O60       1.0  0.16110  0.45260  0.47630  1.0000
  O   O61       1.0  0.62483  0.11927  0.64297  1.0000
  O   O62       1.0  0.88073  0.50557  0.64297  1.0000
  O   O63       1.0  0.88073  0.37517  0.14297  1.0000
  O   O64       1.0  0.49443  0.37517  0.64297  1.0000
  O   O65       1.0  0.62483  0.50557  0.14297  1.0000
  O   O66       1.0  0.49443  0.11927  0.14297  1.0000
  O   O67       1.0  0.95817  0.78593  0.30963  1.0000
  O   O68       1.0  0.21407  0.17223  0.30963  1.0000
  O   O69       1.0  0.21407  0.04183  0.80963  1.0000
  O   O70       1.0  0.82777  0.04183  0.30963  1.0000
  O   O71       1.0  0.95817  0.17223  0.80963  1.0000
  O   O72       1.0  0.82777  0.78593  0.80963  1.0000
  C   C1        1.0  0.12390  0.32260  0.01040  1.0000
  C   C2        1.0  0.67740  0.80130  0.01040  1.0000
  C   C3        1.0  0.67740  0.87610  0.51040  1.0000
  C   C4        1.0  0.19870  0.87610  0.01040  1.0000
  C   C5        1.0  0.12390  0.80130  0.51040  1.0000
  C   C6        1.0  0.19870  0.32260  0.51040  1.0000
  C   C7        1.0  0.45723  0.98927  0.67707  1.0000
  C   C8        1.0  0.01073  0.46797  0.67707  1.0000
  C   C9        1.0  0.01073  0.54277  0.17707  1.0000
  C   C10       1.0  0.53203  0.54277  0.67707  1.0000
  C   C11       1.0  0.45723  0.46797  0.17707  1.0000
  C   C12       1.0  0.53203  0.98927  0.17707  1.0000
  C   C13       1.0  0.79057  0.65593  0.34373  1.0000
  C   C14       1.0  0.34407  0.13463  0.34373  1.0000
  C   C15       1.0  0.34407  0.20943  0.84373  1.0000
  C   C16       1.0  0.86537  0.20943  0.34373  1.0000
  C   C17       1.0  0.79057  0.13463  0.84373  1.0000
  C   C18       1.0  0.86537  0.65593  0.84373  1.0000
  C   C19       1.0  0.20580  0.31130  0.98940  1.0000
  C   C20       1.0  0.68870  0.89450  0.98940  1.0000
  C   C21       1.0  0.68870  0.79420  0.48940  1.0000
  C   C22       1.0  0.10550  0.79420  0.98940  1.0000
  C   C23       1.0  0.20580  0.89450  0.48940  1.0000
  C   C24       1.0  0.10550  0.31130  0.48940  1.0000
  C   C25       1.0  0.53913  0.97797  0.65607  1.0000
  C   C26       1.0  0.02203  0.56117  0.65607  1.0000
  C   C27       1.0  0.02203  0.46087  0.15607  1.0000
  C   C28       1.0  0.43883  0.46087  0.65607  1.0000
  C   C29       1.0  0.53913  0.56117  0.15607  1.0000
  C   C30       1.0  0.43883  0.97797  0.15607  1.0000
  C   C31       1.0  0.87247  0.64463  0.32273  1.0000
  C   C32       1.0  0.35537  0.22783  0.32273  1.0000
  C   C33       1.0  0.35537  0.12753  0.82273  1.0000
  C   C34       1.0  0.77217  0.12753  0.32273  1.0000
  C   C35       1.0  0.87247  0.22783  0.82273  1.0000
  C   C36       1.0  0.77217  0.64463  0.82273  1.0000
