data_image0
_chemical_formula_structural       Yb12C8O8N8O8C8O24C40H8C8H8C8H8O8H16O40C8O8
_chemical_formula_sum              "Yb12 C80 O96 N8 H40"
_cell_length_a       18.991
_cell_length_b       20.708
_cell_length_c       9.7641
_cell_angle_alpha    90
_cell_angle_beta     111.275
_cell_angle_gamma    90

_space_group_name_H-M_alt    "P 1"
_space_group_IT_number       1

loop_
  _space_group_symop_operation_xyz
  'x, y, z'

loop_
  _atom_site_type_symbol
  _atom_site_label
  _atom_site_symmetry_multiplicity
  _atom_site_fract_x
  _atom_site_fract_y
  _atom_site_fract_z
  _atom_site_occupancy
  Yb  Yb1       1.0  0.21690  0.58598  0.15637  1.0000
  Yb  Yb2       1.0  0.78310  0.58598  0.34363  1.0000
  Yb  Yb3       1.0  0.71690  0.08597  0.15637  1.0000
  Yb  Yb4       1.0  0.28309  0.08597  0.34363  1.0000
  Yb  Yb5       1.0  0.78310  0.41403  0.84363  1.0000
  Yb  Yb6       1.0  0.21690  0.41403  0.65637  1.0000
  Yb  Yb7       1.0  0.28309  0.91402  0.84363  1.0000
  Yb  Yb8       1.0  0.71690  0.91402  0.65637  1.0000
  Yb  Yb9       1.0  0.50000  0.71873  0.25000  1.0000
  Yb  Yb10      1.0  0.00000  0.21873  0.25000  1.0000
  Yb  Yb11      1.0  0.50000  0.28127  0.75000  1.0000
  Yb  Yb12      1.0  0.00000  0.78127  0.75000  1.0000
  C   C1        1.0  0.26870  0.65430  0.47840  1.0000
  C   C2        1.0  0.73130  0.65430  0.02160  1.0000
  C   C3        1.0  0.76870  0.15430  0.47840  1.0000
  C   C4        1.0  0.23130  0.15430  0.02160  1.0000
  C   C5        1.0  0.73130  0.34570  0.52160  1.0000
  C   C6        1.0  0.26870  0.34570  0.97840  1.0000
  C   C7        1.0  0.23130  0.84570  0.52160  1.0000
  C   C8        1.0  0.76870  0.84570  0.97840  1.0000
  O   O1        1.0  0.21650  0.63430  0.36450  1.0000
  O   O2        1.0  0.78350  0.63430  0.13550  1.0000
  O   O3        1.0  0.71650  0.13430  0.36450  1.0000
  O   O4        1.0  0.28350  0.13430  0.13550  1.0000
  O   O5        1.0  0.78350  0.36570  0.63550  1.0000
  O   O6        1.0  0.21650  0.36570  0.86450  1.0000
  O   O7        1.0  0.28350  0.86570  0.63550  1.0000
  O   O8        1.0  0.71650  0.86570  0.86450  1.0000
  N   N1        1.0  0.25040  0.66370  0.60040  1.0000
  N   N2        1.0  0.74960  0.66370  0.89960  1.0000
  N   N3        1.0  0.75040  0.16370  0.60040  1.0000
  N   N4        1.0  0.24960  0.16370  0.89960  1.0000
  N   N5        1.0  0.74960  0.33630  0.39960  1.0000
  N   N6        1.0  0.25040  0.33630  0.10040  1.0000
  N   N7        1.0  0.24960  0.83630  0.39960  1.0000
  N   N8        1.0  0.75040  0.83630  0.10040  1.0000
  O   O9        1.0  0.14220  0.52860  0.94610  1.0000
  O   O10       1.0  0.85780  0.52860  0.55390  1.0000
  O   O11       1.0  0.64220  0.02860  0.94610  1.0000
  O   O12       1.0  0.35780  0.02860  0.55390  1.0000
  O   O13       1.0  0.85780  0.47140  0.05390  1.0000
  O   O14       1.0  0.14220  0.47140  0.44610  1.0000
  O   O15       1.0  0.35780  0.97140  0.05390  1.0000
  O   O16       1.0  0.64220  0.97140  0.44610  1.0000
  C   C9        1.0  0.17250  0.50710  0.86220  1.0000
  C   C10       1.0  0.82750  0.50710  0.63780  1.0000
  C   C11       1.0  0.67250  0.00710  0.86220  1.0000
  C   C12       1.0  0.32750  0.00710  0.63780  1.0000
  C   C13       1.0  0.82750  0.49290  0.13780  1.0000
  C   C14       1.0  0.17250  0.49290  0.36220  1.0000
  C   C15       1.0  0.32750  0.99290  0.13780  1.0000
  C   C16       1.0  0.67250  0.99290  0.36220  1.0000
  O   O17       1.0  0.32760  0.63760  0.24830  1.0000
  O   O18       1.0  0.67240  0.63760  0.25170  1.0000
  O   O19       1.0  0.82760  0.13760  0.24830  1.0000
  O   O20       1.0  0.17240  0.13760  0.25170  1.0000
  O   O21       1.0  0.67240  0.36240  0.75170  1.0000
  O   O22       1.0  0.32760  0.36240  0.74830  1.0000
  O   O23       1.0  0.17240  0.86240  0.75170  1.0000
  O   O24       1.0  0.82760  0.86240  0.74830  1.0000
  O   O25       1.0  0.38020  0.77070  0.18710  1.0000
  O   O26       1.0  0.61980  0.77070  0.31290  1.0000
  O   O27       1.0  0.88020  0.27070  0.18710  1.0000
  O   O28       1.0  0.11980  0.27070  0.31290  1.0000
  O   O29       1.0  0.61980  0.22930  0.81290  1.0000
  O   O30       1.0  0.38020  0.22930  0.68710  1.0000
  O   O31       1.0  0.11980  0.72930  0.81290  1.0000
  O   O32       1.0  0.88020  0.72930  0.68710  1.0000
  O   O33       1.0  0.43900  0.67600  0.39220  1.0000
  O   O34       1.0  0.56100  0.67600  0.10780  1.0000
  O   O35       1.0  0.93900  0.17600  0.39220  1.0000
  O   O36       1.0  0.06100  0.17600  0.10780  1.0000
  O   O37       1.0  0.56100  0.32400  0.60780  1.0000
  O   O38       1.0  0.43900  0.32400  0.89220  1.0000
  O   O39       1.0  0.06100  0.82400  0.60780  1.0000
  O   O40       1.0  0.93900  0.82400  0.89220  1.0000
  C   C17       1.0  0.37210  0.65990  0.37010  1.0000
  C   C18       1.0  0.62790  0.65990  0.12990  1.0000
  C   C19       1.0  0.87210  0.15990  0.37010  1.0000
  C   C20       1.0  0.12790  0.15990  0.12990  1.0000
  C   C21       1.0  0.62790  0.34010  0.62990  1.0000
  C   C22       1.0  0.37210  0.34010  0.87010  1.0000
  C   C23       1.0  0.12790  0.84010  0.62990  1.0000
  C   C24       1.0  0.87210  0.84010  0.87010  1.0000
  C   C25       1.0  0.25850  0.51280  0.91420  1.0000
  C   C26       1.0  0.74150  0.51280  0.58580  1.0000
  C   C27       1.0  0.75850  0.01280  0.91420  1.0000
  C   C28       1.0  0.24150  0.01280  0.58580  1.0000
  C   C29       1.0  0.74150  0.48720  0.08580  1.0000
  C   C30       1.0  0.25850  0.48720  0.41420  1.0000
  C   C31       1.0  0.24150  0.98720  0.08580  1.0000
  C   C32       1.0  0.75850  0.98720  0.41420  1.0000
  C   C33       1.0  0.35950  0.80920  0.08370  1.0000
  C   C34       1.0  0.64050  0.80920  0.41630  1.0000
  C   C35       1.0  0.85950  0.30920  0.08370  1.0000
  C   C36       1.0  0.14050  0.30920  0.41630  1.0000
  C   C37       1.0  0.64050  0.19080  0.91630  1.0000
  C   C38       1.0  0.35950  0.19080  0.58370  1.0000
  C   C39       1.0  0.14050  0.69080  0.91630  1.0000
  C   C40       1.0  0.85950  0.69080  0.58370  1.0000
  C   C41       1.0  0.34480  0.66860  0.49480  1.0000
  C   C42       1.0  0.65520  0.66860  0.00520  1.0000
  C   C43       1.0  0.84480  0.16860  0.49480  1.0000
  C   C44       1.0  0.15520  0.16860  0.00520  1.0000
  C   C45       1.0  0.65520  0.33140  0.50520  1.0000
  C   C46       1.0  0.34480  0.33140  0.99480  1.0000
  C   C47       1.0  0.15520  0.83140  0.50520  1.0000
  C   C48       1.0  0.84480  0.83140  0.99480  1.0000
  C   C49       1.0  0.39310  0.69200  0.62480  1.0000
  C   C50       1.0  0.60690  0.69200  0.87520  1.0000
  C   C51       1.0  0.89310  0.19200  0.62480  1.0000
  C   C52       1.0  0.10690  0.19200  0.87520  1.0000
  C   C53       1.0  0.60690  0.30800  0.37520  1.0000
  C   C54       1.0  0.39310  0.30800  0.12480  1.0000
  C   C55       1.0  0.10690  0.80800  0.37520  1.0000
  C   C56       1.0  0.89310  0.80800  0.12480  1.0000
  H   H1        1.0  0.44210  0.70310  0.63360  1.0000
  H   H2        1.0  0.55790  0.70310  0.86640  1.0000
  H   H3        1.0  0.94210  0.20310  0.63360  1.0000
  H   H4        1.0  0.05790  0.20310  0.86640  1.0000
  H   H5        1.0  0.55790  0.29690  0.36640  1.0000
  H   H6        1.0  0.44210  0.29690  0.13360  1.0000
  H   H7        1.0  0.05790  0.79690  0.36640  1.0000
  H   H8        1.0  0.94210  0.79690  0.13360  1.0000
  C   C57       1.0  0.30010  0.68540  0.73060  1.0000
  C   C58       1.0  0.69990  0.68540  0.76940  1.0000
  C   C59       1.0  0.80010  0.18540  0.73060  1.0000
  C   C60       1.0  0.19990  0.18540  0.76940  1.0000
  C   C61       1.0  0.69990  0.31460  0.26940  1.0000
  C   C62       1.0  0.30010  0.31460  0.23060  1.0000
  C   C63       1.0  0.19990  0.81460  0.26940  1.0000
  C   C64       1.0  0.80010  0.81460  0.23060  1.0000
  H   H9        1.0  0.28450  0.69020  0.81000  1.0000
  H   H10       1.0  0.71550  0.69020  0.69000  1.0000
  H   H11       1.0  0.78450  0.19020  0.81000  1.0000
  H   H12       1.0  0.21550  0.19020  0.69000  1.0000
  H   H13       1.0  0.71550  0.30980  0.19000  1.0000
  H   H14       1.0  0.28450  0.30980  0.31000  1.0000
  H   H15       1.0  0.21550  0.80980  0.19000  1.0000
  H   H16       1.0  0.78450  0.80980  0.31000  1.0000
  C   C65       1.0  0.37080  0.69980  0.74670  1.0000
  C   C66       1.0  0.62920  0.69980  0.75330  1.0000
  C   C67       1.0  0.87080  0.19980  0.74670  1.0000
  C   C68       1.0  0.12920  0.19980  0.75330  1.0000
  C   C69       1.0  0.62920  0.30020  0.25330  1.0000
  C   C70       1.0  0.37080  0.30020  0.24670  1.0000
  C   C71       1.0  0.12920  0.80020  0.25330  1.0000
  C   C72       1.0  0.87080  0.80020  0.24670  1.0000
  H   H17       1.0  0.40470  0.71480  0.83610  1.0000
  H   H18       1.0  0.59530  0.71480  0.66390  1.0000
  H   H19       1.0  0.90470  0.21480  0.83610  1.0000
  H   H20       1.0  0.09530  0.21480  0.66390  1.0000
  H   H21       1.0  0.59530  0.28520  0.16390  1.0000
  H   H22       1.0  0.40470  0.28520  0.33610  1.0000
  H   H23       1.0  0.09530  0.78520  0.16390  1.0000
  H   H24       1.0  0.90470  0.78520  0.33610  1.0000
  O   O41       1.0  0.41860  0.64760  0.08790  1.0000
  O   O42       1.0  0.58140  0.64760  0.41210  1.0000
  O   O43       1.0  0.91860  0.14760  0.08790  1.0000
  O   O44       1.0  0.08140  0.14760  0.41210  1.0000
  O   O45       1.0  0.58140  0.35240  0.91210  1.0000
  O   O46       1.0  0.41860  0.35240  0.58790  1.0000
  O   O47       1.0  0.08140  0.85240  0.91210  1.0000
  O   O48       1.0  0.91860  0.85240  0.58790  1.0000
  H   H25       1.0  0.44800  0.61600  0.12700  1.0000
  H   H26       1.0  0.55200  0.61600  0.37300  1.0000
  H   H27       1.0  0.94800  0.11600  0.12700  1.0000
  H   H28       1.0  0.05200  0.11600  0.37300  1.0000
  H   H29       1.0  0.55200  0.38400  0.87300  1.0000
  H   H30       1.0  0.44800  0.38400  0.62700  1.0000
  H   H31       1.0  0.05200  0.88400  0.87300  1.0000
  H   H32       1.0  0.94800  0.88400  0.62700  1.0000
  H   H33       1.0  0.37800  0.63900  0.10300  1.0000
  H   H34       1.0  0.62200  0.63900  0.39700  1.0000
  H   H35       1.0  0.87800  0.13900  0.10300  1.0000
  H   H36       1.0  0.12200  0.13900  0.39700  1.0000
  H   H37       1.0  0.62200  0.36100  0.89700  1.0000
  H   H38       1.0  0.37800  0.36100  0.60300  1.0000
  H   H39       1.0  0.12200  0.86100  0.89700  1.0000
  H   H40       1.0  0.87800  0.86100  0.60300  1.0000
  O   O49       1.0  0.29070  0.54020  0.03600  1.0000
  O   O50       1.0  0.70930  0.54020  0.46400  1.0000
  O   O51       1.0  0.79070  0.04020  0.03600  1.0000
  O   O52       1.0  0.20930  0.04020  0.46400  1.0000
  O   O53       1.0  0.70930  0.45980  0.96400  1.0000
  O   O54       1.0  0.29070  0.45980  0.53600  1.0000
  O   O55       1.0  0.20930  0.95980  0.96400  1.0000
  O   O56       1.0  0.79070  0.95980  0.53600  1.0000
  O   O57       1.0  0.29700  0.83660  0.02610  1.0000
  O   O58       1.0  0.70300  0.83660  0.47390  1.0000
  O   O59       1.0  0.79700  0.33660  0.02610  1.0000
  O   O60       1.0  0.20300  0.33660  0.47390  1.0000
  O   O61       1.0  0.70300  0.16340  0.97390  1.0000
  O   O62       1.0  0.29700  0.16340  0.52610  1.0000
  O   O63       1.0  0.20300  0.66340  0.97390  1.0000
  O   O64       1.0  0.79700  0.66340  0.52610  1.0000
  O   O65       1.0  0.14020  0.48050  0.74020  1.0000
  O   O66       1.0  0.85980  0.48050  0.75980  1.0000
  O   O67       1.0  0.64020  0.98050  0.74020  1.0000
  O   O68       1.0  0.35980  0.98050  0.75980  1.0000
  O   O69       1.0  0.85980  0.51950  0.25980  1.0000
  O   O70       1.0  0.14020  0.51950  0.24020  1.0000
  O   O71       1.0  0.35980  0.01950  0.25980  1.0000
  O   O72       1.0  0.64020  0.01950  0.24020  1.0000
  O   O73       1.0  0.29000  0.48950  0.83280  1.0000
  O   O74       1.0  0.71000  0.48950  0.66720  1.0000
  O   O75       1.0  0.79000  0.98950  0.83280  1.0000
  O   O76       1.0  0.21000  0.98950  0.66720  1.0000
  O   O77       1.0  0.71000  0.51050  0.16720  1.0000
  O   O78       1.0  0.29000  0.51050  0.33280  1.0000
  O   O79       1.0  0.21000  0.01050  0.16720  1.0000
  O   O80       1.0  0.79000  0.01050  0.33280  1.0000
  O   O81       1.0  0.48160  0.79640  0.06810  1.0000
  O   O82       1.0  0.51840  0.79640  0.43190  1.0000
  O   O83       1.0  0.98160  0.29640  0.06810  1.0000
  O   O84       1.0  0.01840  0.29640  0.43190  1.0000
  O   O85       1.0  0.51840  0.20360  0.93190  1.0000
  O   O86       1.0  0.48160  0.20360  0.56810  1.0000
  O   O87       1.0  0.01840  0.70360  0.93190  1.0000
  O   O88       1.0  0.98160  0.70360  0.56810  1.0000
  C   C73       1.0  0.41890  0.82440  0.01400  1.0000
  C   C74       1.0  0.58110  0.82440  0.48600  1.0000
  C   C75       1.0  0.91890  0.32440  0.01400  1.0000
  C   C76       1.0  0.08110  0.32440  0.48600  1.0000
  C   C77       1.0  0.58110  0.17560  0.98600  1.0000
  C   C78       1.0  0.41890  0.17560  0.51400  1.0000
  C   C79       1.0  0.08110  0.67560  0.98600  1.0000
  C   C80       1.0  0.91890  0.67560  0.51400  1.0000
  O   O89       1.0  0.40100  0.86460  0.91090  1.0000
  O   O90       1.0  0.59900  0.86460  0.58910  1.0000
  O   O91       1.0  0.90100  0.36460  0.91090  1.0000
  O   O92       1.0  0.09900  0.36460  0.58910  1.0000
  O   O93       1.0  0.59900  0.13540  0.08910  1.0000
  O   O94       1.0  0.40100  0.13540  0.41090  1.0000
  O   O95       1.0  0.09900  0.63540  0.08910  1.0000
  O   O96       1.0  0.90100  0.63540  0.41090  1.0000
