data_image0
_chemical_formula_structural       Mo4Na2O26H4O2H4C8O6H12
_chemical_formula_sum              "Mo4 Na2 O34 H20 C8"
_cell_length_a       8.6765
_cell_length_b       9.5675
_cell_length_c       11.8913
_cell_angle_alpha    100.703
_cell_angle_beta     100.708
_cell_angle_gamma    102.734

_space_group_name_H-M_alt    "P 1"
_space_group_IT_number       1

loop_
  _space_group_symop_operation_xyz
  'x, y, z'

loop_
  _atom_site_type_symbol
  _atom_site_label
  _atom_site_symmetry_multiplicity
  _atom_site_fract_x
  _atom_site_fract_y
  _atom_site_fract_z
  _atom_site_occupancy
  Mo  Mo1       1.0  0.63292  0.05469  0.73857  1.0000
  Mo  Mo2       1.0  0.36708  0.94531  0.26143  1.0000
  Mo  Mo3       1.0  0.35440  0.04696  0.78312  1.0000
  Mo  Mo4       1.0  0.64560  0.95304  0.21688  1.0000
  Na  Na1       1.0  0.82657  0.56890  0.46997  1.0000
  Na  Na2       1.0  0.17343  0.43110  0.53003  1.0000
  O   O1        1.0  0.42100  0.01310  0.63480  1.0000
  O   O2        1.0  0.57900  0.98690  0.36520  1.0000
  O   O3        1.0  0.59070  0.81240  0.69860  1.0000
  O   O4        1.0  0.40930  0.18760  0.30140  1.0000
  O   O5        1.0  0.11030  0.99440  0.68200  1.0000
  O   O6        1.0  0.88970  0.00560  0.31800  1.0000
  O   O7        1.0  0.55240  0.02930  0.87720  1.0000
  O   O8        1.0  0.44760  0.97070  0.12280  1.0000
  O   O9        1.0  0.84550  0.01190  0.82750  1.0000
  O   O10       1.0  0.15450  0.98810  0.17250  1.0000
  O   O11       1.0  0.96170  0.84240  0.88420  1.0000
  O   O12       1.0  0.03830  0.15760  0.11580  1.0000
  O   O13       1.0  0.67390  0.63250  0.76680  1.0000
  O   O14       1.0  0.32610  0.36750  0.23320  1.0000
  O   O15       1.0  0.26450  0.80720  0.74080  1.0000
  O   O16       1.0  0.73550  0.19280  0.25920  1.0000
  O   O17       1.0  0.88720  0.81540  0.58610  1.0000
  O   O18       1.0  0.11280  0.18460  0.41390  1.0000
  O   O19       1.0  0.06280  0.61430  0.63050  1.0000
  O   O20       1.0  0.93720  0.38570  0.36950  1.0000
  O   O21       1.0  0.71840  0.23670  0.76620  1.0000
  O   O22       1.0  0.28160  0.76330  0.23380  1.0000
  O   O23       1.0  0.36060  0.22760  0.81070  1.0000
  O   O24       1.0  0.63940  0.77240  0.18930  1.0000
  O   O25       1.0  0.72700  0.01480  0.58450  1.0000
  O   O26       1.0  0.27300  0.98520  0.41550  1.0000
  H   H1        1.0  0.78800  0.95700  0.57800  1.0000
  H   H2        1.0  0.21200  0.04300  0.42200  1.0000
  H   H3        1.0  0.66300  0.00500  0.51920  1.0000
  H   H4        1.0  0.33700  0.99500  0.48080  1.0000
  O   O27       1.0  0.26070  0.01790  0.93300  1.0000
  O   O28       1.0  0.73930  0.98210  0.06700  1.0000
  H   H5        1.0  0.32400  0.99700  0.98700  1.0000
  H   H6        1.0  0.67600  0.00300  0.01300  1.0000
  H   H7        1.0  0.16480  0.96500  0.92200  1.0000
  H   H8        1.0  0.83520  0.03500  0.07800  1.0000
  C   C1        1.0  0.03020  0.85990  0.64170  1.0000
  C   C2        1.0  0.96980  0.14010  0.35830  1.0000
  C   C3        1.0  0.12430  0.74710  0.67220  1.0000
  C   C4        1.0  0.87570  0.25290  0.32780  1.0000
  C   C5        1.0  0.84740  0.87950  0.83260  1.0000
  C   C6        1.0  0.15260  0.12050  0.16740  1.0000
  C   C7        1.0  0.68980  0.76100  0.76030  1.0000
  C   C8        1.0  0.31020  0.23900  0.23970  1.0000
  O   O29       1.0  0.65850  0.35500  0.51020  1.0000
  O   O30       1.0  0.34150  0.64500  0.48980  1.0000
  O   O31       1.0  0.04370  0.70280  0.38830  1.0000
  O   O32       1.0  0.95630  0.29720  0.61170  1.0000
  O   O33       1.0  0.58770  0.59530  0.35840  1.0000
  O   O34       1.0  0.41230  0.40470  0.64160  1.0000
  H   H9        1.0  0.59700  0.36400  0.55800  1.0000
  H   H10       1.0  0.40300  0.63600  0.44200  1.0000
  H   H11       1.0  0.60100  0.30600  0.44310  1.0000
  H   H12       1.0  0.39900  0.69400  0.55690  1.0000
  H   H13       1.0  0.06900  0.79410  0.39200  1.0000
  H   H14       1.0  0.93100  0.20590  0.60800  1.0000
  H   H15       1.0  0.12800  0.67400  0.40600  1.0000
  H   H16       1.0  0.87200  0.32600  0.59400  1.0000
  H   H17       1.0  0.60100  0.64700  0.31600  1.0000
  H   H18       1.0  0.39900  0.35300  0.68400  1.0000
  H   H19       1.0  0.50400  0.50900  0.31300  1.0000
  H   H20       1.0  0.49600  0.49100  0.68700  1.0000
