data_image0
_chemical_formula_structural       In12P8O16H8O16H8O40C16H8C8H8C16H8C8H8C24H8C8H8C16H8C8H8C24H8C8H8C16H8C8H8C8
_chemical_formula_sum              "In12 P8 O72 H112 C168"
_cell_length_a       28.825
_cell_length_b       11.472
_cell_length_c       18.905
_cell_angle_alpha    90
_cell_angle_beta     106.62
_cell_angle_gamma    90

_space_group_name_H-M_alt    "P 1"
_space_group_IT_number       1

loop_
  _space_group_symop_operation_xyz
  'x, y, z'

loop_
  _atom_site_type_symbol
  _atom_site_label
  _atom_site_symmetry_multiplicity
  _atom_site_fract_x
  _atom_site_fract_y
  _atom_site_fract_z
  _atom_site_occupancy
  In  In1       1.0  0.38859  0.15245  0.97929  1.0000
  In  In2       1.0  0.61141  0.15245  0.52071  1.0000
  In  In3       1.0  0.88859  0.65245  0.97929  1.0000
  In  In4       1.0  0.11141  0.65245  0.52071  1.0000
  In  In5       1.0  0.61141  0.84755  0.02071  1.0000
  In  In6       1.0  0.38859  0.84755  0.47929  1.0000
  In  In7       1.0  0.11141  0.34755  0.02071  1.0000
  In  In8       1.0  0.88859  0.34755  0.47929  1.0000
  In  In9       1.0  0.50000  0.00000  0.00000  1.0000
  In  In10      1.0  0.50000  0.00000  0.50000  1.0000
  In  In11      1.0  0.00000  0.50000  0.00000  1.0000
  In  In12      1.0  0.00000  0.50000  0.50000  1.0000
  P   P1        1.0  0.37275  0.34262  0.82562  1.0000
  P   P2        1.0  0.62725  0.34262  0.67438  1.0000
  P   P3        1.0  0.87275  0.84262  0.82562  1.0000
  P   P4        1.0  0.12725  0.84262  0.67438  1.0000
  P   P5        1.0  0.62725  0.65738  0.17438  1.0000
  P   P6        1.0  0.37275  0.65738  0.32562  1.0000
  P   P7        1.0  0.12725  0.15738  0.17438  1.0000
  P   P8        1.0  0.87275  0.15738  0.32562  1.0000
  O   O1        1.0  0.36609  0.27180  0.88830  1.0000
  O   O2        1.0  0.63391  0.27180  0.61170  1.0000
  O   O3        1.0  0.86609  0.77180  0.88830  1.0000
  O   O4        1.0  0.13391  0.77180  0.61170  1.0000
  O   O5        1.0  0.63391  0.72820  0.11170  1.0000
  O   O6        1.0  0.36609  0.72820  0.38830  1.0000
  O   O7        1.0  0.13391  0.22820  0.11170  1.0000
  O   O8        1.0  0.86609  0.22820  0.38830  1.0000
  O   O9        1.0  0.43576  0.06510  0.93090  1.0000
  O   O10       1.0  0.56424  0.06510  0.56910  1.0000
  O   O11       1.0  0.93576  0.56510  0.93090  1.0000
  O   O12       1.0  0.06424  0.56510  0.56910  1.0000
  O   O13       1.0  0.56424  0.93490  0.06910  1.0000
  O   O14       1.0  0.43576  0.93490  0.43090  1.0000
  O   O15       1.0  0.06424  0.43490  0.06910  1.0000
  O   O16       1.0  0.93576  0.43490  0.43090  1.0000
  H   H1        1.0  0.44400  0.11850  0.89650  1.0000
  H   H2        1.0  0.55600  0.11850  0.60350  1.0000
  H   H3        1.0  0.94400  0.61850  0.89650  1.0000
  H   H4        1.0  0.05600  0.61850  0.60350  1.0000
  H   H5        1.0  0.55600  0.88150  0.10350  1.0000
  H   H6        1.0  0.44400  0.88150  0.39650  1.0000
  H   H7        1.0  0.05600  0.38150  0.10350  1.0000
  H   H8        1.0  0.94400  0.38150  0.39650  1.0000
  O   O17       1.0  0.40560  0.96210  0.57520  1.0000
  O   O18       1.0  0.59440  0.96210  0.92480  1.0000
  O   O19       1.0  0.90560  0.46210  0.57520  1.0000
  O   O20       1.0  0.09440  0.46210  0.92480  1.0000
  O   O21       1.0  0.59440  0.03790  0.42480  1.0000
  O   O22       1.0  0.40560  0.03790  0.07520  1.0000
  O   O23       1.0  0.09440  0.53790  0.42480  1.0000
  O   O24       1.0  0.90560  0.53790  0.07520  1.0000
  O   O25       1.0  0.34420  0.24100  0.03270  1.0000
  O   O26       1.0  0.65580  0.24100  0.46730  1.0000
  O   O27       1.0  0.84420  0.74100  0.03270  1.0000
  O   O28       1.0  0.15580  0.74100  0.46730  1.0000
  O   O29       1.0  0.65580  0.75900  0.96730  1.0000
  O   O30       1.0  0.34420  0.75900  0.53270  1.0000
  O   O31       1.0  0.15580  0.25900  0.96730  1.0000
  O   O32       1.0  0.84420  0.25900  0.53270  1.0000
  H   H9        1.0  0.32280  0.19430  0.03900  1.0000
  H   H10       1.0  0.67720  0.19430  0.46100  1.0000
  H   H11       1.0  0.82280  0.69430  0.03900  1.0000
  H   H12       1.0  0.17720  0.69430  0.46100  1.0000
  H   H13       1.0  0.67720  0.80570  0.96100  1.0000
  H   H14       1.0  0.32280  0.80570  0.53900  1.0000
  H   H15       1.0  0.17720  0.30570  0.96100  1.0000
  H   H16       1.0  0.82280  0.30570  0.53900  1.0000
  O   O33       1.0  0.17192  0.54720  0.57810  1.0000
  O   O34       1.0  0.82808  0.54720  0.92190  1.0000
  O   O35       1.0  0.67192  0.04720  0.57810  1.0000
  O   O36       1.0  0.32808  0.04720  0.92190  1.0000
  O   O37       1.0  0.82808  0.45280  0.42190  1.0000
  O   O38       1.0  0.17192  0.45280  0.07810  1.0000
  O   O39       1.0  0.32808  0.95280  0.42190  1.0000
  O   O40       1.0  0.67192  0.95280  0.07810  1.0000
  O   O41       1.0  0.13796  0.42820  0.64230  1.0000
  O   O42       1.0  0.86204  0.42820  0.85770  1.0000
  O   O43       1.0  0.63796  0.92820  0.64230  1.0000
  O   O44       1.0  0.36204  0.92820  0.85770  1.0000
  O   O45       1.0  0.86204  0.57180  0.35770  1.0000
  O   O46       1.0  0.13796  0.57180  0.14230  1.0000
  O   O47       1.0  0.36204  0.07180  0.35770  1.0000
  O   O48       1.0  0.63796  0.07180  0.14230  1.0000
  O   O49       1.0  0.46183  0.09250  0.56740  1.0000
  O   O50       1.0  0.53817  0.09250  0.93260  1.0000
  O   O51       1.0  0.96183  0.59250  0.56740  1.0000
  O   O52       1.0  0.03817  0.59250  0.93260  1.0000
  O   O53       1.0  0.53817  0.90750  0.43260  1.0000
  O   O54       1.0  0.46183  0.90750  0.06740  1.0000
  O   O55       1.0  0.03817  0.40750  0.43260  1.0000
  O   O56       1.0  0.96183  0.40750  0.06740  1.0000
  O   O57       1.0  0.49118  0.84630  0.93190  1.0000
  O   O58       1.0  0.50882  0.84630  0.56810  1.0000
  O   O59       1.0  0.99118  0.34630  0.93190  1.0000
  O   O60       1.0  0.00882  0.34630  0.56810  1.0000
  O   O61       1.0  0.50882  0.15370  0.06810  1.0000
  O   O62       1.0  0.49118  0.15370  0.43190  1.0000
  O   O63       1.0  0.00882  0.65370  0.06810  1.0000
  O   O64       1.0  0.99118  0.65370  0.43190  1.0000
  O   O65       1.0  0.55356  0.72440  0.97080  1.0000
  O   O66       1.0  0.44644  0.72440  0.52920  1.0000
  O   O67       1.0  0.05356  0.22440  0.97080  1.0000
  O   O68       1.0  0.94644  0.22440  0.52920  1.0000
  O   O69       1.0  0.44644  0.27560  0.02920  1.0000
  O   O70       1.0  0.55356  0.27560  0.47080  1.0000
  O   O71       1.0  0.94644  0.77560  0.02920  1.0000
  O   O72       1.0  0.05356  0.77560  0.47080  1.0000
  C   C1        1.0  0.31470  0.39230  0.77120  1.0000
  C   C2        1.0  0.68530  0.39230  0.72880  1.0000
  C   C3        1.0  0.81470  0.89230  0.77120  1.0000
  C   C4        1.0  0.18530  0.89230  0.72880  1.0000
  C   C5        1.0  0.68530  0.60770  0.22880  1.0000
  C   C6        1.0  0.31470  0.60770  0.27120  1.0000
  C   C7        1.0  0.18530  0.10770  0.22880  1.0000
  C   C8        1.0  0.81470  0.10770  0.27120  1.0000
  C   C9        1.0  0.27380  0.34870  0.78690  1.0000
  C   C10       1.0  0.72620  0.34870  0.71310  1.0000
  C   C11       1.0  0.77380  0.84870  0.78690  1.0000
  C   C12       1.0  0.22620  0.84870  0.71310  1.0000
  C   C13       1.0  0.72620  0.65130  0.21310  1.0000
  C   C14       1.0  0.27380  0.65130  0.28690  1.0000
  C   C15       1.0  0.22620  0.15130  0.21310  1.0000
  C   C16       1.0  0.77380  0.15130  0.28690  1.0000
  H   H17       1.0  0.27680  0.30160  0.82800  1.0000
  H   H18       1.0  0.72320  0.30160  0.67200  1.0000
  H   H19       1.0  0.77680  0.80160  0.82800  1.0000
  H   H20       1.0  0.22320  0.80160  0.67200  1.0000
  H   H21       1.0  0.72320  0.69840  0.17200  1.0000
  H   H22       1.0  0.27680  0.69840  0.32800  1.0000
  H   H23       1.0  0.22320  0.19840  0.17200  1.0000
  H   H24       1.0  0.77680  0.19840  0.32800  1.0000
  C   C17       1.0  0.22770  0.37640  0.73980  1.0000
  C   C18       1.0  0.77230  0.37640  0.76020  1.0000
  C   C19       1.0  0.72770  0.87640  0.73980  1.0000
  C   C20       1.0  0.27230  0.87640  0.76020  1.0000
  C   C21       1.0  0.77230  0.62360  0.26020  1.0000
  C   C22       1.0  0.22770  0.62360  0.23980  1.0000
  C   C23       1.0  0.27230  0.12360  0.26020  1.0000
  C   C24       1.0  0.72770  0.12360  0.23980  1.0000
  H   H25       1.0  0.20020  0.34640  0.74970  1.0000
  H   H26       1.0  0.79980  0.34640  0.75030  1.0000
  H   H27       1.0  0.70020  0.84640  0.74970  1.0000
  H   H28       1.0  0.29980  0.84640  0.75030  1.0000
  H   H29       1.0  0.79980  0.65360  0.25030  1.0000
  H   H30       1.0  0.20020  0.65360  0.24970  1.0000
  H   H31       1.0  0.29980  0.15360  0.25030  1.0000
  H   H32       1.0  0.70020  0.15360  0.24970  1.0000
  C   C25       1.0  0.22280  0.44740  0.67920  1.0000
  C   C26       1.0  0.77720  0.44740  0.82080  1.0000
  C   C27       1.0  0.72280  0.94740  0.67920  1.0000
  C   C28       1.0  0.27720  0.94740  0.82080  1.0000
  C   C29       1.0  0.77720  0.55260  0.32080  1.0000
  C   C30       1.0  0.22280  0.55260  0.17920  1.0000
  C   C31       1.0  0.27720  0.05260  0.32080  1.0000
  C   C32       1.0  0.72280  0.05260  0.17920  1.0000
  C   C33       1.0  0.26380  0.49240  0.66480  1.0000
  C   C34       1.0  0.73620  0.49240  0.83520  1.0000
  C   C35       1.0  0.76380  0.99240  0.66480  1.0000
  C   C36       1.0  0.23620  0.99240  0.83520  1.0000
  C   C37       1.0  0.73620  0.50760  0.33520  1.0000
  C   C38       1.0  0.26380  0.50760  0.16480  1.0000
  C   C39       1.0  0.23620  0.00760  0.33520  1.0000
  C   C40       1.0  0.76380  0.00760  0.16480  1.0000
  H   H33       1.0  0.26060  0.54170  0.62460  1.0000
  H   H34       1.0  0.73940  0.54170  0.87540  1.0000
  H   H35       1.0  0.76060  0.04170  0.62460  1.0000
  H   H36       1.0  0.23940  0.04170  0.87540  1.0000
  H   H37       1.0  0.73940  0.45830  0.37540  1.0000
  H   H38       1.0  0.26060  0.45830  0.12460  1.0000
  H   H39       1.0  0.23940  0.95830  0.37540  1.0000
  H   H40       1.0  0.76060  0.95830  0.12460  1.0000
  C   C41       1.0  0.30970  0.46470  0.71000  1.0000
  C   C42       1.0  0.69030  0.46470  0.79000  1.0000
  C   C43       1.0  0.80970  0.96470  0.71000  1.0000
  C   C44       1.0  0.19030  0.96470  0.79000  1.0000
  C   C45       1.0  0.69030  0.53530  0.29000  1.0000
  C   C46       1.0  0.30970  0.53530  0.21000  1.0000
  C   C47       1.0  0.19030  0.03530  0.29000  1.0000
  C   C48       1.0  0.80970  0.03530  0.21000  1.0000
  H   H41       1.0  0.33710  0.49420  0.69950  1.0000
  H   H42       1.0  0.66290  0.49420  0.80050  1.0000
  H   H43       1.0  0.83710  0.99420  0.69950  1.0000
  H   H44       1.0  0.16290  0.99420  0.80050  1.0000
  H   H45       1.0  0.66290  0.50580  0.30050  1.0000
  H   H46       1.0  0.33710  0.50580  0.19950  1.0000
  H   H47       1.0  0.16290  0.00580  0.30050  1.0000
  H   H48       1.0  0.83710  0.00580  0.19950  1.0000
  C   C49       1.0  0.17310  0.47450  0.62960  1.0000
  C   C50       1.0  0.82690  0.47450  0.87040  1.0000
  C   C51       1.0  0.67310  0.97450  0.62960  1.0000
  C   C52       1.0  0.32690  0.97450  0.87040  1.0000
  C   C53       1.0  0.82690  0.52550  0.37040  1.0000
  C   C54       1.0  0.17310  0.52550  0.12960  1.0000
  C   C55       1.0  0.32690  0.02550  0.37040  1.0000
  C   C56       1.0  0.67310  0.02550  0.12960  1.0000
  C   C57       1.0  0.41270  0.46350  0.85640  1.0000
  C   C58       1.0  0.58730  0.46350  0.64360  1.0000
  C   C59       1.0  0.91270  0.96350  0.85640  1.0000
  C   C60       1.0  0.08730  0.96350  0.64360  1.0000
  C   C61       1.0  0.58730  0.53650  0.14360  1.0000
  C   C62       1.0  0.41270  0.53650  0.35640  1.0000
  C   C63       1.0  0.08730  0.03650  0.14360  1.0000
  C   C64       1.0  0.91270  0.03650  0.35640  1.0000
  C   C65       1.0  0.46190  0.44240  0.88730  1.0000
  C   C66       1.0  0.53810  0.44240  0.61270  1.0000
  C   C67       1.0  0.96190  0.94240  0.88730  1.0000
  C   C68       1.0  0.03810  0.94240  0.61270  1.0000
  C   C69       1.0  0.53810  0.55760  0.11270  1.0000
  C   C70       1.0  0.46190  0.55760  0.38730  1.0000
  C   C71       1.0  0.03810  0.05760  0.11270  1.0000
  C   C72       1.0  0.96190  0.05760  0.38730  1.0000
  H   H49       1.0  0.47370  0.36650  0.88990  1.0000
  H   H50       1.0  0.52630  0.36650  0.61010  1.0000
  H   H51       1.0  0.97370  0.86650  0.88990  1.0000
  H   H52       1.0  0.02630  0.86650  0.61010  1.0000
  H   H53       1.0  0.52630  0.63350  0.11010  1.0000
  H   H54       1.0  0.47370  0.63350  0.38990  1.0000
  H   H55       1.0  0.02630  0.13350  0.11010  1.0000
  H   H56       1.0  0.97370  0.13350  0.38990  1.0000
  C   C73       1.0  0.49350  0.53380  0.91410  1.0000
  C   C74       1.0  0.50650  0.53380  0.58590  1.0000
  C   C75       1.0  0.99350  0.03380  0.91410  1.0000
  C   C76       1.0  0.00650  0.03380  0.58590  1.0000
  C   C77       1.0  0.50650  0.46620  0.08590  1.0000
  C   C78       1.0  0.49350  0.46620  0.41410  1.0000
  C   C79       1.0  0.00650  0.96620  0.08590  1.0000
  C   C80       1.0  0.99350  0.96620  0.41410  1.0000
  H   H57       1.0  0.52640  0.51910  0.93390  1.0000
  H   H58       1.0  0.47360  0.51910  0.56610  1.0000
  H   H59       1.0  0.02640  0.01910  0.93390  1.0000
  H   H60       1.0  0.97360  0.01910  0.56610  1.0000
  H   H61       1.0  0.47360  0.48090  0.06610  1.0000
  H   H62       1.0  0.52640  0.48090  0.43390  1.0000
  H   H63       1.0  0.97360  0.98090  0.06610  1.0000
  H   H64       1.0  0.02640  0.98090  0.43390  1.0000
  C   C81       1.0  0.47640  0.64660  0.91170  1.0000
  C   C82       1.0  0.52360  0.64660  0.58830  1.0000
  C   C83       1.0  0.97640  0.14660  0.91170  1.0000
  C   C84       1.0  0.02360  0.14660  0.58830  1.0000
  C   C85       1.0  0.52360  0.35340  0.08830  1.0000
  C   C86       1.0  0.47640  0.35340  0.41170  1.0000
  C   C87       1.0  0.02360  0.85340  0.08830  1.0000
  C   C88       1.0  0.97640  0.85340  0.41170  1.0000
  C   C89       1.0  0.42720  0.66800  0.88210  1.0000
  C   C90       1.0  0.57280  0.66800  0.61790  1.0000
  C   C91       1.0  0.92720  0.16800  0.88210  1.0000
  C   C92       1.0  0.07280  0.16800  0.61790  1.0000
  C   C93       1.0  0.57280  0.33200  0.11790  1.0000
  C   C94       1.0  0.42720  0.33200  0.38210  1.0000
  C   C95       1.0  0.07280  0.83200  0.11790  1.0000
  C   C96       1.0  0.92720  0.83200  0.38210  1.0000
  H   H65       1.0  0.41550  0.74380  0.88040  1.0000
  H   H66       1.0  0.58450  0.74380  0.61960  1.0000
  H   H67       1.0  0.91550  0.24380  0.88040  1.0000
  H   H68       1.0  0.08450  0.24380  0.61960  1.0000
  H   H69       1.0  0.58450  0.25620  0.11960  1.0000
  H   H70       1.0  0.41550  0.25620  0.38040  1.0000
  H   H71       1.0  0.08450  0.75620  0.11960  1.0000
  H   H72       1.0  0.91550  0.75620  0.38040  1.0000
  C   C97       1.0  0.39540  0.57710  0.85500  1.0000
  C   C98       1.0  0.60460  0.57710  0.64500  1.0000
  C   C99       1.0  0.89540  0.07710  0.85500  1.0000
  C   C100      1.0  0.10460  0.07710  0.64500  1.0000
  C   C101      1.0  0.60460  0.42290  0.14500  1.0000
  C   C102      1.0  0.39540  0.42290  0.35500  1.0000
  C   C103      1.0  0.10460  0.92290  0.14500  1.0000
  C   C104      1.0  0.89540  0.92290  0.35500  1.0000
  H   H73       1.0  0.36240  0.59190  0.83580  1.0000
  H   H74       1.0  0.63760  0.59190  0.66420  1.0000
  H   H75       1.0  0.86240  0.09190  0.83580  1.0000
  H   H76       1.0  0.13760  0.09190  0.66420  1.0000
  H   H77       1.0  0.63760  0.40810  0.16420  1.0000
  H   H78       1.0  0.36240  0.40810  0.33580  1.0000
  H   H79       1.0  0.13760  0.90810  0.16420  1.0000
  H   H80       1.0  0.86240  0.90810  0.33580  1.0000
  C   C105      1.0  0.50990  0.74570  0.94060  1.0000
  C   C106      1.0  0.49010  0.74570  0.55940  1.0000
  C   C107      1.0  0.00990  0.24570  0.94060  1.0000
  C   C108      1.0  0.99010  0.24570  0.55940  1.0000
  C   C109      1.0  0.49010  0.25430  0.05940  1.0000
  C   C110      1.0  0.50990  0.25430  0.44060  1.0000
  C   C111      1.0  0.99010  0.75430  0.05940  1.0000
  C   C112      1.0  0.00990  0.75430  0.44060  1.0000
  C   C113      1.0  0.39520  0.25800  0.76250  1.0000
  C   C114      1.0  0.60480  0.25800  0.73750  1.0000
  C   C115      1.0  0.89520  0.75800  0.76250  1.0000
  C   C116      1.0  0.10480  0.75800  0.73750  1.0000
  C   C117      1.0  0.60480  0.74200  0.23750  1.0000
  C   C118      1.0  0.39520  0.74200  0.26250  1.0000
  C   C119      1.0  0.10480  0.24200  0.23750  1.0000
  C   C120      1.0  0.89520  0.24200  0.26250  1.0000
  C   C121      1.0  0.37500  0.14820  0.74400  1.0000
  C   C122      1.0  0.62500  0.14820  0.75600  1.0000
  C   C123      1.0  0.87500  0.64820  0.74400  1.0000
  C   C124      1.0  0.12500  0.64820  0.75600  1.0000
  C   C125      1.0  0.62500  0.85180  0.25600  1.0000
  C   C126      1.0  0.37500  0.85180  0.24400  1.0000
  C   C127      1.0  0.12500  0.35180  0.25600  1.0000
  C   C128      1.0  0.87500  0.35180  0.24400  1.0000
  H   H81       1.0  0.35360  0.11870  0.76820  1.0000
  H   H82       1.0  0.64640  0.11870  0.73180  1.0000
  H   H83       1.0  0.85360  0.61870  0.76820  1.0000
  H   H84       1.0  0.14640  0.61870  0.73180  1.0000
  H   H85       1.0  0.64640  0.88130  0.23180  1.0000
  H   H86       1.0  0.35360  0.88130  0.26820  1.0000
  H   H87       1.0  0.14640  0.38130  0.23180  1.0000
  H   H88       1.0  0.85360  0.38130  0.26820  1.0000
  C   C129      1.0  0.38630  0.08280  0.69080  1.0000
  C   C130      1.0  0.61370  0.08280  0.80920  1.0000
  C   C131      1.0  0.88630  0.58280  0.69080  1.0000
  C   C132      1.0  0.11370  0.58280  0.80920  1.0000
  C   C133      1.0  0.61370  0.91720  0.30920  1.0000
  C   C134      1.0  0.38630  0.91720  0.19080  1.0000
  C   C135      1.0  0.11370  0.41720  0.30920  1.0000
  C   C136      1.0  0.88630  0.41720  0.19080  1.0000
  H   H89       1.0  0.37270  0.00920  0.67930  1.0000
  H   H90       1.0  0.62730  0.00920  0.82070  1.0000
  H   H91       1.0  0.87270  0.50920  0.67930  1.0000
  H   H92       1.0  0.12730  0.50920  0.82070  1.0000
  H   H93       1.0  0.62730  0.99080  0.32070  1.0000
  H   H94       1.0  0.37270  0.99080  0.17930  1.0000
  H   H95       1.0  0.12730  0.49080  0.32070  1.0000
  H   H96       1.0  0.87270  0.49080  0.17930  1.0000
  C   C137      1.0  0.41780  0.12530  0.65380  1.0000
  C   C138      1.0  0.58220  0.12530  0.84620  1.0000
  C   C139      1.0  0.91780  0.62530  0.65380  1.0000
  C   C140      1.0  0.08220  0.62530  0.84620  1.0000
  C   C141      1.0  0.58220  0.87470  0.34620  1.0000
  C   C142      1.0  0.41780  0.87470  0.15380  1.0000
  C   C143      1.0  0.08220  0.37470  0.34620  1.0000
  C   C144      1.0  0.91780  0.37470  0.15380  1.0000
  C   C145      1.0  0.43890  0.23430  0.67310  1.0000
  C   C146      1.0  0.56110  0.23430  0.82690  1.0000
  C   C147      1.0  0.93890  0.73430  0.67310  1.0000
  C   C148      1.0  0.06110  0.73430  0.82690  1.0000
  C   C149      1.0  0.56110  0.76570  0.32690  1.0000
  C   C150      1.0  0.43890  0.76570  0.17310  1.0000
  C   C151      1.0  0.06110  0.26570  0.32690  1.0000
  C   C152      1.0  0.93890  0.26570  0.17310  1.0000
  H   H97       1.0  0.46080  0.26250  0.64960  1.0000
  H   H98       1.0  0.53920  0.26250  0.85040  1.0000
  H   H99       1.0  0.96080  0.76250  0.64960  1.0000
  H   H100      1.0  0.03920  0.76250  0.85040  1.0000
  H   H101      1.0  0.53920  0.73750  0.35040  1.0000
  H   H102      1.0  0.46080  0.73750  0.14960  1.0000
  H   H103      1.0  0.03920  0.23750  0.35040  1.0000
  H   H104      1.0  0.96080  0.23750  0.14960  1.0000
  C   C153      1.0  0.42760  0.30100  0.72650  1.0000
  C   C154      1.0  0.57240  0.30100  0.77350  1.0000
  C   C155      1.0  0.92760  0.80100  0.72650  1.0000
  C   C156      1.0  0.07240  0.80100  0.77350  1.0000
  C   C157      1.0  0.57240  0.69900  0.27350  1.0000
  C   C158      1.0  0.42760  0.69900  0.22650  1.0000
  C   C159      1.0  0.07240  0.19900  0.27350  1.0000
  C   C160      1.0  0.92760  0.19900  0.22650  1.0000
  H   H105      1.0  0.44160  0.37410  0.73860  1.0000
  H   H106      1.0  0.55840  0.37410  0.76140  1.0000
  H   H107      1.0  0.94160  0.87410  0.73860  1.0000
  H   H108      1.0  0.05840  0.87410  0.76140  1.0000
  H   H109      1.0  0.55840  0.62590  0.26140  1.0000
  H   H110      1.0  0.44160  0.62590  0.23860  1.0000
  H   H111      1.0  0.05840  0.12590  0.26140  1.0000
  H   H112      1.0  0.94160  0.12590  0.23860  1.0000
  C   C161      1.0  0.42970  0.05420  0.59420  1.0000
  C   C162      1.0  0.57030  0.05420  0.90580  1.0000
  C   C163      1.0  0.92970  0.55420  0.59420  1.0000
  C   C164      1.0  0.07030  0.55420  0.90580  1.0000
  C   C165      1.0  0.57030  0.94580  0.40580  1.0000
  C   C166      1.0  0.42970  0.94580  0.09420  1.0000
  C   C167      1.0  0.07030  0.44580  0.40580  1.0000
  C   C168      1.0  0.92970  0.44580  0.09420  1.0000
