data_image0
_chemical_formula_structural       Li12S8O4H8O12H8O24H8O8H8O16C32H8C8H8C16
_chemical_formula_sum              "Li12 S8 O64 H48 C56"
_cell_length_a       6.6823
_cell_length_b       22.875
_cell_length_c       17.016
_cell_angle_alpha    90
_cell_angle_beta     99.25
_cell_angle_gamma    90

_space_group_name_H-M_alt    "P 1"
_space_group_IT_number       1

loop_
  _space_group_symop_operation_xyz
  'x, y, z'

loop_
  _atom_site_type_symbol
  _atom_site_label
  _atom_site_symmetry_multiplicity
  _atom_site_fract_x
  _atom_site_fract_y
  _atom_site_fract_z
  _atom_site_occupancy
  Li  Li1       1.0  0.10860  0.60900  0.19400  1.0000
  Li  Li2       1.0  0.89140  0.60900  0.30600  1.0000
  Li  Li3       1.0  0.60860  0.10900  0.19400  1.0000
  Li  Li4       1.0  0.39140  0.10900  0.30600  1.0000
  Li  Li5       1.0  0.89140  0.39100  0.80600  1.0000
  Li  Li6       1.0  0.10860  0.39100  0.69400  1.0000
  Li  Li7       1.0  0.39140  0.89100  0.80600  1.0000
  Li  Li8       1.0  0.60860  0.89100  0.69400  1.0000
  Li  Li9       1.0  0.50000  0.43380  0.25000  1.0000
  Li  Li10      1.0  0.00000  0.93380  0.25000  1.0000
  Li  Li11      1.0  0.50000  0.56620  0.75000  1.0000
  Li  Li12      1.0  0.00000  0.06620  0.75000  1.0000
  S   S1        1.0  0.23719  0.35160  0.53297  1.0000
  S   S2        1.0  0.76281  0.35160  0.96703  1.0000
  S   S3        1.0  0.73719  0.85160  0.53297  1.0000
  S   S4        1.0  0.26281  0.85160  0.96703  1.0000
  S   S5        1.0  0.76281  0.64840  0.46703  1.0000
  S   S6        1.0  0.23719  0.64840  0.03297  1.0000
  S   S7        1.0  0.26281  0.14840  0.46703  1.0000
  S   S8        1.0  0.73719  0.14840  0.03297  1.0000
  O   O1        1.0  0.00000  0.67674  0.25000  1.0000
  O   O2        1.0  0.50000  0.17674  0.25000  1.0000
  O   O3        1.0  0.00000  0.32326  0.75000  1.0000
  O   O4        1.0  0.50000  0.82326  0.75000  1.0000
  H   H1        1.0  0.90700  0.69840  0.22500  1.0000
  H   H2        1.0  0.09300  0.69840  0.27500  1.0000
  H   H3        1.0  0.40700  0.19840  0.22500  1.0000
  H   H4        1.0  0.59300  0.19840  0.27500  1.0000
  H   H5        1.0  0.09300  0.30160  0.77500  1.0000
  H   H6        1.0  0.90700  0.30160  0.72500  1.0000
  H   H7        1.0  0.59300  0.80160  0.77500  1.0000
  H   H8        1.0  0.40700  0.80160  0.72500  1.0000
  O   O5        1.0  0.44600  0.33564  0.56160  1.0000
  O   O6        1.0  0.55400  0.33564  0.93840  1.0000
  O   O7        1.0  0.94600  0.83564  0.56160  1.0000
  O   O8        1.0  0.05400  0.83564  0.93840  1.0000
  O   O9        1.0  0.55400  0.66436  0.43840  1.0000
  O   O10       1.0  0.44600  0.66436  0.06160  1.0000
  O   O11       1.0  0.05400  0.16436  0.43840  1.0000
  O   O12       1.0  0.94600  0.16436  0.06160  1.0000
  O   O13       1.0  0.50000  0.35070  0.25000  1.0000
  O   O14       1.0  0.00000  0.85070  0.25000  1.0000
  O   O15       1.0  0.50000  0.64930  0.75000  1.0000
  O   O16       1.0  0.00000  0.14930  0.75000  1.0000
  H   H9        1.0  0.44300  0.32920  0.28100  1.0000
  H   H10       1.0  0.55700  0.32920  0.21900  1.0000
  H   H11       1.0  0.94300  0.82920  0.28100  1.0000
  H   H12       1.0  0.05700  0.82920  0.21900  1.0000
  H   H13       1.0  0.55700  0.67080  0.71900  1.0000
  H   H14       1.0  0.44300  0.67080  0.78100  1.0000
  H   H15       1.0  0.05700  0.17080  0.71900  1.0000
  H   H16       1.0  0.94300  0.17080  0.78100  1.0000
  O   O17       1.0  0.15190  0.32106  0.46066  1.0000
  O   O18       1.0  0.84810  0.32106  0.03934  1.0000
  O   O19       1.0  0.65190  0.82106  0.46066  1.0000
  O   O20       1.0  0.34810  0.82106  0.03934  1.0000
  O   O21       1.0  0.84810  0.67894  0.53934  1.0000
  O   O22       1.0  0.15190  0.67894  0.96066  1.0000
  O   O23       1.0  0.34810  0.17894  0.53934  1.0000
  O   O24       1.0  0.65190  0.17894  0.96066  1.0000
  O   O25       1.0  0.10840  0.34457  0.59368  1.0000
  O   O26       1.0  0.89160  0.34457  0.90632  1.0000
  O   O27       1.0  0.60840  0.84457  0.59368  1.0000
  O   O28       1.0  0.39160  0.84457  0.90632  1.0000
  O   O29       1.0  0.89160  0.65543  0.40632  1.0000
  O   O30       1.0  0.10840  0.65543  0.09368  1.0000
  O   O31       1.0  0.39160  0.15543  0.40632  1.0000
  O   O32       1.0  0.60840  0.15543  0.09368  1.0000
  O   O33       1.0  0.26620  0.45312  0.64411  1.0000
  O   O34       1.0  0.73380  0.45312  0.85589  1.0000
  O   O35       1.0  0.76620  0.95312  0.64411  1.0000
  O   O36       1.0  0.23380  0.95312  0.85589  1.0000
  O   O37       1.0  0.73380  0.54688  0.35589  1.0000
  O   O38       1.0  0.26620  0.54688  0.14411  1.0000
  O   O39       1.0  0.23380  0.04688  0.35589  1.0000
  O   O40       1.0  0.76620  0.04688  0.14411  1.0000
  H   H17       1.0  0.26840  0.48230  0.67220  1.0000
  H   H18       1.0  0.73160  0.48230  0.82780  1.0000
  H   H19       1.0  0.76840  0.98230  0.67220  1.0000
  H   H20       1.0  0.23160  0.98230  0.82780  1.0000
  H   H21       1.0  0.73160  0.51770  0.32780  1.0000
  H   H22       1.0  0.26840  0.51770  0.17220  1.0000
  H   H23       1.0  0.23160  0.01770  0.32780  1.0000
  H   H24       1.0  0.76840  0.01770  0.17220  1.0000
  O   O41       1.0  0.28950  0.56694  0.60697  1.0000
  O   O42       1.0  0.71050  0.56694  0.89303  1.0000
  O   O43       1.0  0.78950  0.06694  0.60697  1.0000
  O   O44       1.0  0.21050  0.06694  0.89303  1.0000
  O   O45       1.0  0.71050  0.43306  0.39303  1.0000
  O   O46       1.0  0.28950  0.43306  0.10697  1.0000
  O   O47       1.0  0.21050  0.93306  0.39303  1.0000
  O   O48       1.0  0.78950  0.93306  0.10697  1.0000
  H   H25       1.0  0.28650  0.60030  0.58920  1.0000
  H   H26       1.0  0.71350  0.60030  0.91080  1.0000
  H   H27       1.0  0.78650  0.10030  0.58920  1.0000
  H   H28       1.0  0.21350  0.10030  0.91080  1.0000
  H   H29       1.0  0.71350  0.39970  0.41080  1.0000
  H   H30       1.0  0.28650  0.39970  0.08920  1.0000
  H   H31       1.0  0.21350  0.89970  0.41080  1.0000
  H   H32       1.0  0.78650  0.89970  0.08920  1.0000
  O   O49       1.0  0.18960  0.56988  0.30316  1.0000
  O   O50       1.0  0.81040  0.56988  0.19684  1.0000
  O   O51       1.0  0.68960  0.06988  0.30316  1.0000
  O   O52       1.0  0.31040  0.06988  0.19684  1.0000
  O   O53       1.0  0.81040  0.43012  0.69684  1.0000
  O   O54       1.0  0.18960  0.43012  0.80316  1.0000
  O   O55       1.0  0.31040  0.93012  0.69684  1.0000
  O   O56       1.0  0.68960  0.93012  0.80316  1.0000
  O   O57       1.0  0.27960  0.48039  0.27218  1.0000
  O   O58       1.0  0.72040  0.48039  0.22782  1.0000
  O   O59       1.0  0.77960  0.98039  0.27218  1.0000
  O   O60       1.0  0.22040  0.98039  0.22782  1.0000
  O   O61       1.0  0.72040  0.51961  0.72782  1.0000
  O   O62       1.0  0.27960  0.51961  0.77218  1.0000
  O   O63       1.0  0.22040  0.01961  0.72782  1.0000
  O   O64       1.0  0.77960  0.01961  0.77218  1.0000
  C   C1        1.0  0.23840  0.42620  0.50780  1.0000
  C   C2        1.0  0.76160  0.42620  0.99220  1.0000
  C   C3        1.0  0.73840  0.92620  0.50780  1.0000
  C   C4        1.0  0.26160  0.92620  0.99220  1.0000
  C   C5        1.0  0.76160  0.57380  0.49220  1.0000
  C   C6        1.0  0.23840  0.57380  0.00780  1.0000
  C   C7        1.0  0.26160  0.07380  0.49220  1.0000
  C   C8        1.0  0.73840  0.07380  0.00780  1.0000
  C   C9        1.0  0.25580  0.46955  0.56670  1.0000
  C   C10       1.0  0.74420  0.46955  0.93330  1.0000
  C   C11       1.0  0.75580  0.96955  0.56670  1.0000
  C   C12       1.0  0.24420  0.96955  0.93330  1.0000
  C   C13       1.0  0.74420  0.53045  0.43330  1.0000
  C   C14       1.0  0.25580  0.53045  0.06670  1.0000
  C   C15       1.0  0.24420  0.03045  0.43330  1.0000
  C   C16       1.0  0.75580  0.03045  0.06670  1.0000
  C   C17       1.0  0.26610  0.52772  0.54520  1.0000
  C   C18       1.0  0.73390  0.52772  0.95480  1.0000
  C   C19       1.0  0.76610  0.02772  0.54520  1.0000
  C   C20       1.0  0.23390  0.02772  0.95480  1.0000
  C   C21       1.0  0.73390  0.47228  0.45480  1.0000
  C   C22       1.0  0.26610  0.47228  0.04520  1.0000
  C   C23       1.0  0.23390  0.97228  0.45480  1.0000
  C   C24       1.0  0.76610  0.97228  0.04520  1.0000
  C   C25       1.0  0.25510  0.54282  0.46650  1.0000
  C   C26       1.0  0.74490  0.54282  0.03350  1.0000
  C   C27       1.0  0.75510  0.04282  0.46650  1.0000
  C   C28       1.0  0.24490  0.04282  0.03350  1.0000
  C   C29       1.0  0.74490  0.45718  0.53350  1.0000
  C   C30       1.0  0.25510  0.45718  0.96650  1.0000
  C   C31       1.0  0.24490  0.95718  0.53350  1.0000
  C   C32       1.0  0.75510  0.95718  0.96650  1.0000
  H   H33       1.0  0.25760  0.58210  0.45240  1.0000
  H   H34       1.0  0.74240  0.58210  0.04760  1.0000
  H   H35       1.0  0.75760  0.08210  0.45240  1.0000
  H   H36       1.0  0.24240  0.08210  0.04760  1.0000
  H   H37       1.0  0.74240  0.41790  0.54760  1.0000
  H   H38       1.0  0.25760  0.41790  0.95240  1.0000
  H   H39       1.0  0.24240  0.91790  0.54760  1.0000
  H   H40       1.0  0.75760  0.91790  0.95240  1.0000
  C   C33       1.0  0.23220  0.44178  0.42810  1.0000
  C   C34       1.0  0.76780  0.44178  0.07190  1.0000
  C   C35       1.0  0.73220  0.94178  0.42810  1.0000
  C   C36       1.0  0.26780  0.94178  0.07190  1.0000
  C   C37       1.0  0.76780  0.55822  0.57190  1.0000
  C   C38       1.0  0.23220  0.55822  0.92810  1.0000
  C   C39       1.0  0.26780  0.05822  0.57190  1.0000
  C   C40       1.0  0.73220  0.05822  0.92810  1.0000
  H   H41       1.0  0.22260  0.41280  0.38930  1.0000
  H   H42       1.0  0.77740  0.41280  0.11070  1.0000
  H   H43       1.0  0.72260  0.91280  0.38930  1.0000
  H   H44       1.0  0.27740  0.91280  0.11070  1.0000
  H   H45       1.0  0.77740  0.58720  0.61070  1.0000
  H   H46       1.0  0.22260  0.58720  0.88930  1.0000
  H   H47       1.0  0.27740  0.08720  0.61070  1.0000
  H   H48       1.0  0.72260  0.08720  0.88930  1.0000
  C   C41       1.0  0.24010  0.49950  0.40660  1.0000
  C   C42       1.0  0.75990  0.49950  0.09340  1.0000
  C   C43       1.0  0.74010  0.99950  0.40660  1.0000
  C   C44       1.0  0.25990  0.99950  0.09340  1.0000
  C   C45       1.0  0.75990  0.50050  0.59340  1.0000
  C   C46       1.0  0.24010  0.50050  0.90660  1.0000
  C   C47       1.0  0.25990  0.00050  0.59340  1.0000
  C   C48       1.0  0.74010  0.00050  0.90660  1.0000
  C   C49       1.0  0.23550  0.51829  0.32170  1.0000
  C   C50       1.0  0.76450  0.51829  0.17830  1.0000
  C   C51       1.0  0.73550  0.01829  0.32170  1.0000
  C   C52       1.0  0.26450  0.01829  0.17830  1.0000
  C   C53       1.0  0.76450  0.48171  0.67830  1.0000
  C   C54       1.0  0.23550  0.48171  0.82170  1.0000
  C   C55       1.0  0.26450  0.98171  0.67830  1.0000
  C   C56       1.0  0.73550  0.98171  0.82170  1.0000
