data_image0
_chemical_formula_structural       Zn12P16O28H4O28H4N4H4N4C8H8C8H4C4H4C4H4C4H4C8H8C8H4C4H4C4H4C4H4
_chemical_formula_sum              "Zn12 P16 O56 H60 N8 C56"
_cell_length_a       9.655
_cell_length_b       9.344
_cell_length_c       30.965
_cell_angle_alpha    90
_cell_angle_beta     93.859
_cell_angle_gamma    90

_space_group_name_H-M_alt    "P 1"
_space_group_IT_number       1

loop_
  _space_group_symop_operation_xyz
  'x, y, z'

loop_
  _atom_site_type_symbol
  _atom_site_label
  _atom_site_symmetry_multiplicity
  _atom_site_fract_x
  _atom_site_fract_y
  _atom_site_fract_z
  _atom_site_occupancy
  Zn  Zn1       1.0  0.53047  0.28510  0.14095  1.0000
  Zn  Zn2       1.0  0.46953  0.78510  0.35905  1.0000
  Zn  Zn3       1.0  0.46953  0.71490  0.85905  1.0000
  Zn  Zn4       1.0  0.53047  0.21490  0.64095  1.0000
  Zn  Zn5       1.0  0.70144  0.54825  0.03817  1.0000
  Zn  Zn6       1.0  0.29856  0.04825  0.46183  1.0000
  Zn  Zn7       1.0  0.29856  0.45175  0.96183  1.0000
  Zn  Zn8       1.0  0.70144  0.95175  0.53817  1.0000
  Zn  Zn9       1.0  0.44079  0.31141  0.30764  1.0000
  Zn  Zn10      1.0  0.55921  0.81141  0.19236  1.0000
  Zn  Zn11      1.0  0.55921  0.68859  0.69236  1.0000
  Zn  Zn12      1.0  0.44079  0.18859  0.80764  1.0000
  P   P1        1.0  0.46114  0.12142  0.22151  1.0000
  P   P2        1.0  0.53886  0.62142  0.27849  1.0000
  P   P3        1.0  0.53886  0.87858  0.77849  1.0000
  P   P4        1.0  0.46114  0.37858  0.72151  1.0000
  P   P5        1.0  0.74526  0.07250  0.18290  1.0000
  P   P6        1.0  0.25474  0.57250  0.31710  1.0000
  P   P7        1.0  0.25474  0.92750  0.81710  1.0000
  P   P8        1.0  0.74526  0.42750  0.68290  1.0000
  P   P9        1.0  0.41330  0.37673  0.05168  1.0000
  P   P10       1.0  0.58670  0.87673  0.44832  1.0000
  P   P11       1.0  0.58670  0.62327  0.94832  1.0000
  P   P12       1.0  0.41330  0.12327  0.55168  1.0000
  P   P13       1.0  0.51896  0.61306  0.11199  1.0000
  P   P14       1.0  0.48104  0.11306  0.38801  1.0000
  P   P15       1.0  0.48104  0.38694  0.88801  1.0000
  P   P16       1.0  0.51896  0.88694  0.61199  1.0000
  O   O1        1.0  0.40840  0.21570  0.18378  1.0000
  O   O2        1.0  0.59160  0.71570  0.31622  1.0000
  O   O3        1.0  0.59160  0.78430  0.81622  1.0000
  O   O4        1.0  0.40840  0.28430  0.68378  1.0000
  O   O5        1.0  0.40150  0.16910  0.26313  1.0000
  O   O6        1.0  0.59850  0.66910  0.23687  1.0000
  O   O7        1.0  0.59850  0.83090  0.73687  1.0000
  O   O8        1.0  0.40150  0.33090  0.76313  1.0000
  O   O9        1.0  0.43170  0.96160  0.21295  1.0000
  O   O10       1.0  0.56830  0.46160  0.28705  1.0000
  O   O11       1.0  0.56830  0.03840  0.78705  1.0000
  O   O12       1.0  0.43170  0.53840  0.71295  1.0000
  O   O13       1.0  0.67570  0.14360  0.14249  1.0000
  O   O14       1.0  0.32430  0.64360  0.35751  1.0000
  O   O15       1.0  0.32430  0.85640  0.85751  1.0000
  O   O16       1.0  0.67570  0.35640  0.64249  1.0000
  O   O17       1.0  0.72820  0.91010  0.18154  1.0000
  O   O18       1.0  0.27180  0.41010  0.31846  1.0000
  O   O19       1.0  0.27180  0.08990  0.81846  1.0000
  O   O20       1.0  0.72820  0.58990  0.68154  1.0000
  O   O21       1.0  0.89570  0.11490  0.19106  1.0000
  O   O22       1.0  0.10430  0.61490  0.30894  1.0000
  O   O23       1.0  0.10430  0.88510  0.80894  1.0000
  O   O24       1.0  0.89570  0.38510  0.69106  1.0000
  O   O25       1.0  0.69040  0.28780  0.22954  1.0000
  O   O26       1.0  0.30960  0.78780  0.27046  1.0000
  O   O27       1.0  0.30960  0.71220  0.77046  1.0000
  O   O28       1.0  0.69040  0.21220  0.72954  1.0000
  H   H1        1.0  0.64850  0.33040  0.24780  1.0000
  H   H2        1.0  0.35150  0.83040  0.25220  1.0000
  H   H3        1.0  0.35150  0.66960  0.75220  1.0000
  H   H4        1.0  0.64850  0.16960  0.74780  1.0000
  O   O29       1.0  0.41330  0.26230  0.08650  1.0000
  O   O30       1.0  0.58670  0.76230  0.41350  1.0000
  O   O31       1.0  0.58670  0.73770  0.91350  1.0000
  O   O32       1.0  0.41330  0.23770  0.58650  1.0000
  O   O33       1.0  0.55650  0.39570  0.03404  1.0000
  O   O34       1.0  0.44350  0.89570  0.46596  1.0000
  O   O35       1.0  0.44350  0.60430  0.96596  1.0000
  O   O36       1.0  0.55650  0.10430  0.53404  1.0000
  O   O37       1.0  0.30210  0.34730  0.01562  1.0000
  O   O38       1.0  0.69790  0.84730  0.48438  1.0000
  O   O39       1.0  0.69790  0.65270  0.98438  1.0000
  O   O40       1.0  0.30210  0.15270  0.51562  1.0000
  O   O41       1.0  0.46720  0.73570  0.13919  1.0000
  O   O42       1.0  0.53280  0.23570  0.36081  1.0000
  O   O43       1.0  0.53280  0.26430  0.86081  1.0000
  O   O44       1.0  0.46720  0.76430  0.63919  1.0000
  O   O45       1.0  0.57190  0.48780  0.13949  1.0000
  O   O46       1.0  0.42810  0.98780  0.36051  1.0000
  O   O47       1.0  0.42810  0.51220  0.86051  1.0000
  O   O48       1.0  0.57190  0.01220  0.63949  1.0000
  O   O49       1.0  0.62580  0.66880  0.08224  1.0000
  O   O50       1.0  0.37420  0.16880  0.41776  1.0000
  O   O51       1.0  0.37420  0.33120  0.91776  1.0000
  O   O52       1.0  0.62580  0.83120  0.58224  1.0000
  O   O53       1.0  0.32580  0.65400  0.04550  1.0000
  O   O54       1.0  0.67420  0.15400  0.45450  1.0000
  O   O55       1.0  0.67420  0.34600  0.95450  1.0000
  O   O56       1.0  0.32580  0.84600  0.54550  1.0000
  H   H5        1.0  0.36180  0.63610  0.02290  1.0000
  H   H6        1.0  0.63820  0.13610  0.47710  1.0000
  H   H7        1.0  0.63820  0.36390  0.97710  1.0000
  H   H8        1.0  0.36180  0.86390  0.52290  1.0000
  N   N1        1.0  0.03670  0.88820  0.29854  1.0000
  N   N2        1.0  0.96330  0.38820  0.20146  1.0000
  N   N3        1.0  0.96330  0.11180  0.70146  1.0000
  N   N4        1.0  0.03670  0.61180  0.79854  1.0000
  H   H9        1.0  0.06950  0.80270  0.29960  1.0000
  H   H10       1.0  0.93050  0.30270  0.20040  1.0000
  H   H11       1.0  0.93050  0.19730  0.70040  1.0000
  H   H12       1.0  0.06950  0.69730  0.79960  1.0000
  N   N5        1.0  0.88060  0.45270  0.05946  1.0000
  N   N6        1.0  0.11940  0.95270  0.44054  1.0000
  N   N7        1.0  0.11940  0.54730  0.94054  1.0000
  N   N8        1.0  0.88060  0.04730  0.55946  1.0000
  C   C1        1.0  0.65180  0.13950  0.22925  1.0000
  C   C2        1.0  0.34820  0.63950  0.27075  1.0000
  C   C3        1.0  0.34820  0.86050  0.77075  1.0000
  C   C4        1.0  0.65180  0.36050  0.72925  1.0000
  C   C5        1.0  0.69360  0.06180  0.27236  1.0000
  C   C6        1.0  0.30640  0.56180  0.22764  1.0000
  C   C7        1.0  0.30640  0.93820  0.72764  1.0000
  C   C8        1.0  0.69360  0.43820  0.77236  1.0000
  H   H13       1.0  0.65370  0.11420  0.29550  1.0000
  H   H14       1.0  0.34630  0.61420  0.20450  1.0000
  H   H15       1.0  0.34630  0.88580  0.70450  1.0000
  H   H16       1.0  0.65370  0.38580  0.79550  1.0000
  H   H17       1.0  0.65090  0.96780  0.27120  1.0000
  H   H18       1.0  0.34910  0.46780  0.22880  1.0000
  H   H19       1.0  0.34910  0.03220  0.72880  1.0000
  H   H20       1.0  0.65090  0.53220  0.77120  1.0000
  C   C9        1.0  0.84550  0.04280  0.28431  1.0000
  C   C10       1.0  0.15450  0.54280  0.21569  1.0000
  C   C11       1.0  0.15450  0.95720  0.71569  1.0000
  C   C12       1.0  0.84550  0.45720  0.78431  1.0000
  C   C13       1.0  0.93250  0.15650  0.29615  1.0000
  C   C14       1.0  0.06750  0.65650  0.20385  1.0000
  C   C15       1.0  0.06750  0.84350  0.70385  1.0000
  C   C16       1.0  0.93250  0.34350  0.79615  1.0000
  H   H21       1.0  0.89730  0.24920  0.29560  1.0000
  H   H22       1.0  0.10270  0.74920  0.20440  1.0000
  H   H23       1.0  0.10270  0.75080  0.70440  1.0000
  H   H24       1.0  0.89730  0.25080  0.79560  1.0000
  C   C17       1.0  0.07040  0.13390  0.30880  1.0000
  C   C18       1.0  0.92960  0.63390  0.19120  1.0000
  C   C19       1.0  0.92960  0.86610  0.69120  1.0000
  C   C20       1.0  0.07040  0.36610  0.80880  1.0000
  H   H25       1.0  0.12810  0.21040  0.31690  1.0000
  H   H26       1.0  0.87190  0.71040  0.18310  1.0000
  H   H27       1.0  0.87190  0.78960  0.68310  1.0000
  H   H28       1.0  0.12810  0.28960  0.81690  1.0000
  C   C21       1.0  0.12070  0.99740  0.30930  1.0000
  C   C22       1.0  0.87930  0.49740  0.19070  1.0000
  C   C23       1.0  0.87930  0.00260  0.69070  1.0000
  C   C24       1.0  0.12070  0.50260  0.80930  1.0000
  H   H29       1.0  0.21400  0.98050  0.31710  1.0000
  H   H30       1.0  0.78600  0.48050  0.18290  1.0000
  H   H31       1.0  0.78600  0.01950  0.68290  1.0000
  H   H32       1.0  0.21400  0.51950  0.81710  1.0000
  C   C25       1.0  0.90310  0.90790  0.28619  1.0000
  C   C26       1.0  0.09690  0.40790  0.21381  1.0000
  C   C27       1.0  0.09690  0.09210  0.71381  1.0000
  C   C28       1.0  0.90310  0.59210  0.78619  1.0000
  H   H33       1.0  0.84780  0.82900  0.27870  1.0000
  H   H34       1.0  0.15220  0.32900  0.22130  1.0000
  H   H35       1.0  0.15220  0.17100  0.72130  1.0000
  H   H36       1.0  0.84780  0.67100  0.77870  1.0000
  C   C29       1.0  0.36760  0.54740  0.07770  1.0000
  C   C30       1.0  0.63240  0.04740  0.42230  1.0000
  C   C31       1.0  0.63240  0.45260  0.92230  1.0000
  C   C32       1.0  0.36760  0.95260  0.57770  1.0000
  C   C33       1.0  0.24500  0.53190  0.10713  1.0000
  C   C34       1.0  0.75500  0.03190  0.39287  1.0000
  C   C35       1.0  0.75500  0.46810  0.89287  1.0000
  C   C36       1.0  0.24500  0.96810  0.60713  1.0000
  H   H37       1.0  0.28080  0.48590  0.13370  1.0000
  H   H38       1.0  0.71920  0.98590  0.36630  1.0000
  H   H39       1.0  0.71920  0.51410  0.86630  1.0000
  H   H40       1.0  0.28080  0.01410  0.63370  1.0000
  H   H41       1.0  0.21680  0.62760  0.11480  1.0000
  H   H42       1.0  0.78320  0.12760  0.38520  1.0000
  H   H43       1.0  0.78320  0.37240  0.88520  1.0000
  H   H44       1.0  0.21680  0.87240  0.61480  1.0000
  C   C37       1.0  0.11490  0.45160  0.09123  1.0000
  C   C38       1.0  0.88510  0.95160  0.40877  1.0000
  C   C39       1.0  0.88510  0.54840  0.90877  1.0000
  C   C40       1.0  0.11490  0.04840  0.59123  1.0000
  C   C41       1.0  0.09620  0.30950  0.10302  1.0000
  C   C42       1.0  0.90380  0.80950  0.39698  1.0000
  C   C43       1.0  0.90380  0.69050  0.89698  1.0000
  C   C44       1.0  0.09620  0.19050  0.60302  1.0000
  H   H45       1.0  0.16770  0.26090  0.11840  1.0000
  H   H46       1.0  0.83230  0.76090  0.38160  1.0000
  H   H47       1.0  0.83230  0.73910  0.88160  1.0000
  H   H48       1.0  0.16770  0.23910  0.61840  1.0000
  C   C45       1.0  0.97270  0.23990  0.09220  1.0000
  C   C46       1.0  0.02730  0.73990  0.40780  1.0000
  C   C47       1.0  0.02730  0.76010  0.90780  1.0000
  C   C48       1.0  0.97270  0.26010  0.59220  1.0000
  H   H49       1.0  0.96100  0.14420  0.09930  1.0000
  H   H50       1.0  0.03900  0.64420  0.40070  1.0000
  H   H51       1.0  0.03900  0.85580  0.90070  1.0000
  H   H52       1.0  0.96100  0.35580  0.59930  1.0000
  C   C49       1.0  0.86690  0.31570  0.07050  1.0000
  C   C50       1.0  0.13310  0.81570  0.42950  1.0000
  C   C51       1.0  0.13310  0.68430  0.92950  1.0000
  C   C52       1.0  0.86690  0.18430  0.57050  1.0000
  H   H53       1.0  0.78300  0.26970  0.06340  1.0000
  H   H54       1.0  0.21700  0.76970  0.43660  1.0000
  H   H55       1.0  0.21700  0.73030  0.93660  1.0000
  H   H56       1.0  0.78300  0.23030  0.56340  1.0000
  C   C53       1.0  0.00350  0.51840  0.06961  1.0000
  C   C54       1.0  0.99650  0.01840  0.43039  1.0000
  C   C55       1.0  0.99650  0.48160  0.93039  1.0000
  C   C56       1.0  0.00350  0.98160  0.56961  1.0000
  H   H57       1.0  0.01320  0.61360  0.06160  1.0000
  H   H58       1.0  0.98680  0.11360  0.43840  1.0000
  H   H59       1.0  0.98680  0.38640  0.93840  1.0000
  H   H60       1.0  0.01320  0.88640  0.56160  1.0000
