data_image0
_chemical_formula_structural       Ag2N2C12O4N2C12O4H16
_chemical_formula_sum              "Ag2 N4 C24 O8 H16"
_cell_length_a       8.2053
_cell_length_b       8.3916
_cell_length_c       11.4902
_cell_angle_alpha    75.854
_cell_angle_beta     82.468
_cell_angle_gamma    62.976

_space_group_name_H-M_alt    "P 1"
_space_group_IT_number       1

loop_
  _space_group_symop_operation_xyz
  'x, y, z'

loop_
  _atom_site_type_symbol
  _atom_site_label
  _atom_site_symmetry_multiplicity
  _atom_site_fract_x
  _atom_site_fract_y
  _atom_site_fract_z
  _atom_site_occupancy
  Ag  Ag1       1.0  0.50470  0.44870  0.35070  1.0000
  Ag  Ag2       1.0  0.49530  0.55130  0.64930  1.0000
  N   N1        1.0  0.76860  0.37120  0.24310  1.0000
  N   N2        1.0  0.23140  0.62880  0.75690  1.0000
  C   C1        1.0  0.86580  0.46860  0.22220  1.0000
  C   C2        1.0  0.13420  0.53140  0.77780  1.0000
  C   C3        1.0  0.03390  0.41580  0.16230  1.0000
  C   C4        1.0  0.96610  0.58420  0.83770  1.0000
  C   C5        1.0  0.10630  0.25250  0.12430  1.0000
  C   C6        1.0  0.89370  0.74750  0.87570  1.0000
  C   C7        1.0  0.00910  0.15010  0.14600  1.0000
  C   C8        1.0  0.99090  0.84990  0.85400  1.0000
  C   C9        1.0  0.84140  0.21450  0.20460  1.0000
  C   C10       1.0  0.15860  0.78550  0.79540  1.0000
  C   C11       1.0  0.13150  0.53750  0.13930  1.0000
  C   C12       1.0  0.86850  0.46250  0.86070  1.0000
  O   O1        1.0  0.29040  0.47330  0.09200  1.0000
  O   O2        1.0  0.70960  0.52670  0.90800  1.0000
  O   O3        1.0  0.05330  0.68750  0.16760  1.0000
  O   O4        1.0  0.94670  0.31250  0.83240  1.0000
  N   N3        1.0  0.33770  0.28720  0.40350  1.0000
  N   N4        1.0  0.66230  0.71280  0.59650  1.0000
  C   C13       1.0  0.38040  0.13790  0.36190  1.0000
  C   C14       1.0  0.61960  0.86210  0.63810  1.0000
  C   C15       1.0  0.31390  0.01130  0.41110  1.0000
  C   C16       1.0  0.68610  0.98870  0.58890  1.0000
  C   C17       1.0  0.19240  0.04270  0.50740  1.0000
  C   C18       1.0  0.80760  0.95730  0.49260  1.0000
  C   C19       1.0  0.14020  0.20150  0.55040  1.0000
  C   C20       1.0  0.85980  0.79850  0.44960  1.0000
  C   C21       1.0  0.21770  0.31730  0.49800  1.0000
  C   C22       1.0  0.78230  0.68270  0.50200  1.0000
  C   C23       1.0  0.37820  0.83750  0.36380  1.0000
  C   C24       1.0  0.62180  0.16250  0.63620  1.0000
  O   O5        1.0  0.46890  0.82870  0.26670  1.0000
  O   O6        1.0  0.53110  0.17130  0.73330  1.0000
  O   O7        1.0  0.33750  0.71660  0.42470  1.0000
  O   O8        1.0  0.66250  0.28340  0.57530  1.0000
  H   H1        1.0  0.81920  0.57190  0.24770  1.0000
  H   H2        1.0  0.18080  0.42810  0.75230  1.0000
  H   H3        1.0  0.22690  0.20010  0.08170  1.0000
  H   H4        1.0  0.77310  0.79990  0.91830  1.0000
  H   H5        1.0  0.04950  0.04730  0.12850  1.0000
  H   H6        1.0  0.95050  0.95270  0.87150  1.0000
  H   H7        1.0  0.77430  0.14970  0.22500  1.0000
  H   H8        1.0  0.22570  0.85030  0.77500  1.0000
  H   H9        1.0  0.46730  0.11580  0.29050  1.0000
  H   H10       1.0  0.53270  0.88420  0.70950  1.0000
  H   H11       1.0  0.14370  0.95500  0.54070  1.0000
  H   H12       1.0  0.85630  0.04500  0.45930  1.0000
  H   H13       1.0  0.05640  0.22060  0.61300  1.0000
  H   H14       1.0  0.94360  0.77940  0.38700  1.0000
  H   H15       1.0  0.17410  0.44500  0.51960  1.0000
  H   H16       1.0  0.82590  0.55500  0.48040  1.0000
