data_image0
_chemical_formula_structural       Cr6Mn6O72C36
_chemical_formula_sum              "Cr6 Mn6 O72 C36"
_cell_length_a       9.397
_cell_length_b       9.397
_cell_length_c       53.58
_cell_angle_alpha    90
_cell_angle_beta     90
_cell_angle_gamma    120

_space_group_name_H-M_alt    "P 1"
_space_group_IT_number       1

loop_
  _space_group_symop_operation_xyz
  'x, y, z'

loop_
  _atom_site_type_symbol
  _atom_site_label
  _atom_site_symmetry_multiplicity
  _atom_site_fract_x
  _atom_site_fract_y
  _atom_site_fract_z
  _atom_site_occupancy
  Cr  Cr1       1.0  0.00000  0.00000  0.99970  1.0000
  Cr  Cr2       1.0  0.00000  0.00000  0.49970  1.0000
  Cr  Cr3       1.0  0.33333  0.66667  0.66637  1.0000
  Cr  Cr4       1.0  0.33333  0.66667  0.16637  1.0000
  Cr  Cr5       1.0  0.66667  0.33333  0.33303  1.0000
  Cr  Cr6       1.0  0.66667  0.33333  0.83303  1.0000
  Mn  Mn1       1.0  0.33330  0.66660  0.99940  1.0000
  Mn  Mn2       1.0  0.33340  0.66670  0.49940  1.0000
  Mn  Mn3       1.0  0.66663  0.33327  0.66607  1.0000
  Mn  Mn4       1.0  0.66673  0.33337  0.16607  1.0000
  Mn  Mn5       1.0  0.99997  0.99993  0.33273  1.0000
  Mn  Mn6       1.0  0.00007  0.00003  0.83273  1.0000
  O   O1        1.0  0.16570  0.18920  0.02080  1.0000
  O   O2        1.0  0.81080  0.97650  0.02080  1.0000
  O   O3        1.0  0.81080  0.83430  0.52080  1.0000
  O   O4        1.0  0.02350  0.83430  0.02080  1.0000
  O   O5        1.0  0.16570  0.97650  0.52080  1.0000
  O   O6        1.0  0.02350  0.18920  0.52080  1.0000
  O   O7        1.0  0.49903  0.85587  0.68747  1.0000
  O   O8        1.0  0.14413  0.64317  0.68747  1.0000
  O   O9        1.0  0.14413  0.50097  0.18747  1.0000
  O   O10       1.0  0.35683  0.50097  0.68747  1.0000
  O   O11       1.0  0.49903  0.64317  0.18747  1.0000
  O   O12       1.0  0.35683  0.85587  0.18747  1.0000
  O   O13       1.0  0.83237  0.52253  0.35413  1.0000
  O   O14       1.0  0.47747  0.30983  0.35413  1.0000
  O   O15       1.0  0.47747  0.16763  0.85413  1.0000
  O   O16       1.0  0.69017  0.16763  0.35413  1.0000
  O   O17       1.0  0.83237  0.30983  0.85413  1.0000
  O   O18       1.0  0.69017  0.52253  0.85413  1.0000
  O   O19       1.0  0.01750  0.19090  0.97920  1.0000
  O   O20       1.0  0.80910  0.82660  0.97920  1.0000
  O   O21       1.0  0.80910  0.98250  0.47920  1.0000
  O   O22       1.0  0.17340  0.98250  0.97920  1.0000
  O   O23       1.0  0.01750  0.82660  0.47920  1.0000
  O   O24       1.0  0.17340  0.19090  0.47920  1.0000
  O   O25       1.0  0.35083  0.85757  0.64587  1.0000
  O   O26       1.0  0.14243  0.49327  0.64587  1.0000
  O   O27       1.0  0.14243  0.64917  0.14587  1.0000
  O   O28       1.0  0.50673  0.64917  0.64587  1.0000
  O   O29       1.0  0.35083  0.49327  0.14587  1.0000
  O   O30       1.0  0.50673  0.85757  0.14587  1.0000
  O   O31       1.0  0.68417  0.52423  0.31253  1.0000
  O   O32       1.0  0.47577  0.15993  0.31253  1.0000
  O   O33       1.0  0.47577  0.31583  0.81253  1.0000
  O   O34       1.0  0.84007  0.31583  0.31253  1.0000
  O   O35       1.0  0.68417  0.15993  0.81253  1.0000
  O   O36       1.0  0.84007  0.52423  0.81253  1.0000
  O   O37       1.0  0.30820  0.46460  0.02040  1.0000
  O   O38       1.0  0.53540  0.84360  0.02040  1.0000
  O   O39       1.0  0.53540  0.69180  0.52040  1.0000
  O   O40       1.0  0.15640  0.69180  0.02040  1.0000
  O   O41       1.0  0.30820  0.84360  0.52040  1.0000
  O   O42       1.0  0.15640  0.46460  0.52040  1.0000
  O   O43       1.0  0.64153  0.13127  0.68707  1.0000
  O   O44       1.0  0.86873  0.51027  0.68707  1.0000
  O   O45       1.0  0.86873  0.35847  0.18707  1.0000
  O   O46       1.0  0.48973  0.35847  0.68707  1.0000
  O   O47       1.0  0.64153  0.51027  0.18707  1.0000
  O   O48       1.0  0.48973  0.13127  0.18707  1.0000
  O   O49       1.0  0.97487  0.79793  0.35373  1.0000
  O   O50       1.0  0.20207  0.17693  0.35373  1.0000
  O   O51       1.0  0.20207  0.02513  0.85373  1.0000
  O   O52       1.0  0.82307  0.02513  0.35373  1.0000
  O   O53       1.0  0.97487  0.17693  0.85373  1.0000
  O   O54       1.0  0.82307  0.79793  0.85373  1.0000
  O   O55       1.0  0.24580  0.44580  0.97810  1.0000
  O   O56       1.0  0.55420  0.80000  0.97810  1.0000
  O   O57       1.0  0.55420  0.75420  0.47810  1.0000
  O   O58       1.0  0.20000  0.75420  0.97810  1.0000
  O   O59       1.0  0.24580  0.80000  0.47810  1.0000
  O   O60       1.0  0.20000  0.44580  0.47810  1.0000
  O   O61       1.0  0.57913  0.11247  0.64477  1.0000
  O   O62       1.0  0.88753  0.46667  0.64477  1.0000
  O   O63       1.0  0.88753  0.42087  0.14477  1.0000
  O   O64       1.0  0.53333  0.42087  0.64477  1.0000
  O   O65       1.0  0.57913  0.46667  0.14477  1.0000
  O   O66       1.0  0.53333  0.11247  0.14477  1.0000
  O   O67       1.0  0.91247  0.77913  0.31143  1.0000
  O   O68       1.0  0.22087  0.13333  0.31143  1.0000
  O   O69       1.0  0.22087  0.08753  0.81143  1.0000
  O   O70       1.0  0.86667  0.08753  0.31143  1.0000
  O   O71       1.0  0.91247  0.13333  0.81143  1.0000
  O   O72       1.0  0.86667  0.77913  0.81143  1.0000
  C   C1        1.0  0.20530  0.31700  0.01450  1.0000
  C   C2        1.0  0.68300  0.88830  0.01450  1.0000
  C   C3        1.0  0.68300  0.79470  0.51450  1.0000
  C   C4        1.0  0.11170  0.79470  0.01450  1.0000
  C   C5        1.0  0.20530  0.88830  0.51450  1.0000
  C   C6        1.0  0.11170  0.31700  0.51450  1.0000
  C   C7        1.0  0.53863  0.98367  0.68117  1.0000
  C   C8        1.0  0.01633  0.55497  0.68117  1.0000
  C   C9        1.0  0.01633  0.46137  0.18117  1.0000
  C   C10       1.0  0.44503  0.46137  0.68117  1.0000
  C   C11       1.0  0.53863  0.55497  0.18117  1.0000
  C   C12       1.0  0.44503  0.98367  0.18117  1.0000
  C   C13       1.0  0.87197  0.65033  0.34783  1.0000
  C   C14       1.0  0.34967  0.22163  0.34783  1.0000
  C   C15       1.0  0.34967  0.12803  0.84783  1.0000
  C   C16       1.0  0.77837  0.12803  0.34783  1.0000
  C   C17       1.0  0.87197  0.22163  0.84783  1.0000
  C   C18       1.0  0.77837  0.65033  0.84783  1.0000
  C   C19       1.0  0.12290  0.32790  0.98930  1.0000
  C   C20       1.0  0.67210  0.79500  0.98930  1.0000
  C   C21       1.0  0.67210  0.87710  0.48930  1.0000
  C   C22       1.0  0.20500  0.87710  0.98930  1.0000
  C   C23       1.0  0.12290  0.79500  0.48930  1.0000
  C   C24       1.0  0.20500  0.32790  0.48930  1.0000
  C   C25       1.0  0.45623  0.99457  0.65597  1.0000
  C   C26       1.0  0.00543  0.46167  0.65597  1.0000
  C   C27       1.0  0.00543  0.54377  0.15597  1.0000
  C   C28       1.0  0.53833  0.54377  0.65597  1.0000
  C   C29       1.0  0.45623  0.46167  0.15597  1.0000
  C   C30       1.0  0.53833  0.99457  0.15597  1.0000
  C   C31       1.0  0.78957  0.66123  0.32263  1.0000
  C   C32       1.0  0.33877  0.12833  0.32263  1.0000
  C   C33       1.0  0.33877  0.21043  0.82263  1.0000
  C   C34       1.0  0.87167  0.21043  0.32263  1.0000
  C   C35       1.0  0.78957  0.12833  0.82263  1.0000
  C   C36       1.0  0.87167  0.66123  0.82263  1.0000
