data_image0
_chemical_formula_structural       Zn4O40N8H4C4H4C4H4C8H4C4H4C12H4C4H4C12H4C4H4C4H4C8H8C8H8C8H8C4
_chemical_formula_sum              "Zn4 O40 N8 H64 C84"
_cell_length_a       13.5193
_cell_length_b       18.2105
_cell_length_c       14.6349
_cell_angle_alpha    90
_cell_angle_beta     97.039
_cell_angle_gamma    90

_space_group_name_H-M_alt    "P 1"
_space_group_IT_number       1

loop_
  _space_group_symop_operation_xyz
  'x, y, z'

loop_
  _atom_site_type_symbol
  _atom_site_label
  _atom_site_symmetry_multiplicity
  _atom_site_fract_x
  _atom_site_fract_y
  _atom_site_fract_z
  _atom_site_occupancy
  Zn  Zn1       1.0  0.60459  0.97867  0.86117  1.0000
  Zn  Zn2       1.0  0.39541  0.47867  0.63883  1.0000
  Zn  Zn3       1.0  0.39541  0.02133  0.13883  1.0000
  Zn  Zn4       1.0  0.60459  0.52133  0.36117  1.0000
  O   O1        1.0  0.60781  0.32622  0.09024  1.0000
  O   O2        1.0  0.39219  0.82622  0.40976  1.0000
  O   O3        1.0  0.39219  0.67378  0.90976  1.0000
  O   O4        1.0  0.60781  0.17378  0.59024  1.0000
  O   O5        1.0  0.74418  0.86067  0.17538  1.0000
  O   O6        1.0  0.25582  0.36067  0.32462  1.0000
  O   O7        1.0  0.25582  0.13933  0.82462  1.0000
  O   O8        1.0  0.74418  0.63933  0.67538  1.0000
  O   O9        1.0  0.60065  0.92173  0.97100  1.0000
  O   O10       1.0  0.39935  0.42173  0.52900  1.0000
  O   O11       1.0  0.39935  0.07827  0.02900  1.0000
  O   O12       1.0  0.60065  0.57827  0.47100  1.0000
  O   O13       1.0  0.76463  0.91819  0.01030  1.0000
  O   O14       1.0  0.23537  0.41819  0.48970  1.0000
  O   O15       1.0  0.23537  0.08181  0.98970  1.0000
  O   O16       1.0  0.76463  0.58181  0.51030  1.0000
  O   O17       1.0  0.73710  0.73382  0.26526  1.0000
  O   O18       1.0  0.26290  0.23382  0.23474  1.0000
  O   O19       1.0  0.26290  0.26618  0.73474  1.0000
  O   O20       1.0  0.73710  0.76618  0.76526  1.0000
  O   O21       1.0  0.76876  0.61162  0.17582  1.0000
  O   O22       1.0  0.23124  0.11162  0.32418  1.0000
  O   O23       1.0  0.23124  0.38838  0.82418  1.0000
  O   O24       1.0  0.76876  0.88838  0.67582  1.0000
  O   O25       1.0  0.68730  0.54247  0.26590  1.0000
  O   O26       1.0  0.31270  0.04247  0.23410  1.0000
  O   O27       1.0  0.31270  0.45753  0.73410  1.0000
  O   O28       1.0  0.68730  0.95753  0.76590  1.0000
  O   O29       1.0  0.72745  0.98913  0.25671  1.0000
  O   O30       1.0  0.27255  0.48913  0.24329  1.0000
  O   O31       1.0  0.27255  0.01087  0.74329  1.0000
  O   O32       1.0  0.72745  0.51087  0.75671  1.0000
  O   O33       1.0  0.53555  0.01513  0.19423  1.0000
  O   O34       1.0  0.46445  0.51513  0.30577  1.0000
  O   O35       1.0  0.46445  0.98487  0.80577  1.0000
  O   O36       1.0  0.53555  0.48487  0.69423  1.0000
  O   O37       1.0  0.54029  0.12748  0.25359  1.0000
  O   O38       1.0  0.45971  0.62748  0.24641  1.0000
  O   O39       1.0  0.45971  0.87252  0.74641  1.0000
  O   O40       1.0  0.54029  0.37252  0.75359  1.0000
  N   N1        1.0  0.61706  0.08715  0.89206  1.0000
  N   N2        1.0  0.38294  0.58715  0.60794  1.0000
  N   N3        1.0  0.38294  0.91285  0.10794  1.0000
  N   N4        1.0  0.61706  0.41285  0.39206  1.0000
  N   N5        1.0  0.56926  0.31111  0.93568  1.0000
  N   N6        1.0  0.43074  0.81111  0.56432  1.0000
  N   N7        1.0  0.43074  0.68889  0.06432  1.0000
  N   N8        1.0  0.56926  0.18889  0.43568  1.0000
  H   H1        1.0  0.55210  0.33510  0.88560  1.0000
  H   H2        1.0  0.44790  0.83510  0.61440  1.0000
  H   H3        1.0  0.44790  0.66490  0.11440  1.0000
  H   H4        1.0  0.55210  0.16490  0.38560  1.0000
  C   C1        1.0  0.60956  0.13671  0.82401  1.0000
  C   C2        1.0  0.39044  0.63671  0.67599  1.0000
  C   C3        1.0  0.39044  0.86329  0.17599  1.0000
  C   C4        1.0  0.60956  0.36329  0.32401  1.0000
  H   H5        1.0  0.61390  0.12000  0.76460  1.0000
  H   H6        1.0  0.38610  0.62000  0.73540  1.0000
  H   H7        1.0  0.38610  0.88000  0.23540  1.0000
  H   H8        1.0  0.61390  0.38000  0.26460  1.0000
  C   C5        1.0  0.59628  0.21048  0.83667  1.0000
  C   C6        1.0  0.40372  0.71048  0.66333  1.0000
  C   C7        1.0  0.40372  0.78952  0.16333  1.0000
  C   C8        1.0  0.59628  0.28952  0.33667  1.0000
  H   H9        1.0  0.59210  0.24260  0.78690  1.0000
  H   H10       1.0  0.40790  0.74260  0.71310  1.0000
  H   H11       1.0  0.40790  0.75740  0.21310  1.0000
  H   H12       1.0  0.59210  0.25740  0.28690  1.0000
  C   C9        1.0  0.58938  0.23683  0.92555  1.0000
  C   C10       1.0  0.41062  0.73683  0.57445  1.0000
  C   C11       1.0  0.41062  0.76317  0.07445  1.0000
  C   C12       1.0  0.58938  0.26317  0.42555  1.0000
  C   C13       1.0  0.59728  0.18583  0.99763  1.0000
  C   C14       1.0  0.40272  0.68583  0.50237  1.0000
  C   C15       1.0  0.40272  0.81417  0.00237  1.0000
  C   C16       1.0  0.59728  0.31417  0.49763  1.0000
  H   H13       1.0  0.59440  0.20070  0.05800  1.0000
  H   H14       1.0  0.40560  0.70070  0.44200  1.0000
  H   H15       1.0  0.40560  0.79930  0.94200  1.0000
  H   H16       1.0  0.59440  0.29930  0.55800  1.0000
  C   C17       1.0  0.60937  0.11315  0.97657  1.0000
  C   C18       1.0  0.39063  0.61315  0.52343  1.0000
  C   C19       1.0  0.39063  0.88685  0.02343  1.0000
  C   C20       1.0  0.60937  0.38685  0.47657  1.0000
  H   H17       1.0  0.61260  0.07940  0.02450  1.0000
  H   H18       1.0  0.38740  0.57940  0.47550  1.0000
  H   H19       1.0  0.38740  0.92060  0.97550  1.0000
  H   H20       1.0  0.61260  0.42060  0.52450  1.0000
  C   C21       1.0  0.57340  0.35081  0.01552  1.0000
  C   C22       1.0  0.42660  0.85081  0.48448  1.0000
  C   C23       1.0  0.42660  0.64919  0.98448  1.0000
  C   C24       1.0  0.57340  0.14919  0.51552  1.0000
  C   C25       1.0  0.53547  0.42804  0.00489  1.0000
  C   C26       1.0  0.46453  0.92804  0.49511  1.0000
  C   C27       1.0  0.46453  0.57196  0.99511  1.0000
  C   C28       1.0  0.53547  0.07196  0.50489  1.0000
  C   C29       1.0  0.56696  0.47822  0.07373  1.0000
  C   C30       1.0  0.43304  0.97822  0.42627  1.0000
  C   C31       1.0  0.43304  0.52178  0.92627  1.0000
  C   C32       1.0  0.56696  0.02178  0.57373  1.0000
  H   H21       1.0  0.61180  0.46380  0.12380  1.0000
  H   H22       1.0  0.38820  0.96380  0.37620  1.0000
  H   H23       1.0  0.38820  0.53620  0.87620  1.0000
  H   H24       1.0  0.61180  0.03620  0.62380  1.0000
  C   C33       1.0  0.53201  0.54925  0.06824  1.0000
  C   C34       1.0  0.46799  0.04925  0.43176  1.0000
  C   C35       1.0  0.46799  0.45075  0.93176  1.0000
  C   C36       1.0  0.53201  0.95075  0.56824  1.0000
  H   H25       1.0  0.55430  0.58250  0.11450  1.0000
  H   H26       1.0  0.44570  0.08250  0.38550  1.0000
  H   H27       1.0  0.44570  0.41750  0.88550  1.0000
  H   H28       1.0  0.55430  0.91750  0.61450  1.0000
  C   C37       1.0  0.72749  0.86184  0.26632  1.0000
  C   C38       1.0  0.27251  0.36184  0.23368  1.0000
  C   C39       1.0  0.27251  0.13816  0.73368  1.0000
  C   C40       1.0  0.72749  0.63816  0.76632  1.0000
  C   C41       1.0  0.72516  0.79653  0.31529  1.0000
  C   C42       1.0  0.27484  0.29653  0.18471  1.0000
  C   C43       1.0  0.27484  0.20347  0.68471  1.0000
  C   C44       1.0  0.72516  0.70347  0.81529  1.0000
  C   C45       1.0  0.71408  0.79806  0.40721  1.0000
  C   C46       1.0  0.28592  0.29806  0.09279  1.0000
  C   C47       1.0  0.28592  0.20194  0.59279  1.0000
  C   C48       1.0  0.71408  0.70194  0.90721  1.0000
  H   H29       1.0  0.71260  0.75450  0.44030  1.0000
  H   H30       1.0  0.28740  0.25450  0.05970  1.0000
  H   H31       1.0  0.28740  0.24550  0.55970  1.0000
  H   H32       1.0  0.71260  0.74550  0.94030  1.0000
  C   C49       1.0  0.70519  0.86469  0.45003  1.0000
  C   C50       1.0  0.29481  0.36469  0.04997  1.0000
  C   C51       1.0  0.29481  0.13531  0.54997  1.0000
  C   C52       1.0  0.70519  0.63531  0.95003  1.0000
  H   H33       1.0  0.69750  0.86550  0.51230  1.0000
  H   H34       1.0  0.30250  0.36550  0.98770  1.0000
  H   H35       1.0  0.30250  0.13450  0.48770  1.0000
  H   H36       1.0  0.69750  0.63450  0.01230  1.0000
  C   C53       1.0  0.70734  0.93008  0.40325  1.0000
  C   C54       1.0  0.29266  0.43008  0.09675  1.0000
  C   C55       1.0  0.29266  0.06992  0.59675  1.0000
  C   C56       1.0  0.70734  0.56992  0.90325  1.0000
  H   H37       1.0  0.70190  0.97450  0.43350  1.0000
  H   H38       1.0  0.29810  0.47450  0.06650  1.0000
  H   H39       1.0  0.29810  0.02550  0.56650  1.0000
  H   H40       1.0  0.70190  0.52550  0.93350  1.0000
  C   C57       1.0  0.71797  0.92871  0.31071  1.0000
  C   C58       1.0  0.28203  0.42871  0.18929  1.0000
  C   C59       1.0  0.28203  0.07129  0.68929  1.0000
  C   C60       1.0  0.71797  0.57129  0.81071  1.0000
  C   C61       1.0  0.65583  0.86983  0.11257  1.0000
  C   C62       1.0  0.34417  0.36983  0.38743  1.0000
  C   C63       1.0  0.34417  0.13017  0.88743  1.0000
  C   C64       1.0  0.65583  0.63017  0.61257  1.0000
  H   H41       1.0  0.60850  0.89960  0.14100  1.0000
  H   H42       1.0  0.39150  0.39960  0.35900  1.0000
  H   H43       1.0  0.39150  0.10040  0.85900  1.0000
  H   H44       1.0  0.60850  0.60040  0.64100  1.0000
  H   H45       1.0  0.62560  0.82230  0.09810  1.0000
  H   H46       1.0  0.37440  0.32230  0.40190  1.0000
  H   H47       1.0  0.37440  0.17770  0.90190  1.0000
  H   H48       1.0  0.62560  0.67770  0.59810  1.0000
  C   C65       1.0  0.67890  0.90615  0.02545  1.0000
  C   C66       1.0  0.32110  0.40615  0.47455  1.0000
  C   C67       1.0  0.32110  0.09385  0.97455  1.0000
  C   C68       1.0  0.67890  0.59385  0.52545  1.0000
  C   C69       1.0  0.70494  0.66787  0.30311  1.0000
  C   C70       1.0  0.29506  0.16787  0.19689  1.0000
  C   C71       1.0  0.29506  0.33213  0.69689  1.0000
  C   C72       1.0  0.70494  0.83213  0.80311  1.0000
  H   H49       1.0  0.63450  0.67140  0.30930  1.0000
  H   H50       1.0  0.36550  0.17140  0.19070  1.0000
  H   H51       1.0  0.36550  0.32860  0.69070  1.0000
  H   H52       1.0  0.63450  0.82860  0.80930  1.0000
  H   H53       1.0  0.74090  0.66050  0.36400  1.0000
  H   H54       1.0  0.25910  0.16050  0.13600  1.0000
  H   H55       1.0  0.25910  0.33950  0.63600  1.0000
  H   H56       1.0  0.74090  0.83950  0.86400  1.0000
  C   C73       1.0  0.72299  0.60363  0.24247  1.0000
  C   C74       1.0  0.27701  0.10363  0.25753  1.0000
  C   C75       1.0  0.27701  0.39637  0.75753  1.0000
  C   C76       1.0  0.72299  0.89637  0.74247  1.0000
  C   C77       1.0  0.68510  0.05672  0.28070  1.0000
  C   C78       1.0  0.31490  0.55672  0.21930  1.0000
  C   C79       1.0  0.31490  0.94328  0.71930  1.0000
  C   C80       1.0  0.68510  0.44328  0.78070  1.0000
  H   H57       1.0  0.72480  0.09670  0.26080  1.0000
  H   H58       1.0  0.27520  0.59670  0.23920  1.0000
  H   H59       1.0  0.27520  0.90330  0.73920  1.0000
  H   H60       1.0  0.72480  0.40330  0.76080  1.0000
  H   H61       1.0  0.68850  0.05940  0.34720  1.0000
  H   H62       1.0  0.31150  0.55940  0.15280  1.0000
  H   H63       1.0  0.31150  0.94060  0.65280  1.0000
  H   H64       1.0  0.68850  0.44060  0.84720  1.0000
  C   C81       1.0  0.57868  0.06743  0.23958  1.0000
  C   C82       1.0  0.42132  0.56743  0.26042  1.0000
  C   C83       1.0  0.42132  0.93257  0.76042  1.0000
  C   C84       1.0  0.57868  0.43257  0.73958  1.0000
