data_image0
_chemical_formula_structural       Zn12Ti4O68H4O4C12H4C4H4C8H4C16H4C8H4C4H4C16H4C8H4C4H4C12H4C8
_chemical_formula_sum              "Zn12 Ti4 O72 H44 C100"
_cell_length_a       16.472
_cell_length_b       14.628
_cell_length_c       21.029
_cell_angle_alpha    90
_cell_angle_beta     97.01
_cell_angle_gamma    90

_space_group_name_H-M_alt    "P 1"
_space_group_IT_number       1

loop_
  _space_group_symop_operation_xyz
  'x, y, z'

loop_
  _atom_site_type_symbol
  _atom_site_label
  _atom_site_symmetry_multiplicity
  _atom_site_fract_x
  _atom_site_fract_y
  _atom_site_fract_z
  _atom_site_occupancy
  Zn  Zn1       1.0  0.20586  0.85840  0.04517  1.0000
  Zn  Zn2       1.0  0.79414  0.35840  0.45483  1.0000
  Zn  Zn3       1.0  0.79414  0.14160  0.95483  1.0000
  Zn  Zn4       1.0  0.20586  0.64160  0.54517  1.0000
  Zn  Zn5       1.0  0.25268  0.04670  0.11510  1.0000
  Zn  Zn6       1.0  0.74732  0.54670  0.38490  1.0000
  Zn  Zn7       1.0  0.74732  0.95330  0.88490  1.0000
  Zn  Zn8       1.0  0.25268  0.45330  0.61510  1.0000
  Zn  Zn9       1.0  0.05580  0.00738  0.07270  1.0000
  Zn  Zn10      1.0  0.94420  0.50738  0.42730  1.0000
  Zn  Zn11      1.0  0.94420  0.99262  0.92730  1.0000
  Zn  Zn12      1.0  0.05580  0.49262  0.57270  1.0000
  Ti  Ti1       1.0  0.21343  0.99765  0.86889  1.0000
  Ti  Ti2       1.0  0.78657  0.49765  0.63111  1.0000
  Ti  Ti3       1.0  0.78657  0.00235  0.13111  1.0000
  Ti  Ti4       1.0  0.21343  0.50235  0.36889  1.0000
  O   O1        1.0  0.28345  0.14089  0.03798  1.0000
  O   O2        1.0  0.71655  0.64089  0.46202  1.0000
  O   O3        1.0  0.71655  0.85911  0.96202  1.0000
  O   O4        1.0  0.28345  0.35911  0.53798  1.0000
  O   O5        1.0  0.22826  0.07399  0.94886  1.0000
  O   O6        1.0  0.77174  0.57399  0.55114  1.0000
  O   O7        1.0  0.77174  0.92601  0.05114  1.0000
  O   O8        1.0  0.22826  0.42601  0.44886  1.0000
  O   O9        1.0  0.32865  0.99363  0.87788  1.0000
  O   O10       1.0  0.67135  0.49363  0.62212  1.0000
  O   O11       1.0  0.67135  0.00637  0.12212  1.0000
  O   O12       1.0  0.32865  0.50637  0.37788  1.0000
  O   O13       1.0  0.20657  0.09537  0.81132  1.0000
  O   O14       1.0  0.79343  0.59537  0.68868  1.0000
  O   O15       1.0  0.79343  0.90463  0.18868  1.0000
  O   O16       1.0  0.20657  0.40463  0.31132  1.0000
  O   O17       1.0  0.09345  0.01973  0.87361  1.0000
  O   O18       1.0  0.90655  0.51973  0.62639  1.0000
  O   O19       1.0  0.90655  0.98027  0.12639  1.0000
  O   O20       1.0  0.09345  0.48027  0.37361  1.0000
  O   O21       1.0  0.20235  0.90585  0.80655  1.0000
  O   O22       1.0  0.79765  0.40585  0.69345  1.0000
  O   O23       1.0  0.79765  0.09415  0.19345  1.0000
  O   O24       1.0  0.20235  0.59415  0.30655  1.0000
  O   O25       1.0  0.20023  0.89311  0.93065  1.0000
  O   O26       1.0  0.79977  0.39311  0.56935  1.0000
  O   O27       1.0  0.79977  0.10689  0.06935  1.0000
  O   O28       1.0  0.20023  0.60689  0.43065  1.0000
  O   O29       1.0  0.22865  0.76192  0.97806  1.0000
  O   O30       1.0  0.77135  0.26192  0.52194  1.0000
  O   O31       1.0  0.77135  0.23808  0.02194  1.0000
  O   O32       1.0  0.22865  0.73808  0.47806  1.0000
  O   O33       1.0  0.08630  0.79676  0.02418  1.0000
  O   O34       1.0  0.91370  0.29676  0.47582  1.0000
  O   O35       1.0  0.91370  0.20324  0.97582  1.0000
  O   O36       1.0  0.08630  0.70324  0.52418  1.0000
  O   O37       1.0  0.21550  0.68224  0.63507  1.0000
  O   O38       1.0  0.78450  0.18224  0.86493  1.0000
  O   O39       1.0  0.78450  0.31776  0.36493  1.0000
  O   O40       1.0  0.21550  0.81776  0.13507  1.0000
  O   O41       1.0  0.22781  0.54520  0.68400  1.0000
  O   O42       1.0  0.77219  0.04520  0.81600  1.0000
  O   O43       1.0  0.77219  0.45480  0.31600  1.0000
  O   O44       1.0  0.22781  0.95480  0.18400  1.0000
  O   O45       1.0  0.07395  0.38935  0.63577  1.0000
  O   O46       1.0  0.92605  0.88935  0.86423  1.0000
  O   O47       1.0  0.92605  0.61065  0.36423  1.0000
  O   O48       1.0  0.07395  0.11065  0.13577  1.0000
  O   O49       1.0  0.20650  0.35154  0.65873  1.0000
  O   O50       1.0  0.79350  0.85154  0.84127  1.0000
  O   O51       1.0  0.79350  0.64846  0.34127  1.0000
  O   O52       1.0  0.20650  0.14846  0.15873  1.0000
  O   O53       1.0  0.63321  0.99487  0.88330  1.0000
  O   O54       1.0  0.36679  0.49487  0.61670  1.0000
  O   O55       1.0  0.36679  0.00513  0.11670  1.0000
  O   O56       1.0  0.63321  0.50513  0.38330  1.0000
  O   O57       1.0  0.67333  0.10450  0.95314  1.0000
  O   O58       1.0  0.32667  0.60450  0.54686  1.0000
  O   O59       1.0  0.32667  0.89550  0.04686  1.0000
  O   O60       1.0  0.67333  0.39550  0.45314  1.0000
  O   O61       1.0  0.97081  0.08318  0.86288  1.0000
  O   O62       1.0  0.02919  0.58318  0.63712  1.0000
  O   O63       1.0  0.02919  0.91682  0.13712  1.0000
  O   O64       1.0  0.97081  0.41682  0.36288  1.0000
  O   O65       1.0  0.16792  0.98828  0.05057  1.0000
  O   O66       1.0  0.83208  0.48828  0.44943  1.0000
  O   O67       1.0  0.83208  0.01172  0.94943  1.0000
  O   O68       1.0  0.16792  0.51172  0.55057  1.0000
  H   H1        1.0  0.17090  0.01340  0.01450  1.0000
  H   H2        1.0  0.82910  0.51340  0.48550  1.0000
  H   H3        1.0  0.82910  0.98660  0.98550  1.0000
  H   H4        1.0  0.17090  0.48660  0.51450  1.0000
  O   O69       1.0  0.00673  0.91521  0.99524  1.0000
  O   O70       1.0  0.99327  0.41521  0.50476  1.0000
  O   O71       1.0  0.99327  0.08479  0.00476  1.0000
  O   O72       1.0  0.00673  0.58479  0.49524  1.0000
  C   C1        1.0  0.29069  0.10692  0.98497  1.0000
  C   C2        1.0  0.70931  0.60692  0.51503  1.0000
  C   C3        1.0  0.70931  0.89308  0.01503  1.0000
  C   C4        1.0  0.29069  0.39308  0.48497  1.0000
  C   C5        1.0  0.37341  0.10045  0.96250  1.0000
  C   C6        1.0  0.62659  0.60045  0.53750  1.0000
  C   C7        1.0  0.62659  0.89955  0.03750  1.0000
  C   C8        1.0  0.37341  0.39955  0.46250  1.0000
  C   C9        1.0  0.43826  0.14740  0.99621  1.0000
  C   C10       1.0  0.56174  0.64740  0.50379  1.0000
  C   C11       1.0  0.56174  0.85260  0.00379  1.0000
  C   C12       1.0  0.43826  0.35260  0.49621  1.0000
  H   H5        1.0  0.42810  0.18750  0.02990  1.0000
  H   H6        1.0  0.57190  0.68750  0.47010  1.0000
  H   H7        1.0  0.57190  0.81250  0.97010  1.0000
  H   H8        1.0  0.42810  0.31250  0.52990  1.0000
  C   C13       1.0  0.51648  0.13690  0.98188  1.0000
  C   C14       1.0  0.48352  0.63690  0.51812  1.0000
  C   C15       1.0  0.48352  0.86310  0.01812  1.0000
  C   C16       1.0  0.51648  0.36310  0.48188  1.0000
  H   H9        1.0  0.56000  0.17030  0.00490  1.0000
  H   H10       1.0  0.44000  0.67030  0.49510  1.0000
  H   H11       1.0  0.44000  0.82970  0.99510  1.0000
  H   H12       1.0  0.56000  0.32970  0.50490  1.0000
  C   C17       1.0  0.53244  0.07620  0.93273  1.0000
  C   C18       1.0  0.46756  0.57620  0.56727  1.0000
  C   C19       1.0  0.46756  0.92380  0.06727  1.0000
  C   C20       1.0  0.53244  0.42380  0.43273  1.0000
  C   C21       1.0  0.46894  0.03010  0.89822  1.0000
  C   C22       1.0  0.53106  0.53010  0.60178  1.0000
  C   C23       1.0  0.53106  0.96990  0.10178  1.0000
  C   C24       1.0  0.46894  0.46990  0.39822  1.0000
  H   H13       1.0  0.47970  0.99010  0.86470  1.0000
  H   H14       1.0  0.52030  0.49010  0.63530  1.0000
  H   H15       1.0  0.52030  0.00990  0.13530  1.0000
  H   H16       1.0  0.47970  0.50990  0.36470  1.0000
  C   C25       1.0  0.38806  0.04183  0.91218  1.0000
  C   C26       1.0  0.61194  0.54183  0.58782  1.0000
  C   C27       1.0  0.61194  0.95817  0.08782  1.0000
  C   C28       1.0  0.38806  0.45817  0.41218  1.0000
  C   C29       1.0  0.62060  0.05710  0.92118  1.0000
  C   C30       1.0  0.37940  0.55710  0.57882  1.0000
  C   C31       1.0  0.37940  0.94290  0.07882  1.0000
  C   C32       1.0  0.62060  0.44290  0.42118  1.0000
  C   C33       1.0  0.14713  0.15014  0.78480  1.0000
  C   C34       1.0  0.85287  0.65014  0.71520  1.0000
  C   C35       1.0  0.85287  0.84986  0.21520  1.0000
  C   C36       1.0  0.14713  0.34986  0.28480  1.0000
  C   C37       1.0  0.16702  0.21542  0.74025  1.0000
  C   C38       1.0  0.83298  0.71542  0.75975  1.0000
  C   C39       1.0  0.83298  0.78458  0.25975  1.0000
  C   C40       1.0  0.16702  0.28458  0.24025  1.0000
  H   H17       1.0  0.22150  0.21940  0.72990  1.0000
  H   H18       1.0  0.77850  0.71940  0.77010  1.0000
  H   H19       1.0  0.77850  0.78060  0.27010  1.0000
  H   H20       1.0  0.22150  0.28060  0.22990  1.0000
  C   C41       1.0  0.10807  0.27355  0.71150  1.0000
  C   C42       1.0  0.89193  0.77355  0.78850  1.0000
  C   C43       1.0  0.89193  0.72645  0.28850  1.0000
  C   C44       1.0  0.10807  0.22645  0.21150  1.0000
  C   C45       1.0  0.02778  0.26920  0.72622  1.0000
  C   C46       1.0  0.97222  0.76920  0.77378  1.0000
  C   C47       1.0  0.97222  0.73080  0.27378  1.0000
  C   C48       1.0  0.02778  0.23080  0.22622  1.0000
  H   H21       1.0  0.98710  0.30900  0.70580  1.0000
  H   H22       1.0  0.01290  0.80900  0.79420  1.0000
  H   H23       1.0  0.01290  0.69100  0.29420  1.0000
  H   H24       1.0  0.98710  0.19100  0.20580  1.0000
  C   C49       1.0  0.00828  0.20600  0.77112  1.0000
  C   C50       1.0  0.99172  0.70600  0.72888  1.0000
  C   C51       1.0  0.99172  0.79400  0.22888  1.0000
  C   C52       1.0  0.00828  0.29400  0.27112  1.0000
  H   H25       1.0  0.95400  0.20380  0.78190  1.0000
  H   H26       1.0  0.04600  0.70380  0.71810  1.0000
  H   H27       1.0  0.04600  0.79620  0.21810  1.0000
  H   H28       1.0  0.95400  0.29620  0.28190  1.0000
  C   C53       1.0  0.06700  0.14547  0.80094  1.0000
  C   C54       1.0  0.93300  0.64547  0.69906  1.0000
  C   C55       1.0  0.93300  0.85453  0.19906  1.0000
  C   C56       1.0  0.06700  0.35453  0.30094  1.0000
  C   C57       1.0  0.04234  0.07953  0.84828  1.0000
  C   C58       1.0  0.95766  0.57953  0.65172  1.0000
  C   C59       1.0  0.95766  0.92047  0.15172  1.0000
  C   C60       1.0  0.04234  0.42047  0.34828  1.0000
  C   C61       1.0  0.21042  0.81565  0.80771  1.0000
  C   C62       1.0  0.78958  0.31565  0.69229  1.0000
  C   C63       1.0  0.78958  0.18435  0.19229  1.0000
  C   C64       1.0  0.21042  0.68435  0.30771  1.0000
  C   C65       1.0  0.21206  0.77023  0.74927  1.0000
  C   C66       1.0  0.78794  0.27023  0.75073  1.0000
  C   C67       1.0  0.78794  0.22977  0.25073  1.0000
  C   C68       1.0  0.21206  0.72977  0.24927  1.0000
  H   H29       1.0  0.20750  0.80460  0.71070  1.0000
  H   H30       1.0  0.79250  0.30460  0.78930  1.0000
  H   H31       1.0  0.79250  0.19540  0.28930  1.0000
  H   H32       1.0  0.20750  0.69540  0.21070  1.0000
  C   C69       1.0  0.22011  0.67720  0.74673  1.0000
  C   C70       1.0  0.77989  0.17720  0.75327  1.0000
  C   C71       1.0  0.77989  0.32280  0.25327  1.0000
  C   C72       1.0  0.22011  0.82280  0.24673  1.0000
  C   C73       1.0  0.22770  0.62580  0.80294  1.0000
  C   C74       1.0  0.77230  0.12580  0.69706  1.0000
  C   C75       1.0  0.77230  0.37420  0.19706  1.0000
  C   C76       1.0  0.22770  0.87420  0.30294  1.0000
  H   H33       1.0  0.23390  0.56130  0.80130  1.0000
  H   H34       1.0  0.76610  0.06130  0.69870  1.0000
  H   H35       1.0  0.76610  0.43870  0.19870  1.0000
  H   H36       1.0  0.23390  0.93870  0.30130  1.0000
  C   C77       1.0  0.22590  0.66950  0.86108  1.0000
  C   C78       1.0  0.77410  0.16950  0.63892  1.0000
  C   C79       1.0  0.77410  0.33050  0.13892  1.0000
  C   C80       1.0  0.22590  0.83050  0.36108  1.0000
  H   H37       1.0  0.22950  0.63430  0.89930  1.0000
  H   H38       1.0  0.77050  0.13430  0.60070  1.0000
  H   H39       1.0  0.77050  0.36570  0.10070  1.0000
  H   H40       1.0  0.22950  0.86570  0.39930  1.0000
  C   C81       1.0  0.21920  0.76389  0.86454  1.0000
  C   C82       1.0  0.78080  0.26389  0.63546  1.0000
  C   C83       1.0  0.78080  0.23611  0.13546  1.0000
  C   C84       1.0  0.21920  0.73611  0.36454  1.0000
  C   C85       1.0  0.21698  0.80751  0.92736  1.0000
  C   C86       1.0  0.78302  0.30751  0.57264  1.0000
  C   C87       1.0  0.78302  0.19249  0.07264  1.0000
  C   C88       1.0  0.21698  0.69249  0.42736  1.0000
  C   C89       1.0  0.02540  0.83070  0.99406  1.0000
  C   C90       1.0  0.97460  0.33070  0.50594  1.0000
  C   C91       1.0  0.97460  0.16930  0.00594  1.0000
  C   C92       1.0  0.02540  0.66930  0.49406  1.0000
  H   H41       1.0  0.98960  0.79130  0.96800  1.0000
  H   H42       1.0  0.01040  0.29130  0.53200  1.0000
  H   H43       1.0  0.01040  0.20870  0.03200  1.0000
  H   H44       1.0  0.98960  0.70870  0.46800  1.0000
  C   C93       1.0  0.22078  0.63040  0.68327  1.0000
  C   C94       1.0  0.77922  0.13040  0.81673  1.0000
  C   C95       1.0  0.77922  0.36960  0.31673  1.0000
  C   C96       1.0  0.22078  0.86960  0.18327  1.0000
  C   C97       1.0  0.13142  0.34404  0.66486  1.0000
  C   C98       1.0  0.86858  0.84404  0.83514  1.0000
  C   C99       1.0  0.86858  0.65596  0.33514  1.0000
  C   C100      1.0  0.13142  0.15596  0.16486  1.0000
