data_image0
_chemical_formula_structural       Cd4O32H8O4H8C12H4C8H4C8H4C4H8C8
_chemical_formula_sum              "Cd4 O36 H36 C40"
_cell_length_a       7.633
_cell_length_b       22.831
_cell_length_c       12.5639
_cell_angle_alpha    90
_cell_angle_beta     124.061
_cell_angle_gamma    90

_space_group_name_H-M_alt    "P 1"
_space_group_IT_number       1

loop_
  _space_group_symop_operation_xyz
  'x, y, z'

loop_
  _atom_site_type_symbol
  _atom_site_label
  _atom_site_symmetry_multiplicity
  _atom_site_fract_x
  _atom_site_fract_y
  _atom_site_fract_z
  _atom_site_occupancy
  Cd  Cd1       1.0  0.36956  0.84390  0.80685  1.0000
  Cd  Cd2       1.0  0.63044  0.34390  0.69315  1.0000
  Cd  Cd3       1.0  0.63044  0.15610  0.19315  1.0000
  Cd  Cd4       1.0  0.36956  0.65610  0.30685  1.0000
  O   O1        1.0  0.61530  0.91537  0.94382  1.0000
  O   O2        1.0  0.38470  0.41537  0.55618  1.0000
  O   O3        1.0  0.38470  0.08463  0.05618  1.0000
  O   O4        1.0  0.61530  0.58463  0.44382  1.0000
  O   O5        1.0  0.61850  0.83260  0.03348  1.0000
  O   O6        1.0  0.38150  0.33260  0.46652  1.0000
  O   O7        1.0  0.38150  0.16740  0.96652  1.0000
  O   O8        1.0  0.61850  0.66740  0.53348  1.0000
  O   O9        1.0  0.86710  0.12550  0.07663  1.0000
  O   O10       1.0  0.13290  0.62550  0.42337  1.0000
  O   O11       1.0  0.13290  0.87450  0.92337  1.0000
  O   O12       1.0  0.86710  0.37450  0.57663  1.0000
  O   O13       1.0  0.92620  0.10201  0.26378  1.0000
  O   O14       1.0  0.07380  0.60201  0.23622  1.0000
  O   O15       1.0  0.07380  0.89799  0.73622  1.0000
  O   O16       1.0  0.92620  0.39799  0.76378  1.0000
  O   O17       1.0  0.25310  0.02772  0.31654  1.0000
  O   O18       1.0  0.74690  0.52772  0.18346  1.0000
  O   O19       1.0  0.74690  0.97228  0.68346  1.0000
  O   O20       1.0  0.25310  0.47228  0.81654  1.0000
  O   O21       1.0  0.29910  0.87236  0.61330  1.0000
  O   O22       1.0  0.70090  0.37236  0.88670  1.0000
  O   O23       1.0  0.70090  0.12764  0.38670  1.0000
  O   O24       1.0  0.29910  0.62764  0.11330  1.0000
  O   O25       1.0  0.23020  0.79265  0.49319  1.0000
  O   O26       1.0  0.76980  0.29265  0.00681  1.0000
  O   O27       1.0  0.76980  0.20735  0.50681  1.0000
  O   O28       1.0  0.23020  0.70735  0.99319  1.0000
  O   O29       1.0  0.62870  0.78677  0.81740  1.0000
  O   O30       1.0  0.37130  0.28677  0.68260  1.0000
  O   O31       1.0  0.37130  0.21323  0.18260  1.0000
  O   O32       1.0  0.62870  0.71323  0.31740  1.0000
  H   H1        1.0  0.74700  0.78960  0.88940  1.0000
  H   H2        1.0  0.25300  0.28960  0.61060  1.0000
  H   H3        1.0  0.25300  0.21040  0.11060  1.0000
  H   H4        1.0  0.74700  0.71040  0.38940  1.0000
  H   H5        1.0  0.65020  0.78500  0.75880  1.0000
  H   H6        1.0  0.34980  0.28500  0.74120  1.0000
  H   H7        1.0  0.34980  0.21500  0.24120  1.0000
  H   H8        1.0  0.65020  0.71500  0.25880  1.0000
  O   O33       1.0  0.19320  0.75913  0.78540  1.0000
  O   O34       1.0  0.80680  0.25913  0.71460  1.0000
  O   O35       1.0  0.80680  0.24087  0.21460  1.0000
  O   O36       1.0  0.19320  0.74087  0.28540  1.0000
  H   H9        1.0  0.21300  0.74170  0.85070  1.0000
  H   H10       1.0  0.78700  0.24170  0.64930  1.0000
  H   H11       1.0  0.78700  0.25830  0.14930  1.0000
  H   H12       1.0  0.21300  0.75830  0.35070  1.0000
  H   H13       1.0  0.16610  0.73510  0.72790  1.0000
  H   H14       1.0  0.83390  0.23510  0.77210  1.0000
  H   H15       1.0  0.83390  0.26490  0.27210  1.0000
  H   H16       1.0  0.16610  0.76490  0.22790  1.0000
  C   C1        1.0  0.69470  0.88223  0.04080  1.0000
  C   C2        1.0  0.30530  0.38223  0.45920  1.0000
  C   C3        1.0  0.30530  0.11777  0.95920  1.0000
  C   C4        1.0  0.69470  0.61777  0.54080  1.0000
  C   C5        1.0  0.88710  0.90230  0.16750  1.0000
  C   C6        1.0  0.11290  0.40230  0.33250  1.0000
  C   C7        1.0  0.11290  0.09770  0.83250  1.0000
  C   C8        1.0  0.88710  0.59770  0.66750  1.0000
  C   C9        1.0  0.97580  0.95718  0.17650  1.0000
  C   C10       1.0  0.02420  0.45718  0.32350  1.0000
  C   C11       1.0  0.02420  0.04282  0.82350  1.0000
  C   C12       1.0  0.97580  0.54282  0.67650  1.0000
  H   H17       1.0  0.91830  0.98130  0.10480  1.0000
  H   H18       1.0  0.08170  0.48130  0.39520  1.0000
  H   H19       1.0  0.08170  0.01870  0.89520  1.0000
  H   H20       1.0  0.91830  0.51870  0.60480  1.0000
  C   C13       1.0  0.15150  0.97515  0.29440  1.0000
  C   C14       1.0  0.84850  0.47515  0.20560  1.0000
  C   C15       1.0  0.84850  0.02485  0.70560  1.0000
  C   C16       1.0  0.15150  0.52485  0.79440  1.0000
  C   C17       1.0  0.23640  0.93926  0.40140  1.0000
  C   C18       1.0  0.76360  0.43926  0.09860  1.0000
  C   C19       1.0  0.76360  0.06074  0.59860  1.0000
  C   C20       1.0  0.23640  0.56074  0.90140  1.0000
  H   H21       1.0  0.35370  0.95160  0.47990  1.0000
  H   H22       1.0  0.64630  0.45160  0.02010  1.0000
  H   H23       1.0  0.64630  0.04840  0.52010  1.0000
  H   H24       1.0  0.35370  0.54840  0.97990  1.0000
  C   C21       1.0  0.14710  0.88507  0.39170  1.0000
  C   C22       1.0  0.85290  0.38507  0.10830  1.0000
  C   C23       1.0  0.85290  0.11493  0.60830  1.0000
  C   C24       1.0  0.14710  0.61493  0.89170  1.0000
  C   C25       1.0  0.97310  0.86674  0.27400  1.0000
  C   C26       1.0  0.02690  0.36674  0.22600  1.0000
  C   C27       1.0  0.02690  0.13326  0.72600  1.0000
  C   C28       1.0  0.97310  0.63326  0.77400  1.0000
  H   H25       1.0  0.91420  0.83010  0.26690  1.0000
  H   H26       1.0  0.08580  0.33010  0.23310  1.0000
  H   H27       1.0  0.08580  0.16990  0.73310  1.0000
  H   H28       1.0  0.91420  0.66990  0.76690  1.0000
  C   C29       1.0  0.17100  0.06869  0.21450  1.0000
  C   C30       1.0  0.82900  0.56869  0.28550  1.0000
  C   C31       1.0  0.82900  0.93131  0.78550  1.0000
  C   C32       1.0  0.17100  0.43131  0.71450  1.0000
  H   H29       1.0  0.14000  0.04820  0.13810  1.0000
  H   H30       1.0  0.86000  0.54820  0.36190  1.0000
  H   H31       1.0  0.86000  0.95180  0.86190  1.0000
  H   H32       1.0  0.14000  0.45180  0.63810  1.0000
  H   H33       1.0  0.27990  0.09740  0.23630  1.0000
  H   H34       1.0  0.72010  0.59740  0.26370  1.0000
  H   H35       1.0  0.72010  0.90260  0.76370  1.0000
  H   H36       1.0  0.27990  0.40260  0.73630  1.0000
  C   C33       1.0  0.97240  0.10100  0.18230  1.0000
  C   C34       1.0  0.02760  0.60100  0.31770  1.0000
  C   C35       1.0  0.02760  0.89900  0.81770  1.0000
  C   C36       1.0  0.97240  0.39900  0.68230  1.0000
  C   C37       1.0  0.23320  0.84704  0.50910  1.0000
  C   C38       1.0  0.76680  0.34704  0.99090  1.0000
  C   C39       1.0  0.76680  0.15296  0.49090  1.0000
  C   C40       1.0  0.23320  0.65296  0.00910  1.0000
