data_image0
_chemical_formula_structural       C96O192Rh16Mn8
_chemical_formula_sum              "C96 O192 Rh16 Mn8"
_cell_length_a       38.937
_cell_length_b       48
_cell_length_c       9.5196
_cell_angle_alpha    90
_cell_angle_beta     90
_cell_angle_gamma    90

_space_group_name_H-M_alt    "P 1"
_space_group_IT_number       1

loop_
  _space_group_symop_operation_xyz
  'x, y, z'

loop_
  _atom_site_type_symbol
  _atom_site_label
  _atom_site_symmetry_multiplicity
  _atom_site_fract_x
  _atom_site_fract_y
  _atom_site_fract_z
  _atom_site_occupancy
  C   C1        1.0  0.99678  0.12275  0.34490  1.0000
  C   C2        1.0  0.00322  0.87725  0.34490  1.0000
  C   C3        1.0  0.25322  0.37275  0.59490  1.0000
  C   C4        1.0  0.24678  0.12725  0.59490  1.0000
  C   C5        1.0  0.99678  0.62275  0.84490  1.0000
  C   C6        1.0  0.00322  0.37725  0.84490  1.0000
  C   C7        1.0  0.25322  0.87275  0.09490  1.0000
  C   C8        1.0  0.24678  0.62725  0.09490  1.0000
  C   C9        1.0  0.49678  0.12275  0.84490  1.0000
  C   C10       1.0  0.50322  0.87725  0.84490  1.0000
  C   C11       1.0  0.75322  0.37275  0.09490  1.0000
  C   C12       1.0  0.74678  0.12725  0.09490  1.0000
  C   C13       1.0  0.49678  0.62275  0.34490  1.0000
  C   C14       1.0  0.50322  0.37725  0.34490  1.0000
  C   C15       1.0  0.75322  0.87275  0.59490  1.0000
  C   C16       1.0  0.74678  0.62725  0.59490  1.0000
  C   C17       1.0  0.96379  0.11878  0.42950  1.0000
  C   C18       1.0  0.03621  0.88122  0.42950  1.0000
  C   C19       1.0  0.28621  0.36878  0.67950  1.0000
  C   C20       1.0  0.21379  0.13122  0.67950  1.0000
  C   C21       1.0  0.96379  0.61878  0.92950  1.0000
  C   C22       1.0  0.03621  0.38122  0.92950  1.0000
  C   C23       1.0  0.28621  0.86878  0.17950  1.0000
  C   C24       1.0  0.21379  0.63122  0.17950  1.0000
  C   C25       1.0  0.46379  0.11878  0.92950  1.0000
  C   C26       1.0  0.53621  0.88122  0.92950  1.0000
  C   C27       1.0  0.78621  0.36878  0.17950  1.0000
  C   C28       1.0  0.71379  0.13122  0.17950  1.0000
  C   C29       1.0  0.46379  0.61878  0.42950  1.0000
  C   C30       1.0  0.53621  0.38122  0.42950  1.0000
  C   C31       1.0  0.78621  0.86878  0.67950  1.0000
  C   C32       1.0  0.71379  0.63122  0.67950  1.0000
  C   C33       1.0  0.00578  0.04839  0.62830  1.0000
  C   C34       1.0  0.99422  0.95161  0.62830  1.0000
  C   C35       1.0  0.24422  0.29839  0.87830  1.0000
  C   C36       1.0  0.25578  0.20161  0.87830  1.0000
  C   C37       1.0  0.00578  0.54839  0.12830  1.0000
  C   C38       1.0  0.99422  0.45161  0.12830  1.0000
  C   C39       1.0  0.24422  0.79839  0.37830  1.0000
  C   C40       1.0  0.25578  0.70161  0.37830  1.0000
  C   C41       1.0  0.50578  0.04839  0.12830  1.0000
  C   C42       1.0  0.49422  0.95161  0.12830  1.0000
  C   C43       1.0  0.74422  0.29839  0.37830  1.0000
  C   C44       1.0  0.75578  0.20161  0.37830  1.0000
  C   C45       1.0  0.50578  0.54839  0.62830  1.0000
  C   C46       1.0  0.49422  0.45161  0.62830  1.0000
  C   C47       1.0  0.74422  0.79839  0.87830  1.0000
  C   C48       1.0  0.75578  0.70161  0.87830  1.0000
  C   C49       1.0  0.97555  0.02889  0.57960  1.0000
  C   C50       1.0  0.02445  0.97111  0.57960  1.0000
  C   C51       1.0  0.27445  0.27889  0.82960  1.0000
  C   C52       1.0  0.22555  0.22111  0.82960  1.0000
  C   C53       1.0  0.97555  0.52889  0.07960  1.0000
  C   C54       1.0  0.02445  0.47111  0.07960  1.0000
  C   C55       1.0  0.27445  0.77889  0.32960  1.0000
  C   C56       1.0  0.22555  0.72111  0.32960  1.0000
  C   C57       1.0  0.47555  0.02889  0.07960  1.0000
  C   C58       1.0  0.52445  0.97111  0.07960  1.0000
  C   C59       1.0  0.77445  0.27889  0.32960  1.0000
  C   C60       1.0  0.72555  0.22111  0.32960  1.0000
  C   C61       1.0  0.47555  0.52889  0.57960  1.0000
  C   C62       1.0  0.52445  0.47111  0.57960  1.0000
  C   C63       1.0  0.77445  0.77889  0.82960  1.0000
  C   C64       1.0  0.72555  0.72111  0.82960  1.0000
  C   C65       1.0  0.01077  0.03439  0.13910  1.0000
  C   C66       1.0  0.98923  0.96561  0.13910  1.0000
  C   C67       1.0  0.23923  0.28439  0.38910  1.0000
  C   C68       1.0  0.26077  0.21561  0.38910  1.0000
  C   C69       1.0  0.01077  0.53439  0.63910  1.0000
  C   C70       1.0  0.98923  0.46561  0.63910  1.0000
  C   C71       1.0  0.23923  0.78439  0.88910  1.0000
  C   C72       1.0  0.26077  0.71561  0.88910  1.0000
  C   C73       1.0  0.51077  0.03439  0.63910  1.0000
  C   C74       1.0  0.48923  0.96561  0.63910  1.0000
  C   C75       1.0  0.73923  0.28439  0.88910  1.0000
  C   C76       1.0  0.76077  0.21561  0.88910  1.0000
  C   C77       1.0  0.51077  0.53439  0.13910  1.0000
  C   C78       1.0  0.48923  0.46561  0.13910  1.0000
  C   C79       1.0  0.73923  0.78439  0.38910  1.0000
  C   C80       1.0  0.76077  0.71561  0.38910  1.0000
  C   C81       1.0  0.97519  0.04529  0.08920  1.0000
  C   C82       1.0  0.02481  0.95471  0.08920  1.0000
  C   C83       1.0  0.27481  0.29529  0.33920  1.0000
  C   C84       1.0  0.22519  0.20471  0.33920  1.0000
  C   C85       1.0  0.97519  0.54529  0.58920  1.0000
  C   C86       1.0  0.02481  0.45471  0.58920  1.0000
  C   C87       1.0  0.27481  0.79529  0.83920  1.0000
  C   C88       1.0  0.22519  0.70471  0.83920  1.0000
  C   C89       1.0  0.47519  0.04529  0.58920  1.0000
  C   C90       1.0  0.52481  0.95471  0.58920  1.0000
  C   C91       1.0  0.77481  0.29529  0.83920  1.0000
  C   C92       1.0  0.72519  0.20471  0.83920  1.0000
  C   C93       1.0  0.47519  0.54529  0.08920  1.0000
  C   C94       1.0  0.52481  0.45471  0.08920  1.0000
  C   C95       1.0  0.77481  0.79529  0.33920  1.0000
  C   C96       1.0  0.72519  0.70471  0.33920  1.0000
  O   O1        1.0  0.94798  0.13918  0.47280  1.0000
  O   O2        1.0  0.05202  0.86082  0.47280  1.0000
  O   O3        1.0  0.30202  0.38918  0.72280  1.0000
  O   O4        1.0  0.19798  0.11082  0.72280  1.0000
  O   O5        1.0  0.94798  0.63918  0.97280  1.0000
  O   O6        1.0  0.05202  0.36082  0.97280  1.0000
  O   O7        1.0  0.30202  0.88918  0.22280  1.0000
  O   O8        1.0  0.19798  0.61082  0.22280  1.0000
  O   O9        1.0  0.44798  0.13918  0.97280  1.0000
  O   O10       1.0  0.55202  0.86082  0.97280  1.0000
  O   O11       1.0  0.80202  0.38918  0.22280  1.0000
  O   O12       1.0  0.69798  0.11082  0.22280  1.0000
  O   O13       1.0  0.44798  0.63918  0.47280  1.0000
  O   O14       1.0  0.55202  0.36082  0.47280  1.0000
  O   O15       1.0  0.80202  0.88918  0.72280  1.0000
  O   O16       1.0  0.69798  0.61082  0.72280  1.0000
  O   O17       1.0  0.00951  0.14625  0.33100  1.0000
  O   O18       1.0  0.99049  0.85375  0.33100  1.0000
  O   O19       1.0  0.24049  0.39625  0.58100  1.0000
  O   O20       1.0  0.25951  0.10375  0.58100  1.0000
  O   O21       1.0  0.00951  0.64625  0.83100  1.0000
  O   O22       1.0  0.99049  0.35375  0.83100  1.0000
  O   O23       1.0  0.24049  0.89625  0.08100  1.0000
  O   O24       1.0  0.25951  0.60375  0.08100  1.0000
  O   O25       1.0  0.50951  0.14625  0.83100  1.0000
  O   O26       1.0  0.49049  0.85375  0.83100  1.0000
  O   O27       1.0  0.74049  0.39625  0.08100  1.0000
  O   O28       1.0  0.75951  0.10375  0.08100  1.0000
  O   O29       1.0  0.50951  0.64625  0.33100  1.0000
  O   O30       1.0  0.49049  0.35375  0.33100  1.0000
  O   O31       1.0  0.74049  0.89625  0.58100  1.0000
  O   O32       1.0  0.75951  0.60375  0.58100  1.0000
  O   O33       1.0  0.00971  0.10030  0.29040  1.0000
  O   O34       1.0  0.99029  0.89970  0.29040  1.0000
  O   O35       1.0  0.24029  0.35030  0.54040  1.0000
  O   O36       1.0  0.25971  0.14970  0.54040  1.0000
  O   O37       1.0  0.00971  0.60030  0.79040  1.0000
  O   O38       1.0  0.99029  0.39970  0.79040  1.0000
  O   O39       1.0  0.24029  0.85030  0.04040  1.0000
  O   O40       1.0  0.25971  0.64970  0.04040  1.0000
  O   O41       1.0  0.50971  0.10030  0.79040  1.0000
  O   O42       1.0  0.49029  0.89970  0.79040  1.0000
  O   O43       1.0  0.74029  0.35030  0.04040  1.0000
  O   O44       1.0  0.75971  0.14970  0.04040  1.0000
  O   O45       1.0  0.50971  0.60030  0.29040  1.0000
  O   O46       1.0  0.49029  0.39970  0.29040  1.0000
  O   O47       1.0  0.74029  0.85030  0.54040  1.0000
  O   O48       1.0  0.75971  0.64970  0.54040  1.0000
  O   O49       1.0  0.95403  0.09323  0.44900  1.0000
  O   O50       1.0  0.04597  0.90677  0.44900  1.0000
  O   O51       1.0  0.29597  0.34323  0.69900  1.0000
  O   O52       1.0  0.20403  0.15677  0.69900  1.0000
  O   O53       1.0  0.95403  0.59323  0.94900  1.0000
  O   O54       1.0  0.04597  0.40677  0.94900  1.0000
  O   O55       1.0  0.29597  0.84323  0.19900  1.0000
  O   O56       1.0  0.20403  0.65677  0.19900  1.0000
  O   O57       1.0  0.45403  0.09323  0.94900  1.0000
  O   O58       1.0  0.54597  0.90677  0.94900  1.0000
  O   O59       1.0  0.79597  0.34323  0.19900  1.0000
  O   O60       1.0  0.70403  0.15677  0.19900  1.0000
  O   O61       1.0  0.45403  0.59323  0.44900  1.0000
  O   O62       1.0  0.54597  0.40677  0.44900  1.0000
  O   O63       1.0  0.79597  0.84323  0.69900  1.0000
  O   O64       1.0  0.70403  0.65677  0.69900  1.0000
  O   O65       1.0  0.96496  0.03248  0.45410  1.0000
  O   O66       1.0  0.03504  0.96752  0.45410  1.0000
  O   O67       1.0  0.28504  0.28248  0.70410  1.0000
  O   O68       1.0  0.21496  0.21752  0.70410  1.0000
  O   O69       1.0  0.96496  0.53248  0.95410  1.0000
  O   O70       1.0  0.03504  0.46752  0.95410  1.0000
  O   O71       1.0  0.28504  0.78248  0.20410  1.0000
  O   O72       1.0  0.21496  0.71752  0.20410  1.0000
  O   O73       1.0  0.46496  0.03248  0.95410  1.0000
  O   O74       1.0  0.53504  0.96752  0.95410  1.0000
  O   O75       1.0  0.78504  0.28248  0.20410  1.0000
  O   O76       1.0  0.71496  0.21752  0.20410  1.0000
  O   O77       1.0  0.46496  0.53248  0.45410  1.0000
  O   O78       1.0  0.53504  0.46752  0.45410  1.0000
  O   O79       1.0  0.78504  0.78248  0.70410  1.0000
  O   O80       1.0  0.71496  0.71752  0.70410  1.0000
  O   O81       1.0  0.01485  0.06697  0.54150  1.0000
  O   O82       1.0  0.98515  0.93303  0.54150  1.0000
  O   O83       1.0  0.23515  0.31697  0.79150  1.0000
  O   O84       1.0  0.26485  0.18303  0.79150  1.0000
  O   O85       1.0  0.01485  0.56697  0.04150  1.0000
  O   O86       1.0  0.98515  0.43303  0.04150  1.0000
  O   O87       1.0  0.23515  0.81697  0.29150  1.0000
  O   O88       1.0  0.26485  0.68303  0.29150  1.0000
  O   O89       1.0  0.51485  0.06697  0.04150  1.0000
  O   O90       1.0  0.48515  0.93303  0.04150  1.0000
  O   O91       1.0  0.73515  0.31697  0.29150  1.0000
  O   O92       1.0  0.76485  0.18303  0.29150  1.0000
  O   O93       1.0  0.51485  0.56697  0.54150  1.0000
  O   O94       1.0  0.48515  0.43303  0.54150  1.0000
  O   O95       1.0  0.73515  0.81697  0.79150  1.0000
  O   O96       1.0  0.76485  0.68303  0.79150  1.0000
  O   O97       1.0  0.01840  0.04431  0.74420  1.0000
  O   O98       1.0  0.98160  0.95569  0.74420  1.0000
  O   O99       1.0  0.23160  0.29431  0.99420  1.0000
  O   O100      1.0  0.26840  0.20569  0.99420  1.0000
  O   O101      1.0  0.01840  0.54431  0.24420  1.0000
  O   O102      1.0  0.98160  0.45569  0.24420  1.0000
  O   O103      1.0  0.23160  0.79431  0.49420  1.0000
  O   O104      1.0  0.26840  0.70569  0.49420  1.0000
  O   O105      1.0  0.51840  0.04431  0.24420  1.0000
  O   O106      1.0  0.48160  0.95569  0.24420  1.0000
  O   O107      1.0  0.73160  0.29431  0.49420  1.0000
  O   O108      1.0  0.76840  0.20569  0.49420  1.0000
  O   O109      1.0  0.51840  0.54431  0.74420  1.0000
  O   O110      1.0  0.48160  0.45569  0.74420  1.0000
  O   O111      1.0  0.73160  0.79431  0.99420  1.0000
  O   O112      1.0  0.76840  0.70569  0.99420  1.0000
  O   O113      1.0  0.96482  0.01149  0.66340  1.0000
  O   O114      1.0  0.03518  0.98851  0.66340  1.0000
  O   O115      1.0  0.28518  0.26149  0.91340  1.0000
  O   O116      1.0  0.21482  0.23851  0.91340  1.0000
  O   O117      1.0  0.96482  0.51149  0.16340  1.0000
  O   O118      1.0  0.03518  0.48851  0.16340  1.0000
  O   O119      1.0  0.28518  0.76149  0.41340  1.0000
  O   O120      1.0  0.21482  0.73851  0.41340  1.0000
  O   O121      1.0  0.46482  0.01149  0.16340  1.0000
  O   O122      1.0  0.53518  0.98851  0.16340  1.0000
  O   O123      1.0  0.78518  0.26149  0.41340  1.0000
  O   O124      1.0  0.71482  0.23851  0.41340  1.0000
  O   O125      1.0  0.46482  0.51149  0.66340  1.0000
  O   O126      1.0  0.53518  0.48851  0.66340  1.0000
  O   O127      1.0  0.78518  0.76149  0.91340  1.0000
  O   O128      1.0  0.71482  0.73851  0.91340  1.0000
  O   O129      1.0  0.96015  0.06172  0.18080  1.0000
  O   O130      1.0  0.03985  0.93828  0.18080  1.0000
  O   O131      1.0  0.28985  0.31172  0.43080  1.0000
  O   O132      1.0  0.21015  0.18828  0.43080  1.0000
  O   O133      1.0  0.96015  0.56172  0.68080  1.0000
  O   O134      1.0  0.03985  0.43828  0.68080  1.0000
  O   O135      1.0  0.28985  0.81172  0.93080  1.0000
  O   O136      1.0  0.21015  0.68828  0.93080  1.0000
  O   O137      1.0  0.46015  0.06172  0.68080  1.0000
  O   O138      1.0  0.53985  0.93828  0.68080  1.0000
  O   O139      1.0  0.78985  0.31172  0.93080  1.0000
  O   O140      1.0  0.71015  0.18828  0.93080  1.0000
  O   O141      1.0  0.46015  0.56172  0.18080  1.0000
  O   O142      1.0  0.53985  0.43828  0.18080  1.0000
  O   O143      1.0  0.78985  0.81172  0.43080  1.0000
  O   O144      1.0  0.71015  0.68828  0.43080  1.0000
  O   O145      1.0  0.02023  0.04051  0.26250  1.0000
  O   O146      1.0  0.97977  0.95949  0.26250  1.0000
  O   O147      1.0  0.22977  0.29051  0.51250  1.0000
  O   O148      1.0  0.27023  0.20949  0.51250  1.0000
  O   O149      1.0  0.02023  0.54051  0.76250  1.0000
  O   O150      1.0  0.97977  0.45949  0.76250  1.0000
  O   O151      1.0  0.22977  0.79051  0.01250  1.0000
  O   O152      1.0  0.27023  0.70949  0.01250  1.0000
  O   O153      1.0  0.52023  0.04051  0.76250  1.0000
  O   O154      1.0  0.47977  0.95949  0.76250  1.0000
  O   O155      1.0  0.72977  0.29051  0.01250  1.0000
  O   O156      1.0  0.77023  0.20949  0.01250  1.0000
  O   O157      1.0  0.52023  0.54051  0.26250  1.0000
  O   O158      1.0  0.47977  0.45949  0.26250  1.0000
  O   O159      1.0  0.72977  0.79051  0.51250  1.0000
  O   O160      1.0  0.77023  0.70949  0.51250  1.0000
  O   O161      1.0  0.96358  0.03812  0.97710  1.0000
  O   O162      1.0  0.03642  0.96188  0.97710  1.0000
  O   O163      1.0  0.28642  0.28812  0.22710  1.0000
  O   O164      1.0  0.21358  0.21188  0.22710  1.0000
  O   O165      1.0  0.96358  0.53812  0.47710  1.0000
  O   O166      1.0  0.03642  0.46188  0.47710  1.0000
  O   O167      1.0  0.28642  0.78812  0.72710  1.0000
  O   O168      1.0  0.21358  0.71188  0.72710  1.0000
  O   O169      1.0  0.46358  0.03812  0.47710  1.0000
  O   O170      1.0  0.53642  0.96188  0.47710  1.0000
  O   O171      1.0  0.78642  0.28812  0.72710  1.0000
  O   O172      1.0  0.71358  0.21188  0.72710  1.0000
  O   O173      1.0  0.46358  0.53812  0.97710  1.0000
  O   O174      1.0  0.53642  0.46188  0.97710  1.0000
  O   O175      1.0  0.78642  0.78812  0.22710  1.0000
  O   O176      1.0  0.71358  0.71188  0.22710  1.0000
  O   O177      1.0  0.02806  0.02066  0.05270  1.0000
  O   O178      1.0  0.97194  0.97934  0.05270  1.0000
  O   O179      1.0  0.22194  0.27066  0.30270  1.0000
  O   O180      1.0  0.27806  0.22934  0.30270  1.0000
  O   O181      1.0  0.02806  0.52066  0.55270  1.0000
  O   O182      1.0  0.97194  0.47934  0.55270  1.0000
  O   O183      1.0  0.22194  0.77066  0.80270  1.0000
  O   O184      1.0  0.27806  0.72934  0.80270  1.0000
  O   O185      1.0  0.52806  0.02066  0.55270  1.0000
  O   O186      1.0  0.47194  0.97934  0.55270  1.0000
  O   O187      1.0  0.72194  0.27066  0.80270  1.0000
  O   O188      1.0  0.77806  0.22934  0.80270  1.0000
  O   O189      1.0  0.52806  0.52066  0.05270  1.0000
  O   O190      1.0  0.47194  0.47934  0.05270  1.0000
  O   O191      1.0  0.72194  0.77066  0.30270  1.0000
  O   O192      1.0  0.77806  0.72934  0.30270  1.0000
  Rh  Rh1       1.0  0.98707  0.06586  0.36170  1.0000
  Rh  Rh2       1.0  0.01293  0.93414  0.36170  1.0000
  Rh  Rh3       1.0  0.26293  0.31586  0.61170  1.0000
  Rh  Rh4       1.0  0.23707  0.18414  0.61170  1.0000
  Rh  Rh5       1.0  0.98707  0.56586  0.86170  1.0000
  Rh  Rh6       1.0  0.01293  0.43414  0.86170  1.0000
  Rh  Rh7       1.0  0.26293  0.81586  0.11170  1.0000
  Rh  Rh8       1.0  0.23707  0.68414  0.11170  1.0000
  Rh  Rh9       1.0  0.48707  0.06586  0.86170  1.0000
  Rh  Rh10      1.0  0.51293  0.93414  0.86170  1.0000
  Rh  Rh11      1.0  0.76293  0.31586  0.11170  1.0000
  Rh  Rh12      1.0  0.73707  0.18414  0.11170  1.0000
  Rh  Rh13      1.0  0.48707  0.56586  0.36170  1.0000
  Rh  Rh14      1.0  0.51293  0.43414  0.36170  1.0000
  Rh  Rh15      1.0  0.76293  0.81586  0.61170  1.0000
  Rh  Rh16      1.0  0.73707  0.68414  0.61170  1.0000
  Mn  Mn1       1.0  0.00000  0.00000  0.85973  1.0000
  Mn  Mn2       1.0  0.25000  0.25000  0.10973  1.0000
  Mn  Mn3       1.0  0.00000  0.50000  0.35973  1.0000
  Mn  Mn4       1.0  0.25000  0.75000  0.60973  1.0000
  Mn  Mn5       1.0  0.50000  0.00000  0.35973  1.0000
  Mn  Mn6       1.0  0.75000  0.25000  0.60973  1.0000
  Mn  Mn7       1.0  0.50000  0.50000  0.85973  1.0000
  Mn  Mn8       1.0  0.75000  0.75000  0.10973  1.0000
