data_image0
_chemical_formula_structural       C96O192Cr16Mn8
_chemical_formula_sum              "C96 O192 Cr16 Mn8"
_cell_length_a       39.299
_cell_length_b       48.612
_cell_length_c       9.4962
_cell_angle_alpha    90
_cell_angle_beta     90
_cell_angle_gamma    90

_space_group_name_H-M_alt    "P 1"
_space_group_IT_number       1

loop_
  _space_group_symop_operation_xyz
  'x, y, z'

loop_
  _atom_site_type_symbol
  _atom_site_label
  _atom_site_symmetry_multiplicity
  _atom_site_fract_x
  _atom_site_fract_y
  _atom_site_fract_z
  _atom_site_occupancy
  C   C1        1.0  0.99670  0.12200  0.35000  1.0000
  C   C2        1.0  0.00330  0.87800  0.35000  1.0000
  C   C3        1.0  0.25330  0.37200  0.60000  1.0000
  C   C4        1.0  0.24670  0.12800  0.60000  1.0000
  C   C5        1.0  0.99670  0.62200  0.85000  1.0000
  C   C6        1.0  0.00330  0.37800  0.85000  1.0000
  C   C7        1.0  0.25330  0.87200  0.10000  1.0000
  C   C8        1.0  0.24670  0.62800  0.10000  1.0000
  C   C9        1.0  0.49670  0.12200  0.85000  1.0000
  C   C10       1.0  0.50330  0.87800  0.85000  1.0000
  C   C11       1.0  0.75330  0.37200  0.10000  1.0000
  C   C12       1.0  0.74670  0.12800  0.10000  1.0000
  C   C13       1.0  0.49670  0.62200  0.35000  1.0000
  C   C14       1.0  0.50330  0.37800  0.35000  1.0000
  C   C15       1.0  0.75330  0.87200  0.60000  1.0000
  C   C16       1.0  0.74670  0.62800  0.60000  1.0000
  C   C17       1.0  0.96250  0.11790  0.42710  1.0000
  C   C18       1.0  0.03750  0.88210  0.42710  1.0000
  C   C19       1.0  0.28750  0.36790  0.67710  1.0000
  C   C20       1.0  0.21250  0.13210  0.67710  1.0000
  C   C21       1.0  0.96250  0.61790  0.92710  1.0000
  C   C22       1.0  0.03750  0.38210  0.92710  1.0000
  C   C23       1.0  0.28750  0.86790  0.17710  1.0000
  C   C24       1.0  0.21250  0.63210  0.17710  1.0000
  C   C25       1.0  0.46250  0.11790  0.92710  1.0000
  C   C26       1.0  0.53750  0.88210  0.92710  1.0000
  C   C27       1.0  0.78750  0.36790  0.17710  1.0000
  C   C28       1.0  0.71250  0.13210  0.17710  1.0000
  C   C29       1.0  0.46250  0.61790  0.42710  1.0000
  C   C30       1.0  0.53750  0.38210  0.42710  1.0000
  C   C31       1.0  0.78750  0.86790  0.67710  1.0000
  C   C32       1.0  0.71250  0.63210  0.67710  1.0000
  C   C33       1.0  0.00640  0.04810  0.63660  1.0000
  C   C34       1.0  0.99360  0.95190  0.63660  1.0000
  C   C35       1.0  0.24360  0.29810  0.88660  1.0000
  C   C36       1.0  0.25640  0.20190  0.88660  1.0000
  C   C37       1.0  0.00640  0.54810  0.13660  1.0000
  C   C38       1.0  0.99360  0.45190  0.13660  1.0000
  C   C39       1.0  0.24360  0.79810  0.38660  1.0000
  C   C40       1.0  0.25640  0.70190  0.38660  1.0000
  C   C41       1.0  0.50640  0.04810  0.13660  1.0000
  C   C42       1.0  0.49360  0.95190  0.13660  1.0000
  C   C43       1.0  0.74360  0.29810  0.38660  1.0000
  C   C44       1.0  0.75640  0.20190  0.38660  1.0000
  C   C45       1.0  0.50640  0.54810  0.63660  1.0000
  C   C46       1.0  0.49360  0.45190  0.63660  1.0000
  C   C47       1.0  0.74360  0.79810  0.88660  1.0000
  C   C48       1.0  0.75640  0.70190  0.88660  1.0000
  C   C49       1.0  0.97620  0.02900  0.59870  1.0000
  C   C50       1.0  0.02380  0.97100  0.59870  1.0000
  C   C51       1.0  0.27380  0.27900  0.84870  1.0000
  C   C52       1.0  0.22620  0.22100  0.84870  1.0000
  C   C53       1.0  0.97620  0.52900  0.09870  1.0000
  C   C54       1.0  0.02380  0.47100  0.09870  1.0000
  C   C55       1.0  0.27380  0.77900  0.34870  1.0000
  C   C56       1.0  0.22620  0.72100  0.34870  1.0000
  C   C57       1.0  0.47620  0.02900  0.09870  1.0000
  C   C58       1.0  0.52380  0.97100  0.09870  1.0000
  C   C59       1.0  0.77380  0.27900  0.34870  1.0000
  C   C60       1.0  0.72620  0.22100  0.34870  1.0000
  C   C61       1.0  0.47620  0.52900  0.59870  1.0000
  C   C62       1.0  0.52380  0.47100  0.59870  1.0000
  C   C63       1.0  0.77380  0.77900  0.84870  1.0000
  C   C64       1.0  0.72620  0.72100  0.84870  1.0000
  C   C65       1.0  0.00990  0.03470  0.13550  1.0000
  C   C66       1.0  0.99010  0.96530  0.13550  1.0000
  C   C67       1.0  0.24010  0.28470  0.38550  1.0000
  C   C68       1.0  0.25990  0.21530  0.38550  1.0000
  C   C69       1.0  0.00990  0.53470  0.63550  1.0000
  C   C70       1.0  0.99010  0.46530  0.63550  1.0000
  C   C71       1.0  0.24010  0.78470  0.88550  1.0000
  C   C72       1.0  0.25990  0.71530  0.88550  1.0000
  C   C73       1.0  0.50990  0.03470  0.63550  1.0000
  C   C74       1.0  0.49010  0.96530  0.63550  1.0000
  C   C75       1.0  0.74010  0.28470  0.88550  1.0000
  C   C76       1.0  0.75990  0.21530  0.88550  1.0000
  C   C77       1.0  0.50990  0.53470  0.13550  1.0000
  C   C78       1.0  0.49010  0.46530  0.13550  1.0000
  C   C79       1.0  0.74010  0.78470  0.38550  1.0000
  C   C80       1.0  0.75990  0.71530  0.38550  1.0000
  C   C81       1.0  0.97420  0.04430  0.08690  1.0000
  C   C82       1.0  0.02580  0.95570  0.08690  1.0000
  C   C83       1.0  0.27580  0.29430  0.33690  1.0000
  C   C84       1.0  0.22420  0.20570  0.33690  1.0000
  C   C85       1.0  0.97420  0.54430  0.58690  1.0000
  C   C86       1.0  0.02580  0.45570  0.58690  1.0000
  C   C87       1.0  0.27580  0.79430  0.83690  1.0000
  C   C88       1.0  0.22420  0.70570  0.83690  1.0000
  C   C89       1.0  0.47420  0.04430  0.58690  1.0000
  C   C90       1.0  0.52580  0.95570  0.58690  1.0000
  C   C91       1.0  0.77580  0.29430  0.83690  1.0000
  C   C92       1.0  0.72420  0.20570  0.83690  1.0000
  C   C93       1.0  0.47420  0.54430  0.08690  1.0000
  C   C94       1.0  0.52580  0.45570  0.08690  1.0000
  C   C95       1.0  0.77580  0.79430  0.33690  1.0000
  C   C96       1.0  0.72420  0.70570  0.33690  1.0000
  O   O1        1.0  0.94623  0.13772  0.46750  1.0000
  O   O2        1.0  0.05377  0.86228  0.46750  1.0000
  O   O3        1.0  0.30377  0.38772  0.71750  1.0000
  O   O4        1.0  0.19623  0.11228  0.71750  1.0000
  O   O5        1.0  0.94623  0.63772  0.96750  1.0000
  O   O6        1.0  0.05377  0.36228  0.96750  1.0000
  O   O7        1.0  0.30377  0.88772  0.21750  1.0000
  O   O8        1.0  0.19623  0.61228  0.21750  1.0000
  O   O9        1.0  0.44623  0.13772  0.96750  1.0000
  O   O10       1.0  0.55377  0.86228  0.96750  1.0000
  O   O11       1.0  0.80377  0.38772  0.21750  1.0000
  O   O12       1.0  0.69623  0.11228  0.21750  1.0000
  O   O13       1.0  0.44623  0.63772  0.46750  1.0000
  O   O14       1.0  0.55377  0.36228  0.46750  1.0000
  O   O15       1.0  0.80377  0.88772  0.71750  1.0000
  O   O16       1.0  0.69623  0.61228  0.71750  1.0000
  O   O17       1.0  0.00931  0.14472  0.33470  1.0000
  O   O18       1.0  0.99069  0.85528  0.33470  1.0000
  O   O19       1.0  0.24069  0.39472  0.58470  1.0000
  O   O20       1.0  0.25931  0.10528  0.58470  1.0000
  O   O21       1.0  0.00931  0.64472  0.83470  1.0000
  O   O22       1.0  0.99069  0.35528  0.83470  1.0000
  O   O23       1.0  0.24069  0.89472  0.08470  1.0000
  O   O24       1.0  0.25931  0.60528  0.08470  1.0000
  O   O25       1.0  0.50931  0.14472  0.83470  1.0000
  O   O26       1.0  0.49069  0.85528  0.83470  1.0000
  O   O27       1.0  0.74069  0.39472  0.08470  1.0000
  O   O28       1.0  0.75931  0.10528  0.08470  1.0000
  O   O29       1.0  0.50931  0.64472  0.33470  1.0000
  O   O30       1.0  0.49069  0.35528  0.33470  1.0000
  O   O31       1.0  0.74069  0.89472  0.58470  1.0000
  O   O32       1.0  0.75931  0.60528  0.58470  1.0000
  O   O33       1.0  0.00968  0.09910  0.30300  1.0000
  O   O34       1.0  0.99032  0.90090  0.30300  1.0000
  O   O35       1.0  0.24032  0.34910  0.55300  1.0000
  O   O36       1.0  0.25968  0.15090  0.55300  1.0000
  O   O37       1.0  0.00968  0.59910  0.80300  1.0000
  O   O38       1.0  0.99032  0.40090  0.80300  1.0000
  O   O39       1.0  0.24032  0.84910  0.05300  1.0000
  O   O40       1.0  0.25968  0.65090  0.05300  1.0000
  O   O41       1.0  0.50968  0.09910  0.80300  1.0000
  O   O42       1.0  0.49032  0.90090  0.80300  1.0000
  O   O43       1.0  0.74032  0.34910  0.05300  1.0000
  O   O44       1.0  0.75968  0.15090  0.05300  1.0000
  O   O45       1.0  0.50968  0.59910  0.30300  1.0000
  O   O46       1.0  0.49032  0.40090  0.30300  1.0000
  O   O47       1.0  0.74032  0.84910  0.55300  1.0000
  O   O48       1.0  0.75968  0.65090  0.55300  1.0000
  O   O49       1.0  0.95464  0.09271  0.44580  1.0000
  O   O50       1.0  0.04536  0.90729  0.44580  1.0000
  O   O51       1.0  0.29536  0.34271  0.69580  1.0000
  O   O52       1.0  0.20464  0.15729  0.69580  1.0000
  O   O53       1.0  0.95464  0.59271  0.94580  1.0000
  O   O54       1.0  0.04536  0.40729  0.94580  1.0000
  O   O55       1.0  0.29536  0.84271  0.19580  1.0000
  O   O56       1.0  0.20464  0.65729  0.19580  1.0000
  O   O57       1.0  0.45464  0.09271  0.94580  1.0000
  O   O58       1.0  0.54536  0.90729  0.94580  1.0000
  O   O59       1.0  0.79536  0.34271  0.19580  1.0000
  O   O60       1.0  0.70464  0.15729  0.19580  1.0000
  O   O61       1.0  0.45464  0.59271  0.44580  1.0000
  O   O62       1.0  0.54536  0.40729  0.44580  1.0000
  O   O63       1.0  0.79536  0.84271  0.69580  1.0000
  O   O64       1.0  0.70464  0.65729  0.69580  1.0000
  O   O65       1.0  0.96522  0.03412  0.46330  1.0000
  O   O66       1.0  0.03478  0.96588  0.46330  1.0000
  O   O67       1.0  0.28478  0.28412  0.71330  1.0000
  O   O68       1.0  0.21522  0.21588  0.71330  1.0000
  O   O69       1.0  0.96522  0.53412  0.96330  1.0000
  O   O70       1.0  0.03478  0.46588  0.96330  1.0000
  O   O71       1.0  0.28478  0.78412  0.21330  1.0000
  O   O72       1.0  0.21522  0.71588  0.21330  1.0000
  O   O73       1.0  0.46522  0.03412  0.96330  1.0000
  O   O74       1.0  0.53478  0.96588  0.96330  1.0000
  O   O75       1.0  0.78478  0.28412  0.21330  1.0000
  O   O76       1.0  0.71522  0.21588  0.21330  1.0000
  O   O77       1.0  0.46522  0.53412  0.46330  1.0000
  O   O78       1.0  0.53478  0.46588  0.46330  1.0000
  O   O79       1.0  0.78478  0.78412  0.71330  1.0000
  O   O80       1.0  0.71522  0.71588  0.71330  1.0000
  O   O81       1.0  0.01453  0.06547  0.53920  1.0000
  O   O82       1.0  0.98547  0.93453  0.53920  1.0000
  O   O83       1.0  0.23547  0.31547  0.78920  1.0000
  O   O84       1.0  0.26453  0.18453  0.78920  1.0000
  O   O85       1.0  0.01453  0.56547  0.03920  1.0000
  O   O86       1.0  0.98547  0.43453  0.03920  1.0000
  O   O87       1.0  0.23547  0.81547  0.28920  1.0000
  O   O88       1.0  0.26453  0.68453  0.28920  1.0000
  O   O89       1.0  0.51453  0.06547  0.03920  1.0000
  O   O90       1.0  0.48547  0.93453  0.03920  1.0000
  O   O91       1.0  0.73547  0.31547  0.28920  1.0000
  O   O92       1.0  0.76453  0.18453  0.28920  1.0000
  O   O93       1.0  0.51453  0.56547  0.53920  1.0000
  O   O94       1.0  0.48547  0.43453  0.53920  1.0000
  O   O95       1.0  0.73547  0.81547  0.78920  1.0000
  O   O96       1.0  0.76453  0.68453  0.78920  1.0000
  O   O97       1.0  0.02000  0.04387  0.74850  1.0000
  O   O98       1.0  0.98000  0.95613  0.74850  1.0000
  O   O99       1.0  0.23000  0.29387  0.99850  1.0000
  O   O100      1.0  0.27000  0.20613  0.99850  1.0000
  O   O101      1.0  0.02000  0.54387  0.24850  1.0000
  O   O102      1.0  0.98000  0.45613  0.24850  1.0000
  O   O103      1.0  0.23000  0.79387  0.49850  1.0000
  O   O104      1.0  0.27000  0.70613  0.49850  1.0000
  O   O105      1.0  0.52000  0.04387  0.24850  1.0000
  O   O106      1.0  0.48000  0.95613  0.24850  1.0000
  O   O107      1.0  0.73000  0.29387  0.49850  1.0000
  O   O108      1.0  0.77000  0.20613  0.49850  1.0000
  O   O109      1.0  0.52000  0.54387  0.74850  1.0000
  O   O110      1.0  0.48000  0.45613  0.74850  1.0000
  O   O111      1.0  0.73000  0.79387  0.99850  1.0000
  O   O112      1.0  0.77000  0.70613  0.99850  1.0000
  O   O113      1.0  0.96502  0.01155  0.67090  1.0000
  O   O114      1.0  0.03498  0.98845  0.67090  1.0000
  O   O115      1.0  0.28498  0.26155  0.92090  1.0000
  O   O116      1.0  0.21502  0.23845  0.92090  1.0000
  O   O117      1.0  0.96502  0.51155  0.17090  1.0000
  O   O118      1.0  0.03498  0.48845  0.17090  1.0000
  O   O119      1.0  0.28498  0.76155  0.42090  1.0000
  O   O120      1.0  0.21502  0.73845  0.42090  1.0000
  O   O121      1.0  0.46502  0.01155  0.17090  1.0000
  O   O122      1.0  0.53498  0.98845  0.17090  1.0000
  O   O123      1.0  0.78498  0.26155  0.42090  1.0000
  O   O124      1.0  0.71502  0.23845  0.42090  1.0000
  O   O125      1.0  0.46502  0.51155  0.67090  1.0000
  O   O126      1.0  0.53498  0.48845  0.67090  1.0000
  O   O127      1.0  0.78498  0.76155  0.92090  1.0000
  O   O128      1.0  0.71502  0.73845  0.92090  1.0000
  O   O129      1.0  0.96027  0.06019  0.18950  1.0000
  O   O130      1.0  0.03973  0.93981  0.18950  1.0000
  O   O131      1.0  0.28973  0.31019  0.43950  1.0000
  O   O132      1.0  0.21027  0.18981  0.43950  1.0000
  O   O133      1.0  0.96027  0.56019  0.68950  1.0000
  O   O134      1.0  0.03973  0.43981  0.68950  1.0000
  O   O135      1.0  0.28973  0.81019  0.93950  1.0000
  O   O136      1.0  0.21027  0.68981  0.93950  1.0000
  O   O137      1.0  0.46027  0.06019  0.68950  1.0000
  O   O138      1.0  0.53973  0.93981  0.68950  1.0000
  O   O139      1.0  0.78973  0.31019  0.93950  1.0000
  O   O140      1.0  0.71027  0.18981  0.93950  1.0000
  O   O141      1.0  0.46027  0.56019  0.18950  1.0000
  O   O142      1.0  0.53973  0.43981  0.18950  1.0000
  O   O143      1.0  0.78973  0.81019  0.43950  1.0000
  O   O144      1.0  0.71027  0.68981  0.43950  1.0000
  O   O145      1.0  0.01860  0.04176  0.25980  1.0000
  O   O146      1.0  0.98140  0.95824  0.25980  1.0000
  O   O147      1.0  0.23140  0.29176  0.50980  1.0000
  O   O148      1.0  0.26860  0.20824  0.50980  1.0000
  O   O149      1.0  0.01860  0.54176  0.75980  1.0000
  O   O150      1.0  0.98140  0.45824  0.75980  1.0000
  O   O151      1.0  0.23140  0.79176  0.00980  1.0000
  O   O152      1.0  0.26860  0.70824  0.00980  1.0000
  O   O153      1.0  0.51860  0.04176  0.75980  1.0000
  O   O154      1.0  0.48140  0.95824  0.75980  1.0000
  O   O155      1.0  0.73140  0.29176  0.00980  1.0000
  O   O156      1.0  0.76860  0.20824  0.00980  1.0000
  O   O157      1.0  0.51860  0.54176  0.25980  1.0000
  O   O158      1.0  0.48140  0.45824  0.25980  1.0000
  O   O159      1.0  0.73140  0.79176  0.50980  1.0000
  O   O160      1.0  0.76860  0.70824  0.50980  1.0000
  O   O161      1.0  0.96130  0.03787  0.98300  1.0000
  O   O162      1.0  0.03870  0.96213  0.98300  1.0000
  O   O163      1.0  0.28870  0.28787  0.23300  1.0000
  O   O164      1.0  0.21130  0.21213  0.23300  1.0000
  O   O165      1.0  0.96130  0.53787  0.48300  1.0000
  O   O166      1.0  0.03870  0.46213  0.48300  1.0000
  O   O167      1.0  0.28870  0.78787  0.73300  1.0000
  O   O168      1.0  0.21130  0.71213  0.73300  1.0000
  O   O169      1.0  0.46130  0.03787  0.48300  1.0000
  O   O170      1.0  0.53870  0.96213  0.48300  1.0000
  O   O171      1.0  0.78870  0.28787  0.73300  1.0000
  O   O172      1.0  0.71130  0.21213  0.73300  1.0000
  O   O173      1.0  0.46130  0.53787  0.98300  1.0000
  O   O174      1.0  0.53870  0.46213  0.98300  1.0000
  O   O175      1.0  0.78870  0.78787  0.23300  1.0000
  O   O176      1.0  0.71130  0.71213  0.23300  1.0000
  O   O177      1.0  0.02650  0.02100  0.05270  1.0000
  O   O178      1.0  0.97350  0.97900  0.05270  1.0000
  O   O179      1.0  0.22350  0.27100  0.30270  1.0000
  O   O180      1.0  0.27650  0.22900  0.30270  1.0000
  O   O181      1.0  0.02650  0.52100  0.55270  1.0000
  O   O182      1.0  0.97350  0.47900  0.55270  1.0000
  O   O183      1.0  0.22350  0.77100  0.80270  1.0000
  O   O184      1.0  0.27650  0.72900  0.80270  1.0000
  O   O185      1.0  0.52650  0.02100  0.55270  1.0000
  O   O186      1.0  0.47350  0.97900  0.55270  1.0000
  O   O187      1.0  0.72350  0.27100  0.80270  1.0000
  O   O188      1.0  0.77650  0.22900  0.80270  1.0000
  O   O189      1.0  0.52650  0.52100  0.05270  1.0000
  O   O190      1.0  0.47350  0.47900  0.05270  1.0000
  O   O191      1.0  0.72350  0.77100  0.30270  1.0000
  O   O192      1.0  0.77650  0.72900  0.30270  1.0000
  Cr  Cr1       1.0  0.98670  0.06583  0.36640  1.0000
  Cr  Cr2       1.0  0.01330  0.93417  0.36640  1.0000
  Cr  Cr3       1.0  0.26330  0.31583  0.61640  1.0000
  Cr  Cr4       1.0  0.23670  0.18417  0.61640  1.0000
  Cr  Cr5       1.0  0.98670  0.56583  0.86640  1.0000
  Cr  Cr6       1.0  0.01330  0.43417  0.86640  1.0000
  Cr  Cr7       1.0  0.26330  0.81583  0.11640  1.0000
  Cr  Cr8       1.0  0.23670  0.68417  0.11640  1.0000
  Cr  Cr9       1.0  0.48670  0.06583  0.86640  1.0000
  Cr  Cr10      1.0  0.51330  0.93417  0.86640  1.0000
  Cr  Cr11      1.0  0.76330  0.31583  0.11640  1.0000
  Cr  Cr12      1.0  0.73670  0.18417  0.11640  1.0000
  Cr  Cr13      1.0  0.48670  0.56583  0.36640  1.0000
  Cr  Cr14      1.0  0.51330  0.43417  0.36640  1.0000
  Cr  Cr15      1.0  0.76330  0.81583  0.61640  1.0000
  Cr  Cr16      1.0  0.73670  0.68417  0.61640  1.0000
  Mn  Mn1       1.0  0.00000  0.00000  0.86240  1.0000
  Mn  Mn2       1.0  0.25000  0.25000  0.11240  1.0000
  Mn  Mn3       1.0  0.00000  0.50000  0.36240  1.0000
  Mn  Mn4       1.0  0.25000  0.75000  0.61240  1.0000
  Mn  Mn5       1.0  0.50000  0.00000  0.36240  1.0000
  Mn  Mn6       1.0  0.75000  0.25000  0.61240  1.0000
  Mn  Mn7       1.0  0.50000  0.50000  0.86240  1.0000
  Mn  Mn8       1.0  0.75000  0.75000  0.11240  1.0000
