data_image0
_chemical_formula_structural       C96O192Fe16Mn8
_chemical_formula_sum              "C96 O192 Fe16 Mn8"
_cell_length_a       39.406
_cell_length_b       48.573
_cell_length_c       9.4673
_cell_angle_alpha    90
_cell_angle_beta     90
_cell_angle_gamma    90

_space_group_name_H-M_alt    "P 1"
_space_group_IT_number       1

loop_
  _space_group_symop_operation_xyz
  'x, y, z'

loop_
  _atom_site_type_symbol
  _atom_site_label
  _atom_site_symmetry_multiplicity
  _atom_site_fract_x
  _atom_site_fract_y
  _atom_site_fract_z
  _atom_site_occupancy
  C   C1        1.0  0.99764  0.12256  0.35500  1.0000
  C   C2        1.0  0.00236  0.87744  0.35500  1.0000
  C   C3        1.0  0.25236  0.37256  0.60500  1.0000
  C   C4        1.0  0.24764  0.12744  0.60500  1.0000
  C   C5        1.0  0.99764  0.62256  0.85500  1.0000
  C   C6        1.0  0.00236  0.37744  0.85500  1.0000
  C   C7        1.0  0.25236  0.87256  0.10500  1.0000
  C   C8        1.0  0.24764  0.62744  0.10500  1.0000
  C   C9        1.0  0.49764  0.12256  0.85500  1.0000
  C   C10       1.0  0.50236  0.87744  0.85500  1.0000
  C   C11       1.0  0.75236  0.37256  0.10500  1.0000
  C   C12       1.0  0.74764  0.12744  0.10500  1.0000
  C   C13       1.0  0.49764  0.62256  0.35500  1.0000
  C   C14       1.0  0.50236  0.37744  0.35500  1.0000
  C   C15       1.0  0.75236  0.87256  0.60500  1.0000
  C   C16       1.0  0.74764  0.62744  0.60500  1.0000
  C   C17       1.0  0.96300  0.11879  0.42680  1.0000
  C   C18       1.0  0.03700  0.88121  0.42680  1.0000
  C   C19       1.0  0.28700  0.36879  0.67680  1.0000
  C   C20       1.0  0.21300  0.13121  0.67680  1.0000
  C   C21       1.0  0.96300  0.61879  0.92680  1.0000
  C   C22       1.0  0.03700  0.38121  0.92680  1.0000
  C   C23       1.0  0.28700  0.86879  0.17680  1.0000
  C   C24       1.0  0.21300  0.63121  0.17680  1.0000
  C   C25       1.0  0.46300  0.11879  0.92680  1.0000
  C   C26       1.0  0.53700  0.88121  0.92680  1.0000
  C   C27       1.0  0.78700  0.36879  0.17680  1.0000
  C   C28       1.0  0.71300  0.13121  0.17680  1.0000
  C   C29       1.0  0.46300  0.61879  0.42680  1.0000
  C   C30       1.0  0.53700  0.38121  0.42680  1.0000
  C   C31       1.0  0.78700  0.86879  0.67680  1.0000
  C   C32       1.0  0.71300  0.63121  0.67680  1.0000
  C   C33       1.0  0.00726  0.04663  0.63500  1.0000
  C   C34       1.0  0.99274  0.95337  0.63500  1.0000
  C   C35       1.0  0.24274  0.29663  0.88500  1.0000
  C   C36       1.0  0.25726  0.20337  0.88500  1.0000
  C   C37       1.0  0.00726  0.54663  0.13500  1.0000
  C   C38       1.0  0.99274  0.45337  0.13500  1.0000
  C   C39       1.0  0.24274  0.79663  0.38500  1.0000
  C   C40       1.0  0.25726  0.70337  0.38500  1.0000
  C   C41       1.0  0.50726  0.04663  0.13500  1.0000
  C   C42       1.0  0.49274  0.95337  0.13500  1.0000
  C   C43       1.0  0.74274  0.29663  0.38500  1.0000
  C   C44       1.0  0.75726  0.20337  0.38500  1.0000
  C   C45       1.0  0.50726  0.54663  0.63500  1.0000
  C   C46       1.0  0.49274  0.45337  0.63500  1.0000
  C   C47       1.0  0.74274  0.79663  0.88500  1.0000
  C   C48       1.0  0.75726  0.70337  0.88500  1.0000
  C   C49       1.0  0.97600  0.02942  0.59490  1.0000
  C   C50       1.0  0.02400  0.97058  0.59490  1.0000
  C   C51       1.0  0.27400  0.27942  0.84490  1.0000
  C   C52       1.0  0.22600  0.22058  0.84490  1.0000
  C   C53       1.0  0.97600  0.52942  0.09490  1.0000
  C   C54       1.0  0.02400  0.47058  0.09490  1.0000
  C   C55       1.0  0.27400  0.77942  0.34490  1.0000
  C   C56       1.0  0.22600  0.72058  0.34490  1.0000
  C   C57       1.0  0.47600  0.02942  0.09490  1.0000
  C   C58       1.0  0.52400  0.97058  0.09490  1.0000
  C   C59       1.0  0.77400  0.27942  0.34490  1.0000
  C   C60       1.0  0.72600  0.22058  0.34490  1.0000
  C   C61       1.0  0.47600  0.52942  0.59490  1.0000
  C   C62       1.0  0.52400  0.47058  0.59490  1.0000
  C   C63       1.0  0.77400  0.77942  0.84490  1.0000
  C   C64       1.0  0.72600  0.72058  0.84490  1.0000
  C   C65       1.0  0.00975  0.03459  0.13080  1.0000
  C   C66       1.0  0.99025  0.96541  0.13080  1.0000
  C   C67       1.0  0.24025  0.28459  0.38080  1.0000
  C   C68       1.0  0.25975  0.21541  0.38080  1.0000
  C   C69       1.0  0.00975  0.53459  0.63080  1.0000
  C   C70       1.0  0.99025  0.46541  0.63080  1.0000
  C   C71       1.0  0.24025  0.78459  0.88080  1.0000
  C   C72       1.0  0.25975  0.71541  0.88080  1.0000
  C   C73       1.0  0.50975  0.03459  0.63080  1.0000
  C   C74       1.0  0.49025  0.96541  0.63080  1.0000
  C   C75       1.0  0.74025  0.28459  0.88080  1.0000
  C   C76       1.0  0.75975  0.21541  0.88080  1.0000
  C   C77       1.0  0.50975  0.53459  0.13080  1.0000
  C   C78       1.0  0.49025  0.46541  0.13080  1.0000
  C   C79       1.0  0.74025  0.78459  0.38080  1.0000
  C   C80       1.0  0.75975  0.71541  0.38080  1.0000
  C   C81       1.0  0.97328  0.04372  0.08920  1.0000
  C   C82       1.0  0.02672  0.95628  0.08920  1.0000
  C   C83       1.0  0.27672  0.29372  0.33920  1.0000
  C   C84       1.0  0.22328  0.20628  0.33920  1.0000
  C   C85       1.0  0.97328  0.54372  0.58920  1.0000
  C   C86       1.0  0.02672  0.45628  0.58920  1.0000
  C   C87       1.0  0.27672  0.79372  0.83920  1.0000
  C   C88       1.0  0.22328  0.70628  0.83920  1.0000
  C   C89       1.0  0.47328  0.04372  0.58920  1.0000
  C   C90       1.0  0.52672  0.95628  0.58920  1.0000
  C   C91       1.0  0.77672  0.29372  0.83920  1.0000
  C   C92       1.0  0.72328  0.20628  0.83920  1.0000
  C   C93       1.0  0.47328  0.54372  0.08920  1.0000
  C   C94       1.0  0.52672  0.45628  0.08920  1.0000
  C   C95       1.0  0.77672  0.79372  0.33920  1.0000
  C   C96       1.0  0.72328  0.70628  0.33920  1.0000
  O   O1        1.0  0.94656  0.13876  0.46580  1.0000
  O   O2        1.0  0.05344  0.86124  0.46580  1.0000
  O   O3        1.0  0.30344  0.38876  0.71580  1.0000
  O   O4        1.0  0.19656  0.11124  0.71580  1.0000
  O   O5        1.0  0.94656  0.63876  0.96580  1.0000
  O   O6        1.0  0.05344  0.36124  0.96580  1.0000
  O   O7        1.0  0.30344  0.88876  0.21580  1.0000
  O   O8        1.0  0.19656  0.61124  0.21580  1.0000
  O   O9        1.0  0.44656  0.13876  0.96580  1.0000
  O   O10       1.0  0.55344  0.86124  0.96580  1.0000
  O   O11       1.0  0.80344  0.38876  0.21580  1.0000
  O   O12       1.0  0.69656  0.11124  0.21580  1.0000
  O   O13       1.0  0.44656  0.63876  0.46580  1.0000
  O   O14       1.0  0.55344  0.36124  0.46580  1.0000
  O   O15       1.0  0.80344  0.88876  0.71580  1.0000
  O   O16       1.0  0.69656  0.61124  0.71580  1.0000
  O   O17       1.0  0.01080  0.14553  0.34310  1.0000
  O   O18       1.0  0.98920  0.85447  0.34310  1.0000
  O   O19       1.0  0.23920  0.39553  0.59310  1.0000
  O   O20       1.0  0.26080  0.10447  0.59310  1.0000
  O   O21       1.0  0.01080  0.64553  0.84310  1.0000
  O   O22       1.0  0.98920  0.35447  0.84310  1.0000
  O   O23       1.0  0.23920  0.89553  0.09310  1.0000
  O   O24       1.0  0.26080  0.60447  0.09310  1.0000
  O   O25       1.0  0.51080  0.14553  0.84310  1.0000
  O   O26       1.0  0.48920  0.85447  0.84310  1.0000
  O   O27       1.0  0.73920  0.39553  0.09310  1.0000
  O   O28       1.0  0.76080  0.10447  0.09310  1.0000
  O   O29       1.0  0.51080  0.64553  0.34310  1.0000
  O   O30       1.0  0.48920  0.35447  0.34310  1.0000
  O   O31       1.0  0.73920  0.89553  0.59310  1.0000
  O   O32       1.0  0.76080  0.60447  0.59310  1.0000
  O   O33       1.0  0.01097  0.09982  0.31010  1.0000
  O   O34       1.0  0.98903  0.90018  0.31010  1.0000
  O   O35       1.0  0.23903  0.34982  0.56010  1.0000
  O   O36       1.0  0.26097  0.15018  0.56010  1.0000
  O   O37       1.0  0.01097  0.59982  0.81010  1.0000
  O   O38       1.0  0.98903  0.40018  0.81010  1.0000
  O   O39       1.0  0.23903  0.84982  0.06010  1.0000
  O   O40       1.0  0.26097  0.65018  0.06010  1.0000
  O   O41       1.0  0.51097  0.09982  0.81010  1.0000
  O   O42       1.0  0.48903  0.90018  0.81010  1.0000
  O   O43       1.0  0.73903  0.34982  0.06010  1.0000
  O   O44       1.0  0.76097  0.15018  0.06010  1.0000
  O   O45       1.0  0.51097  0.59982  0.31010  1.0000
  O   O46       1.0  0.48903  0.40018  0.31010  1.0000
  O   O47       1.0  0.73903  0.84982  0.56010  1.0000
  O   O48       1.0  0.76097  0.65018  0.56010  1.0000
  O   O49       1.0  0.95369  0.09336  0.43830  1.0000
  O   O50       1.0  0.04631  0.90664  0.43830  1.0000
  O   O51       1.0  0.29631  0.34336  0.68830  1.0000
  O   O52       1.0  0.20369  0.15664  0.68830  1.0000
  O   O53       1.0  0.95369  0.59336  0.93830  1.0000
  O   O54       1.0  0.04631  0.40664  0.93830  1.0000
  O   O55       1.0  0.29631  0.84336  0.18830  1.0000
  O   O56       1.0  0.20369  0.65664  0.18830  1.0000
  O   O57       1.0  0.45369  0.09336  0.93830  1.0000
  O   O58       1.0  0.54631  0.90664  0.93830  1.0000
  O   O59       1.0  0.79631  0.34336  0.18830  1.0000
  O   O60       1.0  0.70369  0.15664  0.18830  1.0000
  O   O61       1.0  0.45369  0.59336  0.43830  1.0000
  O   O62       1.0  0.54631  0.40664  0.43830  1.0000
  O   O63       1.0  0.79631  0.84336  0.68830  1.0000
  O   O64       1.0  0.70369  0.65664  0.68830  1.0000
  O   O65       1.0  0.96421  0.03456  0.47160  1.0000
  O   O66       1.0  0.03579  0.96544  0.47160  1.0000
  O   O67       1.0  0.28579  0.28456  0.72160  1.0000
  O   O68       1.0  0.21421  0.21544  0.72160  1.0000
  O   O69       1.0  0.96421  0.53456  0.97160  1.0000
  O   O70       1.0  0.03579  0.46544  0.97160  1.0000
  O   O71       1.0  0.28579  0.78456  0.22160  1.0000
  O   O72       1.0  0.21421  0.71544  0.22160  1.0000
  O   O73       1.0  0.46421  0.03456  0.97160  1.0000
  O   O74       1.0  0.53579  0.96544  0.97160  1.0000
  O   O75       1.0  0.78579  0.28456  0.22160  1.0000
  O   O76       1.0  0.71421  0.21544  0.22160  1.0000
  O   O77       1.0  0.46421  0.53456  0.47160  1.0000
  O   O78       1.0  0.53579  0.46544  0.47160  1.0000
  O   O79       1.0  0.78579  0.78456  0.72160  1.0000
  O   O80       1.0  0.71421  0.71544  0.72160  1.0000
  O   O81       1.0  0.01655  0.06392  0.54090  1.0000
  O   O82       1.0  0.98345  0.93608  0.54090  1.0000
  O   O83       1.0  0.23345  0.31392  0.79090  1.0000
  O   O84       1.0  0.26655  0.18608  0.79090  1.0000
  O   O85       1.0  0.01655  0.56392  0.04090  1.0000
  O   O86       1.0  0.98345  0.43608  0.04090  1.0000
  O   O87       1.0  0.23345  0.81392  0.29090  1.0000
  O   O88       1.0  0.26655  0.68608  0.29090  1.0000
  O   O89       1.0  0.51655  0.06392  0.04090  1.0000
  O   O90       1.0  0.48345  0.93608  0.04090  1.0000
  O   O91       1.0  0.73345  0.31392  0.29090  1.0000
  O   O92       1.0  0.76655  0.18608  0.29090  1.0000
  O   O93       1.0  0.51655  0.56392  0.54090  1.0000
  O   O94       1.0  0.48345  0.43608  0.54090  1.0000
  O   O95       1.0  0.73345  0.81392  0.79090  1.0000
  O   O96       1.0  0.76655  0.68608  0.79090  1.0000
  O   O97       1.0  0.02008  0.04307  0.75090  1.0000
  O   O98       1.0  0.97992  0.95693  0.75090  1.0000
  O   O99       1.0  0.22992  0.29307  0.00090  1.0000
  O   O100      1.0  0.27008  0.20693  0.00090  1.0000
  O   O101      1.0  0.02008  0.54307  0.25090  1.0000
  O   O102      1.0  0.97992  0.45693  0.25090  1.0000
  O   O103      1.0  0.22992  0.79307  0.50090  1.0000
  O   O104      1.0  0.27008  0.70693  0.50090  1.0000
  O   O105      1.0  0.52008  0.04307  0.25090  1.0000
  O   O106      1.0  0.47992  0.95693  0.25090  1.0000
  O   O107      1.0  0.72992  0.29307  0.50090  1.0000
  O   O108      1.0  0.77008  0.20693  0.50090  1.0000
  O   O109      1.0  0.52008  0.54307  0.75090  1.0000
  O   O110      1.0  0.47992  0.45693  0.75090  1.0000
  O   O111      1.0  0.72992  0.79307  0.00090  1.0000
  O   O112      1.0  0.77008  0.70693  0.00090  1.0000
  O   O113      1.0  0.96518  0.01188  0.67760  1.0000
  O   O114      1.0  0.03482  0.98812  0.67760  1.0000
  O   O115      1.0  0.28482  0.26188  0.92760  1.0000
  O   O116      1.0  0.21518  0.23812  0.92760  1.0000
  O   O117      1.0  0.96518  0.51188  0.17760  1.0000
  O   O118      1.0  0.03482  0.48812  0.17760  1.0000
  O   O119      1.0  0.28482  0.76188  0.42760  1.0000
  O   O120      1.0  0.21518  0.73812  0.42760  1.0000
  O   O121      1.0  0.46518  0.01188  0.17760  1.0000
  O   O122      1.0  0.53482  0.98812  0.17760  1.0000
  O   O123      1.0  0.78482  0.26188  0.42760  1.0000
  O   O124      1.0  0.71518  0.23812  0.42760  1.0000
  O   O125      1.0  0.46518  0.51188  0.67760  1.0000
  O   O126      1.0  0.53482  0.48812  0.67760  1.0000
  O   O127      1.0  0.78482  0.76188  0.92760  1.0000
  O   O128      1.0  0.71518  0.73812  0.92760  1.0000
  O   O129      1.0  0.95926  0.05854  0.18850  1.0000
  O   O130      1.0  0.04074  0.94146  0.18850  1.0000
  O   O131      1.0  0.29074  0.30854  0.43850  1.0000
  O   O132      1.0  0.20926  0.19146  0.43850  1.0000
  O   O133      1.0  0.95926  0.55854  0.68850  1.0000
  O   O134      1.0  0.04074  0.44146  0.68850  1.0000
  O   O135      1.0  0.29074  0.80854  0.93850  1.0000
  O   O136      1.0  0.20926  0.69146  0.93850  1.0000
  O   O137      1.0  0.45926  0.05854  0.68850  1.0000
  O   O138      1.0  0.54074  0.94146  0.68850  1.0000
  O   O139      1.0  0.79074  0.30854  0.93850  1.0000
  O   O140      1.0  0.70926  0.19146  0.93850  1.0000
  O   O141      1.0  0.45926  0.55854  0.18850  1.0000
  O   O142      1.0  0.54074  0.44146  0.18850  1.0000
  O   O143      1.0  0.79074  0.80854  0.43850  1.0000
  O   O144      1.0  0.70926  0.69146  0.43850  1.0000
  O   O145      1.0  0.01970  0.04248  0.25180  1.0000
  O   O146      1.0  0.98030  0.95752  0.25180  1.0000
  O   O147      1.0  0.23030  0.29248  0.50180  1.0000
  O   O148      1.0  0.26970  0.20752  0.50180  1.0000
  O   O149      1.0  0.01970  0.54248  0.75180  1.0000
  O   O150      1.0  0.98030  0.45752  0.75180  1.0000
  O   O151      1.0  0.23030  0.79248  0.00180  1.0000
  O   O152      1.0  0.26970  0.70752  0.00180  1.0000
  O   O153      1.0  0.51970  0.04248  0.75180  1.0000
  O   O154      1.0  0.48030  0.95752  0.75180  1.0000
  O   O155      1.0  0.73030  0.29248  0.00180  1.0000
  O   O156      1.0  0.76970  0.20752  0.00180  1.0000
  O   O157      1.0  0.51970  0.54248  0.25180  1.0000
  O   O158      1.0  0.48030  0.45752  0.25180  1.0000
  O   O159      1.0  0.73030  0.79248  0.50180  1.0000
  O   O160      1.0  0.76970  0.70752  0.50180  1.0000
  O   O161      1.0  0.96141  0.03674  0.97900  1.0000
  O   O162      1.0  0.03859  0.96326  0.97900  1.0000
  O   O163      1.0  0.28859  0.28674  0.22900  1.0000
  O   O164      1.0  0.21141  0.21326  0.22900  1.0000
  O   O165      1.0  0.96141  0.53674  0.47900  1.0000
  O   O166      1.0  0.03859  0.46326  0.47900  1.0000
  O   O167      1.0  0.28859  0.78674  0.72900  1.0000
  O   O168      1.0  0.21141  0.71326  0.72900  1.0000
  O   O169      1.0  0.46141  0.03674  0.47900  1.0000
  O   O170      1.0  0.53859  0.96326  0.47900  1.0000
  O   O171      1.0  0.78859  0.28674  0.72900  1.0000
  O   O172      1.0  0.71141  0.21326  0.72900  1.0000
  O   O173      1.0  0.46141  0.53674  0.97900  1.0000
  O   O174      1.0  0.53859  0.46326  0.97900  1.0000
  O   O175      1.0  0.78859  0.78674  0.22900  1.0000
  O   O176      1.0  0.71141  0.71326  0.22900  1.0000
  O   O177      1.0  0.02626  0.02087  0.04610  1.0000
  O   O178      1.0  0.97374  0.97913  0.04610  1.0000
  O   O179      1.0  0.22374  0.27087  0.29610  1.0000
  O   O180      1.0  0.27626  0.22913  0.29610  1.0000
  O   O181      1.0  0.02626  0.52087  0.54610  1.0000
  O   O182      1.0  0.97374  0.47913  0.54610  1.0000
  O   O183      1.0  0.22374  0.77087  0.79610  1.0000
  O   O184      1.0  0.27626  0.72913  0.79610  1.0000
  O   O185      1.0  0.52626  0.02087  0.54610  1.0000
  O   O186      1.0  0.47374  0.97913  0.54610  1.0000
  O   O187      1.0  0.72374  0.27087  0.79610  1.0000
  O   O188      1.0  0.77626  0.22913  0.79610  1.0000
  O   O189      1.0  0.52626  0.52087  0.04610  1.0000
  O   O190      1.0  0.47374  0.47913  0.04610  1.0000
  O   O191      1.0  0.72374  0.77087  0.29610  1.0000
  O   O192      1.0  0.77626  0.72913  0.29610  1.0000
  Fe  Fe1       1.0  0.98690  0.06556  0.36476  1.0000
  Fe  Fe2       1.0  0.01310  0.93444  0.36476  1.0000
  Fe  Fe3       1.0  0.26310  0.31556  0.61476  1.0000
  Fe  Fe4       1.0  0.23690  0.18444  0.61476  1.0000
  Fe  Fe5       1.0  0.98690  0.56556  0.86476  1.0000
  Fe  Fe6       1.0  0.01310  0.43444  0.86476  1.0000
  Fe  Fe7       1.0  0.26310  0.81556  0.11476  1.0000
  Fe  Fe8       1.0  0.23690  0.68444  0.11476  1.0000
  Fe  Fe9       1.0  0.48690  0.06556  0.86476  1.0000
  Fe  Fe10      1.0  0.51310  0.93444  0.86476  1.0000
  Fe  Fe11      1.0  0.76310  0.31556  0.11476  1.0000
  Fe  Fe12      1.0  0.73690  0.18444  0.11476  1.0000
  Fe  Fe13      1.0  0.48690  0.56556  0.36476  1.0000
  Fe  Fe14      1.0  0.51310  0.43444  0.36476  1.0000
  Fe  Fe15      1.0  0.76310  0.81556  0.61476  1.0000
  Fe  Fe16      1.0  0.73690  0.68444  0.61476  1.0000
  Mn  Mn1       1.0  0.00000  0.00000  0.86217  1.0000
  Mn  Mn2       1.0  0.25000  0.25000  0.11217  1.0000
  Mn  Mn3       1.0  0.00000  0.50000  0.36217  1.0000
  Mn  Mn4       1.0  0.25000  0.75000  0.61217  1.0000
  Mn  Mn5       1.0  0.50000  0.00000  0.36217  1.0000
  Mn  Mn6       1.0  0.75000  0.25000  0.61217  1.0000
  Mn  Mn7       1.0  0.50000  0.50000  0.86217  1.0000
  Mn  Mn8       1.0  0.75000  0.75000  0.11217  1.0000
