data_image0
_chemical_formula_structural       Bi4O40C20
_chemical_formula_sum              "Bi4 O40 C20"
_cell_length_a       9.0254
_cell_length_b       17.703
_cell_length_c       8.4972
_cell_angle_alpha    90
_cell_angle_beta     92.22
_cell_angle_gamma    90

_space_group_name_H-M_alt    "P 1"
_space_group_IT_number       1

loop_
  _space_group_symop_operation_xyz
  'x, y, z'

loop_
  _atom_site_type_symbol
  _atom_site_label
  _atom_site_symmetry_multiplicity
  _atom_site_fract_x
  _atom_site_fract_y
  _atom_site_fract_z
  _atom_site_occupancy
  Bi  Bi1       1.0  0.23901  0.62240  0.01393  1.0000
  Bi  Bi2       1.0  0.76099  0.12240  0.48607  1.0000
  Bi  Bi3       1.0  0.76099  0.37760  0.98607  1.0000
  Bi  Bi4       1.0  0.23901  0.87760  0.51393  1.0000
  O   O1        1.0  0.37970  0.81779  0.71150  1.0000
  O   O2        1.0  0.62030  0.31779  0.78850  1.0000
  O   O3        1.0  0.62030  0.18221  0.28850  1.0000
  O   O4        1.0  0.37970  0.68221  0.21150  1.0000
  O   O5        1.0  0.12200  0.76330  0.57990  1.0000
  O   O6        1.0  0.87800  0.26330  0.92010  1.0000
  O   O7        1.0  0.87800  0.23670  0.42010  1.0000
  O   O8        1.0  0.12200  0.73670  0.07990  1.0000
  O   O9        1.0  0.38070  0.77390  0.38710  1.0000
  O   O10       1.0  0.61930  0.27390  0.11290  1.0000
  O   O11       1.0  0.61930  0.22610  0.61290  1.0000
  O   O12       1.0  0.38070  0.72610  0.88710  1.0000
  O   O13       1.0  0.13930  0.66340  0.73760  1.0000
  O   O14       1.0  0.86070  0.16340  0.76240  1.0000
  O   O15       1.0  0.86070  0.33660  0.26240  1.0000
  O   O16       1.0  0.13930  0.83660  0.23760  1.0000
  O   O17       1.0  0.38840  0.52360  0.15670  1.0000
  O   O18       1.0  0.61160  0.02360  0.34330  1.0000
  O   O19       1.0  0.61160  0.47640  0.84330  1.0000
  O   O20       1.0  0.38840  0.97640  0.65670  1.0000
  O   O21       1.0  0.12590  0.91130  0.75140  1.0000
  O   O22       1.0  0.87410  0.41130  0.74860  1.0000
  O   O23       1.0  0.87410  0.08870  0.24860  1.0000
  O   O24       1.0  0.12590  0.58870  0.25140  1.0000
  O   O25       1.0  0.55700  0.43400  0.14280  1.0000
  O   O26       1.0  0.44300  0.93400  0.35720  1.0000
  O   O27       1.0  0.44300  0.56600  0.85720  1.0000
  O   O28       1.0  0.55700  0.06600  0.64280  1.0000
  O   O29       1.0  0.97540  0.91080  0.47530  1.0000
  O   O30       1.0  0.02460  0.41080  0.02470  1.0000
  O   O31       1.0  0.02460  0.08920  0.52470  1.0000
  O   O32       1.0  0.97540  0.58920  0.97530  1.0000
  O   O33       1.0  0.92070  0.93470  0.87280  1.0000
  O   O34       1.0  0.07930  0.43470  0.62720  1.0000
  O   O35       1.0  0.07930  0.06530  0.12720  1.0000
  O   O36       1.0  0.92070  0.56530  0.37280  1.0000
  O   O37       1.0  0.76350  0.91180  0.60160  1.0000
  O   O38       1.0  0.23650  0.41180  0.89840  1.0000
  O   O39       1.0  0.23650  0.08820  0.39840  1.0000
  O   O40       1.0  0.76350  0.58820  0.10160  1.0000
  C   C1        1.0  0.18320  0.72560  0.68880  1.0000
  C   C2        1.0  0.81680  0.22560  0.81120  1.0000
  C   C3        1.0  0.81680  0.27440  0.31120  1.0000
  C   C4        1.0  0.18320  0.77440  0.18880  1.0000
  C   C5        1.0  0.32570  0.74130  0.26960  1.0000
  C   C6        1.0  0.67430  0.24130  0.23040  1.0000
  C   C7        1.0  0.67430  0.25870  0.73040  1.0000
  C   C8        1.0  0.32570  0.75870  0.76960  1.0000
  C   C9        1.0  0.48410  0.48740  0.08470  1.0000
  C   C10       1.0  0.51590  0.98740  0.41530  1.0000
  C   C11       1.0  0.51590  0.51260  0.91530  1.0000
  C   C12       1.0  0.48410  0.01260  0.58470  1.0000
  C   C13       1.0  0.98850  0.92080  0.75620  1.0000
  C   C14       1.0  0.01150  0.42080  0.74380  1.0000
  C   C15       1.0  0.01150  0.07920  0.24380  1.0000
  C   C16       1.0  0.98850  0.57920  0.25620  1.0000
  C   C17       1.0  0.90020  0.91550  0.59780  1.0000
  C   C18       1.0  0.09980  0.41550  0.90220  1.0000
  C   C19       1.0  0.09980  0.08450  0.40220  1.0000
  C   C20       1.0  0.90020  0.58450  0.09780  1.0000
