data_image0
_chemical_formula_structural       Mn2O12C6
_chemical_formula_sum              "Mn2 O12 C6"
_cell_length_a       8.6108
_cell_length_b       9.1233
_cell_length_c       9.2126
_cell_angle_alpha    106.892
_cell_angle_beta     94.04
_cell_angle_gamma    117.115

_space_group_name_H-M_alt    "P 1"
_space_group_IT_number       1

loop_
  _space_group_symop_operation_xyz
  'x, y, z'

loop_
  _atom_site_type_symbol
  _atom_site_label
  _atom_site_symmetry_multiplicity
  _atom_site_fract_x
  _atom_site_fract_y
  _atom_site_fract_z
  _atom_site_occupancy
  Mn  Mn1       1.0  0.31105  0.31582  0.18413  1.0000
  Mn  Mn2       1.0  0.68895  0.68418  0.81587  1.0000
  O   O1        1.0  0.27812  0.43467  0.41604  1.0000
  O   O2        1.0  0.72188  0.56533  0.58396  1.0000
  O   O3        1.0  0.18554  0.03210  0.12383  1.0000
  O   O4        1.0  0.81446  0.96790  0.87617  1.0000
  O   O5        1.0  0.95859  0.78231  0.94599  1.0000
  O   O6        1.0  0.04141  0.21769  0.05401  1.0000
  O   O7        1.0  0.43204  0.28294  0.98625  1.0000
  O   O8        1.0  0.56796  0.71706  0.01375  1.0000
  O   O9        1.0  0.58904  0.43352  0.84531  1.0000
  O   O10       1.0  0.41096  0.56648  0.15469  1.0000
  O   O11       1.0  0.44511  0.60865  0.65943  1.0000
  O   O12       1.0  0.55489  0.39135  0.34057  1.0000
  C   C1        1.0  0.04210  0.94640  0.02025  1.0000
  C   C2        1.0  0.95790  0.05360  0.97975  1.0000
  C   C3        1.0  0.50570  0.41780  0.95063  1.0000
  C   C4        1.0  0.49430  0.58220  0.04937  1.0000
  C   C5        1.0  0.42020  0.51300  0.52206  1.0000
  C   C6        1.0  0.57980  0.48700  0.47794  1.0000
