data_image0
_chemical_formula_structural       Cr4Na4O48C24
_chemical_formula_sum              "Cr4 Na4 O48 C24"
_cell_length_a       15.952
_cell_length_b       15.952
_cell_length_c       15.952
_cell_angle_alpha    90
_cell_angle_beta     90
_cell_angle_gamma    90

_space_group_name_H-M_alt    "P 1"
_space_group_IT_number       1

loop_
  _space_group_symop_operation_xyz
  'x, y, z'

loop_
  _atom_site_type_symbol
  _atom_site_label
  _atom_site_symmetry_multiplicity
  _atom_site_fract_x
  _atom_site_fract_y
  _atom_site_fract_z
  _atom_site_occupancy
  Cr  Cr1       1.0  0.13195  0.13195  0.13195  1.0000
  Cr  Cr2       1.0  0.63195  0.36805  0.86805  1.0000
  Cr  Cr3       1.0  0.86805  0.63195  0.36805  1.0000
  Cr  Cr4       1.0  0.36805  0.86805  0.63195  1.0000
  Na  Na1       1.0  0.13370  0.86630  0.36630  1.0000
  Na  Na2       1.0  0.36630  0.13370  0.86630  1.0000
  Na  Na3       1.0  0.86630  0.36630  0.13370  1.0000
  Na  Na4       1.0  0.63370  0.63370  0.63370  1.0000
  O   O1        1.0  0.14000  0.11650  0.25450  1.0000
  O   O2        1.0  0.25450  0.14000  0.11650  1.0000
  O   O3        1.0  0.11650  0.25450  0.14000  1.0000
  O   O4        1.0  0.64000  0.38350  0.74550  1.0000
  O   O5        1.0  0.75450  0.36000  0.88350  1.0000
  O   O6        1.0  0.61650  0.24550  0.86000  1.0000
  O   O7        1.0  0.86000  0.61650  0.24550  1.0000
  O   O8        1.0  0.74550  0.64000  0.38350  1.0000
  O   O9        1.0  0.88350  0.75450  0.36000  1.0000
  O   O10       1.0  0.36000  0.88350  0.75450  1.0000
  O   O11       1.0  0.24550  0.86000  0.61650  1.0000
  O   O12       1.0  0.38350  0.74550  0.64000  1.0000
  O   O13       1.0  0.13670  0.01480  0.35020  1.0000
  O   O14       1.0  0.35020  0.13670  0.01480  1.0000
  O   O15       1.0  0.01480  0.35020  0.13670  1.0000
  O   O16       1.0  0.63670  0.48520  0.64980  1.0000
  O   O17       1.0  0.85020  0.36330  0.98520  1.0000
  O   O18       1.0  0.51480  0.14980  0.86330  1.0000
  O   O19       1.0  0.86330  0.51480  0.14980  1.0000
  O   O20       1.0  0.64980  0.63670  0.48520  1.0000
  O   O21       1.0  0.98520  0.85020  0.36330  1.0000
  O   O22       1.0  0.36330  0.98520  0.85020  1.0000
  O   O23       1.0  0.14980  0.86330  0.51480  1.0000
  O   O24       1.0  0.48520  0.64980  0.63670  1.0000
  O   O25       1.0  0.13600  0.00840  0.13190  1.0000
  O   O26       1.0  0.13190  0.13600  0.00840  1.0000
  O   O27       1.0  0.00840  0.13190  0.13600  1.0000
  O   O28       1.0  0.63600  0.49160  0.86810  1.0000
  O   O29       1.0  0.63190  0.36400  0.99160  1.0000
  O   O30       1.0  0.50840  0.36810  0.86400  1.0000
  O   O31       1.0  0.86400  0.50840  0.36810  1.0000
  O   O32       1.0  0.86810  0.63600  0.49160  1.0000
  O   O33       1.0  0.99160  0.63190  0.36400  1.0000
  O   O34       1.0  0.36400  0.99160  0.63190  1.0000
  O   O35       1.0  0.36810  0.86400  0.50840  1.0000
  O   O36       1.0  0.49160  0.86810  0.63600  1.0000
  O   O37       1.0  0.14020  0.90020  0.21970  1.0000
  O   O38       1.0  0.21970  0.14020  0.90020  1.0000
  O   O39       1.0  0.90020  0.21970  0.14020  1.0000
  O   O40       1.0  0.64020  0.59980  0.78030  1.0000
  O   O41       1.0  0.71970  0.35980  0.09980  1.0000
  O   O42       1.0  0.40020  0.28030  0.85980  1.0000
  O   O43       1.0  0.85980  0.40020  0.28030  1.0000
  O   O44       1.0  0.78030  0.64020  0.59980  1.0000
  O   O45       1.0  0.09980  0.71970  0.35980  1.0000
  O   O46       1.0  0.35980  0.09980  0.71970  1.0000
  O   O47       1.0  0.28030  0.85980  0.40020  1.0000
  O   O48       1.0  0.59980  0.78030  0.64020  1.0000
  C   C1        1.0  0.13890  0.04010  0.27820  1.0000
  C   C2        1.0  0.27820  0.13890  0.04010  1.0000
  C   C3        1.0  0.04010  0.27820  0.13890  1.0000
  C   C4        1.0  0.63890  0.45990  0.72180  1.0000
  C   C5        1.0  0.77820  0.36110  0.95990  1.0000
  C   C6        1.0  0.54010  0.22180  0.86110  1.0000
  C   C7        1.0  0.86110  0.54010  0.22180  1.0000
  C   C8        1.0  0.72180  0.63890  0.45990  1.0000
  C   C9        1.0  0.95990  0.77820  0.36110  1.0000
  C   C10       1.0  0.36110  0.95990  0.77820  1.0000
  C   C11       1.0  0.22180  0.86110  0.54010  1.0000
  C   C12       1.0  0.45990  0.72180  0.63890  1.0000
  C   C13       1.0  0.13850  0.97480  0.20460  1.0000
  C   C14       1.0  0.20460  0.13850  0.97480  1.0000
  C   C15       1.0  0.97480  0.20460  0.13850  1.0000
  C   C16       1.0  0.63850  0.52520  0.79540  1.0000
  C   C17       1.0  0.70460  0.36150  0.02520  1.0000
  C   C18       1.0  0.47480  0.29540  0.86150  1.0000
  C   C19       1.0  0.86150  0.47480  0.29540  1.0000
  C   C20       1.0  0.79540  0.63850  0.52520  1.0000
  C   C21       1.0  0.02520  0.70460  0.36150  1.0000
  C   C22       1.0  0.36150  0.02520  0.70460  1.0000
  C   C23       1.0  0.29540  0.86150  0.47480  1.0000
  C   C24       1.0  0.52520  0.79540  0.63850  1.0000
