data_image0
_chemical_formula_structural       U4Se8O48C4
_chemical_formula_sum              "U4 Se8 O48 C4"
_cell_length_a       11.434
_cell_length_b       10.995
_cell_length_c       12.698
_cell_angle_alpha    90
_cell_angle_beta     99.82
_cell_angle_gamma    90

_space_group_name_H-M_alt    "P 1"
_space_group_IT_number       1

loop_
  _space_group_symop_operation_xyz
  'x, y, z'

loop_
  _atom_site_type_symbol
  _atom_site_label
  _atom_site_symmetry_multiplicity
  _atom_site_fract_x
  _atom_site_fract_y
  _atom_site_fract_z
  _atom_site_occupancy
  U   U1        1.0  0.26012  0.09104  0.06207  1.0000
  U   U2        1.0  0.73988  0.59104  0.43793  1.0000
  U   U3        1.0  0.73988  0.90896  0.93793  1.0000
  U   U4        1.0  0.26012  0.40896  0.56207  1.0000
  Se  Se1       1.0  0.39130  0.37070  0.21512  1.0000
  Se  Se2       1.0  0.60870  0.87070  0.28488  1.0000
  Se  Se3       1.0  0.60870  0.62930  0.78488  1.0000
  Se  Se4       1.0  0.39130  0.12930  0.71512  1.0000
  Se  Se5       1.0  0.06251  0.83179  0.96549  1.0000
  Se  Se6       1.0  0.93749  0.33179  0.53451  1.0000
  Se  Se7       1.0  0.93749  0.16821  0.03451  1.0000
  Se  Se8       1.0  0.06251  0.66821  0.46549  1.0000
  O   O1        1.0  0.24620  0.18670  0.94920  1.0000
  O   O2        1.0  0.75380  0.68670  0.55080  1.0000
  O   O3        1.0  0.75380  0.81330  0.05080  1.0000
  O   O4        1.0  0.24620  0.31330  0.44920  1.0000
  O   O5        1.0  0.27290  0.99360  0.17480  1.0000
  O   O6        1.0  0.72710  0.49360  0.32520  1.0000
  O   O7        1.0  0.72710  0.00640  0.82520  1.0000
  O   O8        1.0  0.27290  0.50640  0.67480  1.0000
  O   O9        1.0  0.47240  0.33700  0.32710  1.0000
  O   O10       1.0  0.52760  0.83700  0.17290  1.0000
  O   O11       1.0  0.52760  0.66300  0.67290  1.0000
  O   O12       1.0  0.47240  0.16300  0.82710  1.0000
  O   O13       1.0  0.47600  0.39500  0.12700  1.0000
  O   O14       1.0  0.52400  0.89500  0.37300  1.0000
  O   O15       1.0  0.52400  0.60500  0.87300  1.0000
  O   O16       1.0  0.47600  0.10500  0.62700  1.0000
  O   O17       1.0  0.30200  0.48560  0.22130  1.0000
  O   O18       1.0  0.69800  0.98560  0.27870  1.0000
  O   O19       1.0  0.69800  0.51440  0.77870  1.0000
  O   O20       1.0  0.30200  0.01440  0.72130  1.0000
  O   O21       1.0  0.30400  0.25260  0.17900  1.0000
  O   O22       1.0  0.69600  0.75260  0.32100  1.0000
  O   O23       1.0  0.69600  0.74740  0.82100  1.0000
  O   O24       1.0  0.30400  0.24740  0.67900  1.0000
  O   O25       1.0  0.13220  0.73580  0.90170  1.0000
  O   O26       1.0  0.86780  0.23580  0.59830  1.0000
  O   O27       1.0  0.86780  0.26420  0.09830  1.0000
  O   O28       1.0  0.13220  0.76420  0.40170  1.0000
  O   O29       1.0  0.06680  0.79220  0.08910  1.0000
  O   O30       1.0  0.93320  0.29220  0.41090  1.0000
  O   O31       1.0  0.93320  0.20780  0.91090  1.0000
  O   O32       1.0  0.06680  0.70780  0.58910  1.0000
  O   O33       1.0  0.92510  0.83400  0.90050  1.0000
  O   O34       1.0  0.07490  0.33400  0.59950  1.0000
  O   O35       1.0  0.07490  0.16600  0.09950  1.0000
  O   O36       1.0  0.92510  0.66600  0.40050  1.0000
  O   O37       1.0  0.88320  0.03050  0.04420  1.0000
  O   O38       1.0  0.11680  0.53050  0.45580  1.0000
  O   O39       1.0  0.11680  0.96950  0.95580  1.0000
  O   O40       1.0  0.88320  0.46950  0.54420  1.0000
  O   O41       1.0  0.47190  0.11960  0.08340  1.0000
  O   O42       1.0  0.52810  0.61960  0.41660  1.0000
  O   O43       1.0  0.52810  0.88040  0.91660  1.0000
  O   O44       1.0  0.47190  0.38040  0.58340  1.0000
  O   O45       1.0  0.35890  0.93940  0.97000  1.0000
  O   O46       1.0  0.64110  0.43940  0.53000  1.0000
  O   O47       1.0  0.64110  0.06060  0.03000  1.0000
  O   O48       1.0  0.35890  0.56060  0.47000  1.0000
  C   C1        1.0  0.53280  0.05200  0.03300  1.0000
  C   C2        1.0  0.46720  0.55200  0.46700  1.0000
  C   C3        1.0  0.46720  0.94800  0.96700  1.0000
  C   C4        1.0  0.53280  0.44800  0.53300  1.0000
