data_image0
_chemical_formula_structural       N12Rb2C16
_chemical_formula_sum              "N12 Rb2 C16"
_cell_length_a       12.9842
_cell_length_b       8.9304
_cell_length_c       9.5332
_cell_angle_alpha    90
_cell_angle_beta     120.764
_cell_angle_gamma    90

_space_group_name_H-M_alt    "P 1"
_space_group_IT_number       1

loop_
  _space_group_symop_operation_xyz
  'x, y, z'

loop_
  _atom_site_type_symbol
  _atom_site_label
  _atom_site_symmetry_multiplicity
  _atom_site_fract_x
  _atom_site_fract_y
  _atom_site_fract_z
  _atom_site_occupancy
  N   N1        1.0  0.83000  0.75040  0.87130  1.0000
  N   N2        1.0  0.17000  0.75040  0.12870  1.0000
  N   N3        1.0  0.33000  0.25040  0.87130  1.0000
  N   N4        1.0  0.67000  0.25040  0.12870  1.0000
  N   N5        1.0  0.17000  0.24960  0.12870  1.0000
  N   N6        1.0  0.83000  0.24960  0.87130  1.0000
  N   N7        1.0  0.67000  0.74960  0.12870  1.0000
  N   N8        1.0  0.33000  0.74960  0.87130  1.0000
  N   N9        1.0  0.49160  0.50000  0.68040  1.0000
  N   N10       1.0  0.50840  0.50000  0.31960  1.0000
  N   N11       1.0  0.99160  0.00000  0.68040  1.0000
  N   N12       1.0  0.00840  0.00000  0.31960  1.0000
  Rb  Rb1       1.0  0.00000  0.00000  0.00000  1.0000
  Rb  Rb2       1.0  0.50000  0.50000  0.00000  1.0000
  C   C1        1.0  0.71870  0.50000  0.80070  1.0000
  C   C2        1.0  0.28130  0.50000  0.19930  1.0000
  C   C3        1.0  0.21870  0.00000  0.80070  1.0000
  C   C4        1.0  0.78130  0.00000  0.19930  1.0000
  C   C5        1.0  0.78080  0.63710  0.83950  1.0000
  C   C6        1.0  0.21920  0.63710  0.16050  1.0000
  C   C7        1.0  0.28080  0.13710  0.83950  1.0000
  C   C8        1.0  0.71920  0.13710  0.16050  1.0000
  C   C9        1.0  0.21920  0.36290  0.16050  1.0000
  C   C10       1.0  0.78080  0.36290  0.83950  1.0000
  C   C11       1.0  0.71920  0.86290  0.16050  1.0000
  C   C12       1.0  0.28080  0.86290  0.83950  1.0000
  C   C13       1.0  0.59370  0.50000  0.73210  1.0000
  C   C14       1.0  0.40630  0.50000  0.26790  1.0000
  C   C15       1.0  0.09370  0.00000  0.73210  1.0000
  C   C16       1.0  0.90630  0.00000  0.26790  1.0000
