data_image0
_chemical_formula_structural       Rb2N12C16
_chemical_formula_sum              "Rb2 N12 C16"
_cell_length_a       8.3222
_cell_length_b       9.5142
_cell_length_c       13.3112
_cell_angle_alpha    100.299
_cell_angle_beta     91.234
_cell_angle_gamma    91.433

_space_group_name_H-M_alt    "P 1"
_space_group_IT_number       1

loop_
  _space_group_symop_operation_xyz
  'x, y, z'

loop_
  _atom_site_type_symbol
  _atom_site_label
  _atom_site_symmetry_multiplicity
  _atom_site_fract_x
  _atom_site_fract_y
  _atom_site_fract_z
  _atom_site_occupancy
  Rb  Rb1       1.0  0.74551  0.27723  0.72291  1.0000
  Rb  Rb2       1.0  0.25449  0.72277  0.27709  1.0000
  N   N1        1.0  0.17626  0.50278  0.08686  1.0000
  N   N2        1.0  0.82374  0.49722  0.91314  1.0000
  N   N3        1.0  0.94758  0.13072  0.87208  1.0000
  N   N4        1.0  0.05242  0.86928  0.12792  1.0000
  N   N5        1.0  0.66360  0.97594  0.63659  1.0000
  N   N6        1.0  0.33640  0.02406  0.36341  1.0000
  N   N7        1.0  0.42781  0.30050  0.81243  1.0000
  N   N8        1.0  0.57219  0.69950  0.18757  1.0000
  N   N9        1.0  0.97983  0.72416  0.41464  1.0000
  N   N10       1.0  0.02017  0.27584  0.58536  1.0000
  N   N11       1.0  0.66203  0.50718  0.61075  1.0000
  N   N12       1.0  0.33797  0.49282  0.38925  1.0000
  C   C1        1.0  0.76239  0.73281  0.54927  1.0000
  C   C2        1.0  0.23761  0.26719  0.45073  1.0000
  C   C3        1.0  0.70774  0.86656  0.59676  1.0000
  C   C4        1.0  0.29226  0.13344  0.40324  1.0000
  C   C5        1.0  0.88247  0.72671  0.47455  1.0000
  C   C6        1.0  0.11753  0.27329  0.52545  1.0000
  C   C7        1.0  0.05204  0.21199  0.89668  1.0000
  C   C8        1.0  0.94796  0.78801  0.10332  1.0000
  C   C9        1.0  0.31736  0.30494  0.86318  1.0000
  C   C10       1.0  0.68264  0.69506  0.13682  1.0000
  C   C11       1.0  0.70801  0.60828  0.58258  1.0000
  C   C12       1.0  0.29199  0.39172  0.41742  1.0000
  C   C13       1.0  0.17647  0.41629  0.01398  1.0000
  C   C14       1.0  0.82353  0.58371  0.98602  1.0000
  C   C15       1.0  0.18176  0.31051  0.92543  1.0000
  C   C16       1.0  0.81824  0.68949  0.07457  1.0000
