data_image0
_chemical_formula_structural       K2N12C16
_chemical_formula_sum              "K2 N12 C16"
_cell_length_a       12.885
_cell_length_b       8.563
_cell_length_c       9.184
_cell_angle_alpha    90
_cell_angle_beta     120.273
_cell_angle_gamma    90

_space_group_name_H-M_alt    "P 1"
_space_group_IT_number       1

loop_
  _space_group_symop_operation_xyz
  'x, y, z'

loop_
  _atom_site_type_symbol
  _atom_site_label
  _atom_site_symmetry_multiplicity
  _atom_site_fract_x
  _atom_site_fract_y
  _atom_site_fract_z
  _atom_site_occupancy
  K   K1        1.0  1.00000  0.00000  1.00000  1.0000
  K   K2        1.0  0.50000  0.50000  1.00000  1.0000
  N   N1        1.0  0.83153  0.76061  0.87310  1.0000
  N   N2        1.0  0.16847  0.76061  0.12690  1.0000
  N   N3        1.0  0.33153  0.26061  0.87310  1.0000
  N   N4        1.0  0.66847  0.26061  0.12690  1.0000
  N   N5        1.0  0.16847  0.23939  0.12690  1.0000
  N   N6        1.0  0.83153  0.23939  0.87310  1.0000
  N   N7        1.0  0.66847  0.73939  0.12690  1.0000
  N   N8        1.0  0.33153  0.73939  0.87310  1.0000
  N   N9        1.0  0.49026  0.50000  0.68250  1.0000
  N   N10       1.0  0.50974  0.50000  0.31750  1.0000
  N   N11       1.0  0.99026  0.00000  0.68250  1.0000
  N   N12       1.0  0.00974  0.00000  0.31750  1.0000
  C   C1        1.0  0.71860  0.50000  0.80120  1.0000
  C   C2        1.0  0.28140  0.50000  0.19880  1.0000
  C   C3        1.0  0.21860  0.00000  0.80120  1.0000
  C   C4        1.0  0.78140  0.00000  0.19880  1.0000
  C   C5        1.0  0.78092  0.64289  0.83970  1.0000
  C   C6        1.0  0.21908  0.64289  0.16030  1.0000
  C   C7        1.0  0.28092  0.14289  0.83970  1.0000
  C   C8        1.0  0.71908  0.14289  0.16030  1.0000
  C   C9        1.0  0.21908  0.35711  0.16030  1.0000
  C   C10       1.0  0.78092  0.35711  0.83970  1.0000
  C   C11       1.0  0.71908  0.85711  0.16030  1.0000
  C   C12       1.0  0.28092  0.85711  0.83970  1.0000
  C   C13       1.0  0.59330  0.50000  0.73430  1.0000
  C   C14       1.0  0.40670  0.50000  0.26570  1.0000
  C   C15       1.0  0.09330  0.00000  0.73430  1.0000
  C   C16       1.0  0.90670  0.00000  0.26570  1.0000
