data_image0
_chemical_formula_structural       U4O4C4O4C4O4C4O20
_chemical_formula_sum              "U4 O32 C12"
_cell_length_a       5.542
_cell_length_b       19.528
_cell_length_c       8.53
_cell_angle_alpha    90
_cell_angle_beta     102.539
_cell_angle_gamma    90

_space_group_name_H-M_alt    "P 1"
_space_group_IT_number       1

loop_
  _space_group_symop_operation_xyz
  'x, y, z'

loop_
  _atom_site_type_symbol
  _atom_site_label
  _atom_site_symmetry_multiplicity
  _atom_site_fract_x
  _atom_site_fract_y
  _atom_site_fract_z
  _atom_site_occupancy
  U   U1        1.0  0.57525  0.16425  0.50071  1.0000
  U   U2        1.0  0.92475  0.66425  0.99929  1.0000
  U   U3        1.0  0.42475  0.83575  0.49929  1.0000
  U   U4        1.0  0.07525  0.33575  0.00071  1.0000
  O   O1        1.0  0.35210  0.94820  0.61590  1.0000
  O   O2        1.0  0.14790  0.44820  0.88410  1.0000
  O   O3        1.0  0.64790  0.05180  0.38410  1.0000
  O   O4        1.0  0.85210  0.55180  0.11590  1.0000
  C   C1        1.0  0.43100  0.00290  0.56900  1.0000
  C   C2        1.0  0.06900  0.50290  0.93100  1.0000
  C   C3        1.0  0.56900  0.99710  0.43100  1.0000
  C   C4        1.0  0.93100  0.49710  0.06900  1.0000
  O   O5        1.0  0.40820  0.06170  0.61930  1.0000
  O   O6        1.0  0.09180  0.56170  0.88070  1.0000
  O   O7        1.0  0.59180  0.93830  0.38070  1.0000
  O   O8        1.0  0.90820  0.43830  0.11930  1.0000
  C   C5        1.0  0.35100  0.22540  0.80750  1.0000
  C   C6        1.0  0.14900  0.72540  0.69250  1.0000
  C   C7        1.0  0.64900  0.77460  0.19250  1.0000
  C   C8        1.0  0.85100  0.27460  0.30750  1.0000
  O   O9        1.0  0.46800  0.17480  0.76580  1.0000
  O   O10       1.0  0.03200  0.67480  0.73420  1.0000
  O   O11       1.0  0.53200  0.82520  0.23420  1.0000
  O   O12       1.0  0.96800  0.32520  0.26580  1.0000
  C   C9        1.0  0.31600  0.28590  0.69420  1.0000
  C   C10       1.0  0.18400  0.78590  0.80580  1.0000
  C   C11       1.0  0.68400  0.71410  0.30580  1.0000
  C   C12       1.0  0.81600  0.21410  0.19420  1.0000
  O   O13       1.0  0.40190  0.27950  0.56800  1.0000
  O   O14       1.0  0.09810  0.77950  0.93200  1.0000
  O   O15       1.0  0.59810  0.72050  0.43200  1.0000
  O   O16       1.0  0.90190  0.22050  0.06800  1.0000
  O   O17       1.0  0.27600  0.23060  0.93130  1.0000
  O   O18       1.0  0.22400  0.73060  0.56870  1.0000
  O   O19       1.0  0.72400  0.76940  0.06870  1.0000
  O   O20       1.0  0.77600  0.26940  0.43130  1.0000
  O   O21       1.0  0.21200  0.33660  0.74020  1.0000
  O   O22       1.0  0.28800  0.83660  0.75980  1.0000
  O   O23       1.0  0.78800  0.66340  0.25980  1.0000
  O   O24       1.0  0.71200  0.16340  0.24020  1.0000
  O   O25       1.0  0.87100  0.15480  0.62680  1.0000
  O   O26       1.0  0.62900  0.65480  0.87320  1.0000
  O   O27       1.0  0.12900  0.84520  0.37320  1.0000
  O   O28       1.0  0.37100  0.34520  0.12680  1.0000
  O   O29       1.0  0.28200  0.16740  0.37390  1.0000
  O   O30       1.0  0.21800  0.66740  0.12610  1.0000
  O   O31       1.0  0.71800  0.83260  0.62610  1.0000
  O   O32       1.0  0.78200  0.33260  0.87390  1.0000
