data_image0
_chemical_formula_structural       Fe4Cl12O24C36
_chemical_formula_sum              "Fe4 Cl12 O24 C36"
_cell_length_a       10.866
_cell_length_b       21.1945
_cell_length_c       12.2707
_cell_angle_alpha    90
_cell_angle_beta     101.413
_cell_angle_gamma    90

_space_group_name_H-M_alt    "P 1"
_space_group_IT_number       1

loop_
  _space_group_symop_operation_xyz
  'x, y, z'

loop_
  _atom_site_type_symbol
  _atom_site_label
  _atom_site_symmetry_multiplicity
  _atom_site_fract_x
  _atom_site_fract_y
  _atom_site_fract_z
  _atom_site_occupancy
  Fe  Fe1       1.0  0.95697  0.68556  0.51715  1.0000
  Fe  Fe2       1.0  0.54303  0.18556  0.98285  1.0000
  Fe  Fe3       1.0  0.04303  0.31444  0.48285  1.0000
  Fe  Fe4       1.0  0.45697  0.81444  0.01715  1.0000
  Cl  Cl1       1.0  0.07117  0.67513  0.93506  1.0000
  Cl  Cl2       1.0  0.42883  0.17513  0.56494  1.0000
  Cl  Cl3       1.0  0.92883  0.32487  0.06494  1.0000
  Cl  Cl4       1.0  0.57117  0.82487  0.43506  1.0000
  Cl  Cl5       1.0  0.33398  0.82747  0.60012  1.0000
  Cl  Cl6       1.0  0.16602  0.32747  0.89988  1.0000
  Cl  Cl7       1.0  0.66602  0.17253  0.39988  1.0000
  Cl  Cl8       1.0  0.83398  0.67253  0.10012  1.0000
  Cl  Cl9       1.0  0.70668  0.48093  0.48392  1.0000
  Cl  Cl10      1.0  0.79332  0.98093  0.01608  1.0000
  Cl  Cl11      1.0  0.29332  0.51907  0.51608  1.0000
  Cl  Cl12      1.0  0.20668  0.01907  0.98392  1.0000
  O   O1        1.0  0.09630  0.75084  0.54980  1.0000
  O   O2        1.0  0.40370  0.25084  0.95020  1.0000
  O   O3        1.0  0.90370  0.24916  0.45020  1.0000
  O   O4        1.0  0.59630  0.74916  0.04980  1.0000
  O   O5        1.0  0.98980  0.68746  0.68750  1.0000
  O   O6        1.0  0.51020  0.18746  0.81250  1.0000
  O   O7        1.0  0.01020  0.31254  0.31250  1.0000
  O   O8        1.0  0.48980  0.81254  0.18750  1.0000
  O   O9        1.0  0.30280  0.75734  0.98560  1.0000
  O   O10       1.0  0.19720  0.25734  0.51440  1.0000
  O   O11       1.0  0.69720  0.24266  0.01440  1.0000
  O   O12       1.0  0.80280  0.74266  0.48560  1.0000
  O   O13       1.0  0.41570  0.81360  0.84690  1.0000
  O   O14       1.0  0.08430  0.31360  0.65310  1.0000
  O   O15       1.0  0.58430  0.18640  0.15310  1.0000
  O   O16       1.0  0.91570  0.68640  0.34690  1.0000
  O   O17       1.0  0.85660  0.60160  0.51370  1.0000
  O   O18       1.0  0.64340  0.10160  0.98630  1.0000
  O   O19       1.0  0.14340  0.39840  0.48630  1.0000
  O   O20       1.0  0.35660  0.89840  0.01370  1.0000
  O   O21       1.0  0.90400  0.38310  0.48000  1.0000
  O   O22       1.0  0.59600  0.88310  0.02000  1.0000
  O   O23       1.0  0.09600  0.61690  0.52000  1.0000
  O   O24       1.0  0.40400  0.11690  0.98000  1.0000
  C   C1        1.0  0.15180  0.75330  0.65080  1.0000
  C   C2        1.0  0.34820  0.25330  0.84920  1.0000
  C   C3        1.0  0.84820  0.24670  0.34920  1.0000
  C   C4        1.0  0.65180  0.74670  0.15080  1.0000
  C   C5        1.0  0.08920  0.71670  0.73070  1.0000
  C   C6        1.0  0.41080  0.21670  0.76930  1.0000
  C   C7        1.0  0.91080  0.28330  0.26930  1.0000
  C   C8        1.0  0.58920  0.78330  0.23070  1.0000
  C   C9        1.0  0.14250  0.71710  0.84340  1.0000
  C   C10       1.0  0.35750  0.21710  0.65660  1.0000
  C   C11       1.0  0.85750  0.28290  0.15660  1.0000
  C   C12       1.0  0.64250  0.78290  0.34340  1.0000
  C   C13       1.0  0.24920  0.75230  0.88330  1.0000
  C   C14       1.0  0.25080  0.25230  0.61670  1.0000
  C   C15       1.0  0.75080  0.24770  0.11670  1.0000
  C   C16       1.0  0.74920  0.74770  0.38330  1.0000
  C   C17       1.0  0.31400  0.78600  0.80370  1.0000
  C   C18       1.0  0.18600  0.28600  0.69630  1.0000
  C   C19       1.0  0.68600  0.21400  0.19630  1.0000
  C   C20       1.0  0.81400  0.71400  0.30370  1.0000
  C   C21       1.0  0.26040  0.78570  0.69150  1.0000
  C   C22       1.0  0.23960  0.28570  0.80850  1.0000
  C   C23       1.0  0.73960  0.21430  0.30850  1.0000
  C   C24       1.0  0.76040  0.71430  0.19150  1.0000
  C   C25       1.0  0.91670  0.55130  0.50610  1.0000
  C   C26       1.0  0.58330  0.05130  0.99390  1.0000
  C   C27       1.0  0.08330  0.44870  0.49390  1.0000
  C   C28       1.0  0.41670  0.94870  0.00610  1.0000
  C   C29       1.0  0.86750  0.49210  0.49160  1.0000
  C   C30       1.0  0.63250  0.99210  0.00840  1.0000
  C   C31       1.0  0.13250  0.50790  0.50840  1.0000
  C   C32       1.0  0.36750  0.00790  0.99160  1.0000
  C   C33       1.0  0.94190  0.43860  0.48930  1.0000
  C   C34       1.0  0.55810  0.93860  0.01070  1.0000
  C   C35       1.0  0.05810  0.56140  0.51070  1.0000
  C   C36       1.0  0.44190  0.06140  0.98930  1.0000
