data_image0
_chemical_formula_structural       Dy4O24H8O32H8O8C32H8C8H8C8H8C16H24C32H8C8H8C8H8C16H24
_chemical_formula_sum              "Dy4 O64 H112 C128"
_cell_length_a       16.5026
_cell_length_b       20.2435
_cell_length_c       9.5964
_cell_angle_alpha    90
_cell_angle_beta     90
_cell_angle_gamma    90

_space_group_name_H-M_alt    "P 1"
_space_group_IT_number       1

loop_
  _space_group_symop_operation_xyz
  'x, y, z'

loop_
  _atom_site_type_symbol
  _atom_site_label
  _atom_site_symmetry_multiplicity
  _atom_site_fract_x
  _atom_site_fract_y
  _atom_site_fract_z
  _atom_site_occupancy
  Dy  Dy1       1.0  0.50000  0.50000  0.67769  1.0000
  Dy  Dy2       1.0  0.50000  0.50000  0.17769  1.0000
  Dy  Dy3       1.0  0.00000  0.00000  0.67769  1.0000
  Dy  Dy4       1.0  0.00000  0.00000  0.17769  1.0000
  O   O1        1.0  0.64240  0.49181  0.75360  1.0000
  O   O2        1.0  0.35760  0.50819  0.75360  1.0000
  O   O3        1.0  0.64240  0.50819  0.25360  1.0000
  O   O4        1.0  0.35760  0.49181  0.25360  1.0000
  O   O5        1.0  0.14240  0.99181  0.75360  1.0000
  O   O6        1.0  0.85760  0.00819  0.75360  1.0000
  O   O7        1.0  0.14240  0.00819  0.25360  1.0000
  O   O8        1.0  0.85760  0.99181  0.25360  1.0000
  O   O9        1.0  0.61312  0.55432  0.57120  1.0000
  O   O10       1.0  0.38688  0.44568  0.57120  1.0000
  O   O11       1.0  0.61312  0.44568  0.07120  1.0000
  O   O12       1.0  0.38688  0.55432  0.07120  1.0000
  O   O13       1.0  0.11312  0.05432  0.57120  1.0000
  O   O14       1.0  0.88688  0.94568  0.57120  1.0000
  O   O15       1.0  0.11312  0.94568  0.07120  1.0000
  O   O16       1.0  0.88688  0.05432  0.07120  1.0000
  O   O17       1.0  0.72263  0.61997  0.44580  1.0000
  O   O18       1.0  0.27737  0.38003  0.44580  1.0000
  O   O19       1.0  0.72263  0.38003  0.94580  1.0000
  O   O20       1.0  0.27737  0.61997  0.94580  1.0000
  O   O21       1.0  0.22263  0.11997  0.44580  1.0000
  O   O22       1.0  0.77737  0.88003  0.44580  1.0000
  O   O23       1.0  0.22263  0.88003  0.94580  1.0000
  O   O24       1.0  0.77737  0.11997  0.94580  1.0000
  H   H1        1.0  0.67680  0.60620  0.46130  1.0000
  H   H2        1.0  0.32320  0.39380  0.46130  1.0000
  H   H3        1.0  0.67680  0.39380  0.96130  1.0000
  H   H4        1.0  0.32320  0.60620  0.96130  1.0000
  H   H5        1.0  0.17680  0.10620  0.46130  1.0000
  H   H6        1.0  0.82320  0.89380  0.46130  1.0000
  H   H7        1.0  0.17680  0.89380  0.96130  1.0000
  H   H8        1.0  0.82320  0.10620  0.96130  1.0000
  O   O25       1.0  0.87391  0.64761  0.40670  1.0000
  O   O26       1.0  0.12609  0.35239  0.40670  1.0000
  O   O27       1.0  0.87391  0.35239  0.90670  1.0000
  O   O28       1.0  0.12609  0.64761  0.90670  1.0000
  O   O29       1.0  0.37391  0.14761  0.40670  1.0000
  O   O30       1.0  0.62609  0.85239  0.40670  1.0000
  O   O31       1.0  0.37391  0.85239  0.90670  1.0000
  O   O32       1.0  0.62609  0.14761  0.90670  1.0000
  O   O33       1.0  0.48874  0.42028  0.84160  1.0000
  O   O34       1.0  0.51126  0.57972  0.84160  1.0000
  O   O35       1.0  0.48874  0.57972  0.34160  1.0000
  O   O36       1.0  0.51126  0.42028  0.34160  1.0000
  O   O37       1.0  0.98874  0.92028  0.84160  1.0000
  O   O38       1.0  0.01126  0.07972  0.84160  1.0000
  O   O39       1.0  0.98874  0.07972  0.34160  1.0000
  O   O40       1.0  0.01126  0.92028  0.34160  1.0000
  O   O41       1.0  0.44443  0.40850  0.05950  1.0000
  O   O42       1.0  0.55557  0.59150  0.05950  1.0000
  O   O43       1.0  0.44443  0.59150  0.55950  1.0000
  O   O44       1.0  0.55557  0.40850  0.55950  1.0000
  O   O45       1.0  0.94443  0.90850  0.05950  1.0000
  O   O46       1.0  0.05557  0.09150  0.05950  1.0000
  O   O47       1.0  0.94443  0.09150  0.55950  1.0000
  O   O48       1.0  0.05557  0.90850  0.55950  1.0000
  O   O49       1.0  0.38280  0.29845  0.13870  1.0000
  O   O50       1.0  0.61720  0.70155  0.13870  1.0000
  O   O51       1.0  0.38280  0.70155  0.63870  1.0000
  O   O52       1.0  0.61720  0.29845  0.63870  1.0000
  O   O53       1.0  0.88280  0.79845  0.13870  1.0000
  O   O54       1.0  0.11720  0.20155  0.13870  1.0000
  O   O55       1.0  0.88280  0.20155  0.63870  1.0000
  O   O56       1.0  0.11720  0.79845  0.63870  1.0000
  H   H9        1.0  0.40470  0.33440  0.14990  1.0000
  H   H10       1.0  0.59530  0.66560  0.14990  1.0000
  H   H11       1.0  0.40470  0.66560  0.64990  1.0000
  H   H12       1.0  0.59530  0.33440  0.64990  1.0000
  H   H13       1.0  0.90470  0.83440  0.14990  1.0000
  H   H14       1.0  0.09530  0.16560  0.14990  1.0000
  H   H15       1.0  0.90470  0.16560  0.64990  1.0000
  H   H16       1.0  0.09530  0.83440  0.64990  1.0000
  O   O57       1.0  0.31870  0.18636  0.07520  1.0000
  O   O58       1.0  0.68130  0.81364  0.07520  1.0000
  O   O59       1.0  0.31870  0.81364  0.57520  1.0000
  O   O60       1.0  0.68130  0.18636  0.57520  1.0000
  O   O61       1.0  0.81870  0.68636  0.07520  1.0000
  O   O62       1.0  0.18130  0.31364  0.07520  1.0000
  O   O63       1.0  0.81870  0.31364  0.57520  1.0000
  O   O64       1.0  0.18130  0.68636  0.57520  1.0000
  C   C1        1.0  0.75220  0.54724  0.63950  1.0000
  C   C2        1.0  0.24780  0.45276  0.63950  1.0000
  C   C3        1.0  0.75220  0.45276  0.13950  1.0000
  C   C4        1.0  0.24780  0.54724  0.13950  1.0000
  C   C5        1.0  0.25220  0.04724  0.63950  1.0000
  C   C6        1.0  0.74780  0.95276  0.63950  1.0000
  C   C7        1.0  0.25220  0.95276  0.13950  1.0000
  C   C8        1.0  0.74780  0.04724  0.13950  1.0000
  C   C9        1.0  0.77550  0.59022  0.53290  1.0000
  C   C10       1.0  0.22450  0.40978  0.53290  1.0000
  C   C11       1.0  0.77550  0.40978  0.03290  1.0000
  C   C12       1.0  0.22450  0.59022  0.03290  1.0000
  C   C13       1.0  0.27550  0.09022  0.53290  1.0000
  C   C14       1.0  0.72450  0.90978  0.53290  1.0000
  C   C15       1.0  0.27550  0.90978  0.03290  1.0000
  C   C16       1.0  0.72450  0.09022  0.03290  1.0000
  C   C17       1.0  0.85900  0.60398  0.51340  1.0000
  C   C18       1.0  0.14100  0.39602  0.51340  1.0000
  C   C19       1.0  0.85900  0.39602  0.01340  1.0000
  C   C20       1.0  0.14100  0.60398  0.01340  1.0000
  C   C21       1.0  0.35900  0.10398  0.51340  1.0000
  C   C22       1.0  0.64100  0.89602  0.51340  1.0000
  C   C23       1.0  0.35900  0.89602  0.01340  1.0000
  C   C24       1.0  0.64100  0.10398  0.01340  1.0000
  C   C25       1.0  0.91620  0.57454  0.59850  1.0000
  C   C26       1.0  0.08380  0.42546  0.59850  1.0000
  C   C27       1.0  0.91620  0.42546  0.09850  1.0000
  C   C28       1.0  0.08380  0.57454  0.09850  1.0000
  C   C29       1.0  0.41620  0.07454  0.59850  1.0000
  C   C30       1.0  0.58380  0.92546  0.59850  1.0000
  C   C31       1.0  0.41620  0.92546  0.09850  1.0000
  C   C32       1.0  0.58380  0.07454  0.09850  1.0000
  H   H17       1.0  0.97100  0.58270  0.58410  1.0000
  H   H18       1.0  0.02900  0.41730  0.58410  1.0000
  H   H19       1.0  0.97100  0.41730  0.08410  1.0000
  H   H20       1.0  0.02900  0.58270  0.08410  1.0000
  H   H21       1.0  0.47100  0.08270  0.58410  1.0000
  H   H22       1.0  0.52900  0.91730  0.58410  1.0000
  H   H23       1.0  0.47100  0.91730  0.08410  1.0000
  H   H24       1.0  0.52900  0.08270  0.08410  1.0000
  C   C33       1.0  0.89170  0.53260  0.70600  1.0000
  C   C34       1.0  0.10830  0.46740  0.70600  1.0000
  C   C35       1.0  0.89170  0.46740  0.20600  1.0000
  C   C36       1.0  0.10830  0.53260  0.20600  1.0000
  C   C37       1.0  0.39170  0.03260  0.70600  1.0000
  C   C38       1.0  0.60830  0.96740  0.70600  1.0000
  C   C39       1.0  0.39170  0.96740  0.20600  1.0000
  C   C40       1.0  0.60830  0.03260  0.20600  1.0000
  H   H25       1.0  0.93020  0.51340  0.76400  1.0000
  H   H26       1.0  0.06980  0.48660  0.76400  1.0000
  H   H27       1.0  0.93020  0.48660  0.26400  1.0000
  H   H28       1.0  0.06980  0.51340  0.26400  1.0000
  H   H29       1.0  0.43020  0.01340  0.76400  1.0000
  H   H30       1.0  0.56980  0.98660  0.76400  1.0000
  H   H31       1.0  0.43020  0.98660  0.26400  1.0000
  H   H32       1.0  0.56980  0.01340  0.26400  1.0000
  C   C41       1.0  0.81040  0.51955  0.72660  1.0000
  C   C42       1.0  0.18960  0.48045  0.72660  1.0000
  C   C43       1.0  0.81040  0.48045  0.22660  1.0000
  C   C44       1.0  0.18960  0.51955  0.22660  1.0000
  C   C45       1.0  0.31040  0.01955  0.72660  1.0000
  C   C46       1.0  0.68960  0.98045  0.72660  1.0000
  C   C47       1.0  0.31040  0.98045  0.22660  1.0000
  C   C48       1.0  0.68960  0.01955  0.22660  1.0000
  H   H33       1.0  0.79450  0.49200  0.79920  1.0000
  H   H34       1.0  0.20550  0.50800  0.79920  1.0000
  H   H35       1.0  0.79450  0.50800  0.29920  1.0000
  H   H36       1.0  0.20550  0.49200  0.29920  1.0000
  H   H37       1.0  0.29450  0.99200  0.79920  1.0000
  H   H38       1.0  0.70550  0.00800  0.79920  1.0000
  H   H39       1.0  0.29450  0.00800  0.29920  1.0000
  H   H40       1.0  0.70550  0.99200  0.29920  1.0000
  C   C49       1.0  0.66470  0.52974  0.65760  1.0000
  C   C50       1.0  0.33530  0.47026  0.65760  1.0000
  C   C51       1.0  0.66470  0.47026  0.15760  1.0000
  C   C52       1.0  0.33530  0.52974  0.15760  1.0000
  C   C53       1.0  0.16470  0.02974  0.65760  1.0000
  C   C54       1.0  0.83530  0.97026  0.65760  1.0000
  C   C55       1.0  0.16470  0.97026  0.15760  1.0000
  C   C56       1.0  0.83530  0.02974  0.15760  1.0000
  C   C57       1.0  0.95690  0.66420  0.38080  1.0000
  C   C58       1.0  0.04310  0.33580  0.38080  1.0000
  C   C59       1.0  0.95690  0.33580  0.88080  1.0000
  C   C60       1.0  0.04310  0.66420  0.88080  1.0000
  C   C61       1.0  0.45690  0.16420  0.38080  1.0000
  C   C62       1.0  0.54310  0.83580  0.38080  1.0000
  C   C63       1.0  0.45690  0.83580  0.88080  1.0000
  C   C64       1.0  0.54310  0.16420  0.88080  1.0000
  H   H41       1.0  0.95980  0.69550  0.30600  1.0000
  H   H42       1.0  0.04020  0.30450  0.30600  1.0000
  H   H43       1.0  0.95980  0.30450  0.80600  1.0000
  H   H44       1.0  0.04020  0.69550  0.80600  1.0000
  H   H45       1.0  0.45980  0.19550  0.30600  1.0000
  H   H46       1.0  0.54020  0.80450  0.30600  1.0000
  H   H47       1.0  0.45980  0.80450  0.80600  1.0000
  H   H48       1.0  0.54020  0.19550  0.80600  1.0000
  H   H49       1.0  0.98630  0.62500  0.35570  1.0000
  H   H50       1.0  0.01370  0.37500  0.35570  1.0000
  H   H51       1.0  0.98630  0.37500  0.85570  1.0000
  H   H52       1.0  0.01370  0.62500  0.85570  1.0000
  H   H53       1.0  0.48630  0.12500  0.35570  1.0000
  H   H54       1.0  0.51370  0.87500  0.35570  1.0000
  H   H55       1.0  0.48630  0.87500  0.85570  1.0000
  H   H56       1.0  0.51370  0.12500  0.85570  1.0000
  H   H57       1.0  0.98020  0.68300  0.46340  1.0000
  H   H58       1.0  0.01980  0.31700  0.46340  1.0000
  H   H59       1.0  0.98020  0.31700  0.96340  1.0000
  H   H60       1.0  0.01980  0.68300  0.96340  1.0000
  H   H61       1.0  0.48020  0.18300  0.46340  1.0000
  H   H62       1.0  0.51980  0.81700  0.46340  1.0000
  H   H63       1.0  0.48020  0.81700  0.96340  1.0000
  H   H64       1.0  0.51980  0.18300  0.96340  1.0000
  C   C65       1.0  0.41380  0.32389  0.89720  1.0000
  C   C66       1.0  0.58620  0.67611  0.89720  1.0000
  C   C67       1.0  0.41380  0.67611  0.39720  1.0000
  C   C68       1.0  0.58620  0.32389  0.39720  1.0000
  C   C69       1.0  0.91380  0.82389  0.89720  1.0000
  C   C70       1.0  0.08620  0.17611  0.89720  1.0000
  C   C71       1.0  0.91380  0.17611  0.39720  1.0000
  C   C72       1.0  0.08620  0.82389  0.39720  1.0000
  C   C73       1.0  0.38200  0.28320  0.00100  1.0000
  C   C74       1.0  0.61800  0.71680  0.00100  1.0000
  C   C75       1.0  0.38200  0.71680  0.50100  1.0000
  C   C76       1.0  0.61800  0.28320  0.50100  1.0000
  C   C77       1.0  0.88200  0.78320  0.00100  1.0000
  C   C78       1.0  0.11800  0.21680  0.00100  1.0000
  C   C79       1.0  0.88200  0.21680  0.50100  1.0000
  C   C80       1.0  0.11800  0.78320  0.50100  1.0000
  C   C81       1.0  0.34660  0.22213  0.96410  1.0000
  C   C82       1.0  0.65340  0.77787  0.96410  1.0000
  C   C83       1.0  0.34660  0.77787  0.46410  1.0000
  C   C84       1.0  0.65340  0.22213  0.46410  1.0000
  C   C85       1.0  0.84660  0.72213  0.96410  1.0000
  C   C86       1.0  0.15340  0.27787  0.96410  1.0000
  C   C87       1.0  0.84660  0.27787  0.46410  1.0000
  C   C88       1.0  0.15340  0.72213  0.46410  1.0000
  C   C89       1.0  0.34200  0.20351  0.82620  1.0000
  C   C90       1.0  0.65800  0.79649  0.82620  1.0000
  C   C91       1.0  0.34200  0.79649  0.32620  1.0000
  C   C92       1.0  0.65800  0.20351  0.32620  1.0000
  C   C93       1.0  0.84200  0.70351  0.82620  1.0000
  C   C94       1.0  0.15800  0.29649  0.82620  1.0000
  C   C95       1.0  0.84200  0.29649  0.32620  1.0000
  C   C96       1.0  0.15800  0.70351  0.32620  1.0000
  H   H65       1.0  0.31860  0.16330  0.80230  1.0000
  H   H66       1.0  0.68140  0.83670  0.80230  1.0000
  H   H67       1.0  0.31860  0.83670  0.30230  1.0000
  H   H68       1.0  0.68140  0.16330  0.30230  1.0000
  H   H69       1.0  0.81860  0.66330  0.80230  1.0000
  H   H70       1.0  0.18140  0.33670  0.80230  1.0000
  H   H71       1.0  0.81860  0.33670  0.30230  1.0000
  H   H72       1.0  0.18140  0.66330  0.30230  1.0000
  C   C97       1.0  0.37250  0.24532  0.72190  1.0000
  C   C98       1.0  0.62750  0.75468  0.72190  1.0000
  C   C99       1.0  0.37250  0.75468  0.22190  1.0000
  C   C100      1.0  0.62750  0.24532  0.22190  1.0000
  C   C101      1.0  0.87250  0.74532  0.72190  1.0000
  C   C102      1.0  0.12750  0.25468  0.72190  1.0000
  C   C103      1.0  0.87250  0.25468  0.22190  1.0000
  C   C104      1.0  0.12750  0.74532  0.22190  1.0000
  H   H73       1.0  0.36840  0.23310  0.62870  1.0000
  H   H74       1.0  0.63160  0.76690  0.62870  1.0000
  H   H75       1.0  0.36840  0.76690  0.12870  1.0000
  H   H76       1.0  0.63160  0.23310  0.12870  1.0000
  H   H77       1.0  0.86840  0.73310  0.62870  1.0000
  H   H78       1.0  0.13160  0.26690  0.62870  1.0000
  H   H79       1.0  0.86840  0.26690  0.12870  1.0000
  H   H80       1.0  0.13160  0.73310  0.12870  1.0000
  C   C105      1.0  0.40860  0.30464  0.75720  1.0000
  C   C106      1.0  0.59140  0.69536  0.75720  1.0000
  C   C107      1.0  0.40860  0.69536  0.25720  1.0000
  C   C108      1.0  0.59140  0.30464  0.25720  1.0000
  C   C109      1.0  0.90860  0.80464  0.75720  1.0000
  C   C110      1.0  0.09140  0.19536  0.75720  1.0000
  C   C111      1.0  0.90860  0.19536  0.25720  1.0000
  C   C112      1.0  0.09140  0.80464  0.25720  1.0000
  H   H81       1.0  0.42940  0.33180  0.68790  1.0000
  H   H82       1.0  0.57060  0.66820  0.68790  1.0000
  H   H83       1.0  0.42940  0.66820  0.18790  1.0000
  H   H84       1.0  0.57060  0.33180  0.18790  1.0000
  H   H85       1.0  0.92940  0.83180  0.68790  1.0000
  H   H86       1.0  0.07060  0.16820  0.68790  1.0000
  H   H87       1.0  0.92940  0.16820  0.18790  1.0000
  H   H88       1.0  0.07060  0.83180  0.18790  1.0000
  C   C113      1.0  0.45156  0.38875  0.93410  1.0000
  C   C114      1.0  0.54844  0.61125  0.93410  1.0000
  C   C115      1.0  0.45156  0.61125  0.43410  1.0000
  C   C116      1.0  0.54844  0.38875  0.43410  1.0000
  C   C117      1.0  0.95156  0.88875  0.93410  1.0000
  C   C118      1.0  0.04844  0.11125  0.93410  1.0000
  C   C119      1.0  0.95156  0.11125  0.43410  1.0000
  C   C120      1.0  0.04844  0.88875  0.43410  1.0000
  C   C121      1.0  0.28740  0.12187  0.04730  1.0000
  C   C122      1.0  0.71260  0.87813  0.04730  1.0000
  C   C123      1.0  0.28740  0.87813  0.54730  1.0000
  C   C124      1.0  0.71260  0.12187  0.54730  1.0000
  C   C125      1.0  0.78740  0.62187  0.04730  1.0000
  C   C126      1.0  0.21260  0.37813  0.04730  1.0000
  C   C127      1.0  0.78740  0.37813  0.54730  1.0000
  C   C128      1.0  0.21260  0.62187  0.54730  1.0000
  H   H89       1.0  0.24550  0.12480  0.97820  1.0000
  H   H90       1.0  0.75450  0.87520  0.97820  1.0000
  H   H91       1.0  0.24550  0.87520  0.47820  1.0000
  H   H92       1.0  0.75450  0.12480  0.47820  1.0000
  H   H93       1.0  0.74550  0.62480  0.97820  1.0000
  H   H94       1.0  0.25450  0.37520  0.97820  1.0000
  H   H95       1.0  0.74550  0.37520  0.47820  1.0000
  H   H96       1.0  0.25450  0.62480  0.47820  1.0000
  H   H97       1.0  0.26550  0.10340  0.13140  1.0000
  H   H98       1.0  0.73450  0.89660  0.13140  1.0000
  H   H99       1.0  0.26550  0.89660  0.63140  1.0000
  H   H100      1.0  0.73450  0.10340  0.63140  1.0000
  H   H101      1.0  0.76550  0.60340  0.13140  1.0000
  H   H102      1.0  0.23450  0.39660  0.13140  1.0000
  H   H103      1.0  0.76550  0.39660  0.63140  1.0000
  H   H104      1.0  0.23450  0.60340  0.63140  1.0000
  H   H105      1.0  0.33020  0.09400  0.01340  1.0000
  H   H106      1.0  0.66980  0.90600  0.01340  1.0000
  H   H107      1.0  0.33020  0.90600  0.51340  1.0000
  H   H108      1.0  0.66980  0.09400  0.51340  1.0000
  H   H109      1.0  0.83020  0.59400  0.01340  1.0000
  H   H110      1.0  0.16980  0.40600  0.01340  1.0000
  H   H111      1.0  0.83020  0.40600  0.51340  1.0000
  H   H112      1.0  0.16980  0.59400  0.51340  1.0000
