data_image0
_chemical_formula_structural       Tb4O24H8O32H8O8C32H8C8H8C8H8C16H24C32H8C8H8C8H8C16H24
_chemical_formula_sum              "Tb4 O64 H112 C128"
_cell_length_a       16.5221
_cell_length_b       20.2726
_cell_length_c       9.585
_cell_angle_alpha    90
_cell_angle_beta     90
_cell_angle_gamma    90

_space_group_name_H-M_alt    "P 1"
_space_group_IT_number       1

loop_
  _space_group_symop_operation_xyz
  'x, y, z'

loop_
  _atom_site_type_symbol
  _atom_site_label
  _atom_site_symmetry_multiplicity
  _atom_site_fract_x
  _atom_site_fract_y
  _atom_site_fract_z
  _atom_site_occupancy
  Tb  Tb1       1.0  0.50000  0.50000  0.32180  1.0000
  Tb  Tb2       1.0  0.50000  0.50000  0.82180  1.0000
  Tb  Tb3       1.0  0.00000  0.00000  0.32180  1.0000
  Tb  Tb4       1.0  0.00000  0.00000  0.82180  1.0000
  O   O1        1.0  0.35720  0.50780  0.24530  1.0000
  O   O2        1.0  0.64280  0.49220  0.24530  1.0000
  O   O3        1.0  0.35720  0.49220  0.74530  1.0000
  O   O4        1.0  0.64280  0.50780  0.74530  1.0000
  O   O5        1.0  0.85720  0.00780  0.24530  1.0000
  O   O6        1.0  0.14280  0.99220  0.24530  1.0000
  O   O7        1.0  0.85720  0.99220  0.74530  1.0000
  O   O8        1.0  0.14280  0.00780  0.74530  1.0000
  O   O9        1.0  0.38600  0.44550  0.42860  1.0000
  O   O10       1.0  0.61400  0.55450  0.42860  1.0000
  O   O11       1.0  0.38600  0.55450  0.92860  1.0000
  O   O12       1.0  0.61400  0.44550  0.92860  1.0000
  O   O13       1.0  0.88600  0.94550  0.42860  1.0000
  O   O14       1.0  0.11400  0.05450  0.42860  1.0000
  O   O15       1.0  0.88600  0.05450  0.92860  1.0000
  O   O16       1.0  0.11400  0.94550  0.92860  1.0000
  O   O17       1.0  0.27710  0.37970  0.55430  1.0000
  O   O18       1.0  0.72290  0.62030  0.55430  1.0000
  O   O19       1.0  0.27710  0.62030  0.05430  1.0000
  O   O20       1.0  0.72290  0.37970  0.05430  1.0000
  O   O21       1.0  0.77710  0.87970  0.55430  1.0000
  O   O22       1.0  0.22290  0.12030  0.55430  1.0000
  O   O23       1.0  0.77710  0.12030  0.05430  1.0000
  O   O24       1.0  0.22290  0.87970  0.05430  1.0000
  H   H1        1.0  0.32270  0.39450  0.54210  1.0000
  H   H2        1.0  0.67730  0.60550  0.54210  1.0000
  H   H3        1.0  0.32270  0.60550  0.04210  1.0000
  H   H4        1.0  0.67730  0.39450  0.04210  1.0000
  H   H5        1.0  0.82270  0.89450  0.54210  1.0000
  H   H6        1.0  0.17730  0.10550  0.54210  1.0000
  H   H7        1.0  0.82270  0.10550  0.04210  1.0000
  H   H8        1.0  0.17730  0.89450  0.04210  1.0000
  O   O25       1.0  0.12610  0.35220  0.59300  1.0000
  O   O26       1.0  0.87390  0.64780  0.59300  1.0000
  O   O27       1.0  0.12610  0.64780  0.09300  1.0000
  O   O28       1.0  0.87390  0.35220  0.09300  1.0000
  O   O29       1.0  0.62610  0.85220  0.59300  1.0000
  O   O30       1.0  0.37390  0.14780  0.59300  1.0000
  O   O31       1.0  0.62610  0.14780  0.09300  1.0000
  O   O32       1.0  0.37390  0.85220  0.09300  1.0000
  O   O33       1.0  0.51200  0.58040  0.15780  1.0000
  O   O34       1.0  0.48800  0.41960  0.15780  1.0000
  O   O35       1.0  0.51200  0.41960  0.65780  1.0000
  O   O36       1.0  0.48800  0.58040  0.65780  1.0000
  O   O37       1.0  0.01200  0.08040  0.15780  1.0000
  O   O38       1.0  0.98800  0.91960  0.15780  1.0000
  O   O39       1.0  0.01200  0.91960  0.65780  1.0000
  O   O40       1.0  0.98800  0.08040  0.65780  1.0000
  O   O41       1.0  0.55560  0.59240  0.93980  1.0000
  O   O42       1.0  0.44440  0.40760  0.93980  1.0000
  O   O43       1.0  0.55560  0.40760  0.43980  1.0000
  O   O44       1.0  0.44440  0.59240  0.43980  1.0000
  O   O45       1.0  0.05560  0.09240  0.93980  1.0000
  O   O46       1.0  0.94440  0.90760  0.93980  1.0000
  O   O47       1.0  0.05560  0.90760  0.43980  1.0000
  O   O48       1.0  0.94440  0.09240  0.43980  1.0000
  O   O49       1.0  0.61760  0.70220  0.86020  1.0000
  O   O50       1.0  0.38240  0.29780  0.86020  1.0000
  O   O51       1.0  0.61760  0.29780  0.36020  1.0000
  O   O52       1.0  0.38240  0.70220  0.36020  1.0000
  O   O53       1.0  0.11760  0.20220  0.86020  1.0000
  O   O54       1.0  0.88240  0.79780  0.86020  1.0000
  O   O55       1.0  0.11760  0.79780  0.36020  1.0000
  O   O56       1.0  0.88240  0.20220  0.36020  1.0000
  H   H9        1.0  0.59920  0.66490  0.85010  1.0000
  H   H10       1.0  0.40080  0.33510  0.85010  1.0000
  H   H11       1.0  0.59920  0.33510  0.35010  1.0000
  H   H12       1.0  0.40080  0.66490  0.35010  1.0000
  H   H13       1.0  0.09920  0.16490  0.85010  1.0000
  H   H14       1.0  0.90080  0.83510  0.85010  1.0000
  H   H15       1.0  0.09920  0.83510  0.35010  1.0000
  H   H16       1.0  0.90080  0.16490  0.35010  1.0000
  O   O57       1.0  0.68140  0.81400  0.92650  1.0000
  O   O58       1.0  0.31860  0.18600  0.92650  1.0000
  O   O59       1.0  0.68140  0.18600  0.42650  1.0000
  O   O60       1.0  0.31860  0.81400  0.42650  1.0000
  O   O61       1.0  0.18140  0.31400  0.92650  1.0000
  O   O62       1.0  0.81860  0.68600  0.92650  1.0000
  O   O63       1.0  0.18140  0.68600  0.42650  1.0000
  O   O64       1.0  0.81860  0.31400  0.42650  1.0000
  C   C1        1.0  0.24740  0.45300  0.36090  1.0000
  C   C2        1.0  0.75260  0.54700  0.36090  1.0000
  C   C3        1.0  0.24740  0.54700  0.86090  1.0000
  C   C4        1.0  0.75260  0.45300  0.86090  1.0000
  C   C5        1.0  0.74740  0.95300  0.36090  1.0000
  C   C6        1.0  0.25260  0.04700  0.36090  1.0000
  C   C7        1.0  0.74740  0.04700  0.86090  1.0000
  C   C8        1.0  0.25260  0.95300  0.86090  1.0000
  C   C9        1.0  0.22460  0.41000  0.46710  1.0000
  C   C10       1.0  0.77540  0.59000  0.46710  1.0000
  C   C11       1.0  0.22460  0.59000  0.96710  1.0000
  C   C12       1.0  0.77540  0.41000  0.96710  1.0000
  C   C13       1.0  0.72460  0.91000  0.46710  1.0000
  C   C14       1.0  0.27540  0.09000  0.46710  1.0000
  C   C15       1.0  0.72460  0.09000  0.96710  1.0000
  C   C16       1.0  0.27540  0.91000  0.96710  1.0000
  C   C17       1.0  0.14090  0.39630  0.48750  1.0000
  C   C18       1.0  0.85910  0.60370  0.48750  1.0000
  C   C19       1.0  0.14090  0.60370  0.98750  1.0000
  C   C20       1.0  0.85910  0.39630  0.98750  1.0000
  C   C21       1.0  0.64090  0.89630  0.48750  1.0000
  C   C22       1.0  0.35910  0.10370  0.48750  1.0000
  C   C23       1.0  0.64090  0.10370  0.98750  1.0000
  C   C24       1.0  0.35910  0.89630  0.98750  1.0000
  C   C25       1.0  0.08380  0.42570  0.40280  1.0000
  C   C26       1.0  0.91620  0.57430  0.40280  1.0000
  C   C27       1.0  0.08380  0.57430  0.90280  1.0000
  C   C28       1.0  0.91620  0.42570  0.90280  1.0000
  C   C29       1.0  0.58380  0.92570  0.40280  1.0000
  C   C30       1.0  0.41620  0.07430  0.40280  1.0000
  C   C31       1.0  0.58380  0.07430  0.90280  1.0000
  C   C32       1.0  0.41620  0.92570  0.90280  1.0000
  H   H17       1.0  0.02900  0.41770  0.41730  1.0000
  H   H18       1.0  0.97100  0.58230  0.41730  1.0000
  H   H19       1.0  0.02900  0.58230  0.91730  1.0000
  H   H20       1.0  0.97100  0.41770  0.91730  1.0000
  H   H21       1.0  0.52900  0.91770  0.41730  1.0000
  H   H22       1.0  0.47100  0.08230  0.41730  1.0000
  H   H23       1.0  0.52900  0.08230  0.91730  1.0000
  H   H24       1.0  0.47100  0.91770  0.91730  1.0000
  C   C33       1.0  0.10850  0.46760  0.29540  1.0000
  C   C34       1.0  0.89150  0.53240  0.29540  1.0000
  C   C35       1.0  0.10850  0.53240  0.79540  1.0000
  C   C36       1.0  0.89150  0.46760  0.79540  1.0000
  C   C37       1.0  0.60850  0.96760  0.29540  1.0000
  C   C38       1.0  0.39150  0.03240  0.29540  1.0000
  C   C39       1.0  0.60850  0.03240  0.79540  1.0000
  C   C40       1.0  0.39150  0.96760  0.79540  1.0000
  H   H25       1.0  0.06990  0.48720  0.23820  1.0000
  H   H26       1.0  0.93010  0.51280  0.23820  1.0000
  H   H27       1.0  0.06990  0.51280  0.73820  1.0000
  H   H28       1.0  0.93010  0.48720  0.73820  1.0000
  H   H29       1.0  0.56990  0.98720  0.23820  1.0000
  H   H30       1.0  0.43010  0.01280  0.23820  1.0000
  H   H31       1.0  0.56990  0.01280  0.73820  1.0000
  H   H32       1.0  0.43010  0.98720  0.73820  1.0000
  C   C41       1.0  0.18890  0.48020  0.27340  1.0000
  C   C42       1.0  0.81110  0.51980  0.27340  1.0000
  C   C43       1.0  0.18890  0.51980  0.77340  1.0000
  C   C44       1.0  0.81110  0.48020  0.77340  1.0000
  C   C45       1.0  0.68890  0.98020  0.27340  1.0000
  C   C46       1.0  0.31110  0.01980  0.27340  1.0000
  C   C47       1.0  0.68890  0.01980  0.77340  1.0000
  C   C48       1.0  0.31110  0.98020  0.77340  1.0000
  H   H33       1.0  0.20450  0.50710  0.19960  1.0000
  H   H34       1.0  0.79550  0.49290  0.19960  1.0000
  H   H35       1.0  0.20450  0.49290  0.69960  1.0000
  H   H36       1.0  0.79550  0.50710  0.69960  1.0000
  H   H37       1.0  0.70450  0.00710  0.19960  1.0000
  H   H38       1.0  0.29550  0.99290  0.19960  1.0000
  H   H39       1.0  0.70450  0.99290  0.69960  1.0000
  H   H40       1.0  0.29550  0.00710  0.69960  1.0000
  C   C49       1.0  0.33440  0.46940  0.34250  1.0000
  C   C50       1.0  0.66560  0.53060  0.34250  1.0000
  C   C51       1.0  0.33440  0.53060  0.84250  1.0000
  C   C52       1.0  0.66560  0.46940  0.84250  1.0000
  C   C53       1.0  0.83440  0.96940  0.34250  1.0000
  C   C54       1.0  0.16560  0.03060  0.34250  1.0000
  C   C55       1.0  0.83440  0.03060  0.84250  1.0000
  C   C56       1.0  0.16560  0.96940  0.84250  1.0000
  C   C57       1.0  0.04300  0.33610  0.62160  1.0000
  C   C58       1.0  0.95700  0.66390  0.62160  1.0000
  C   C59       1.0  0.04300  0.66390  0.12160  1.0000
  C   C60       1.0  0.95700  0.33610  0.12160  1.0000
  C   C61       1.0  0.54300  0.83610  0.62160  1.0000
  C   C62       1.0  0.45700  0.16390  0.62160  1.0000
  C   C63       1.0  0.54300  0.16390  0.12160  1.0000
  C   C64       1.0  0.45700  0.83610  0.12160  1.0000
  H   H41       1.0  0.04060  0.30390  0.69490  1.0000
  H   H42       1.0  0.95940  0.69610  0.69490  1.0000
  H   H43       1.0  0.04060  0.69610  0.19490  1.0000
  H   H44       1.0  0.95940  0.30390  0.19490  1.0000
  H   H45       1.0  0.54060  0.80390  0.69490  1.0000
  H   H46       1.0  0.45940  0.19610  0.69490  1.0000
  H   H47       1.0  0.54060  0.19610  0.19490  1.0000
  H   H48       1.0  0.45940  0.80390  0.19490  1.0000
  H   H49       1.0  0.01830  0.31840  0.53890  1.0000
  H   H50       1.0  0.98170  0.68160  0.53890  1.0000
  H   H51       1.0  0.01830  0.68160  0.03890  1.0000
  H   H52       1.0  0.98170  0.31840  0.03890  1.0000
  H   H53       1.0  0.51830  0.81840  0.53890  1.0000
  H   H54       1.0  0.48170  0.18160  0.53890  1.0000
  H   H55       1.0  0.51830  0.18160  0.03890  1.0000
  H   H56       1.0  0.48170  0.81840  0.03890  1.0000
  H   H57       1.0  0.01460  0.37510  0.64990  1.0000
  H   H58       1.0  0.98540  0.62490  0.64990  1.0000
  H   H59       1.0  0.01460  0.62490  0.14990  1.0000
  H   H60       1.0  0.98540  0.37510  0.14990  1.0000
  H   H61       1.0  0.51460  0.87510  0.64990  1.0000
  H   H62       1.0  0.48540  0.12490  0.64990  1.0000
  H   H63       1.0  0.51460  0.12490  0.14990  1.0000
  H   H64       1.0  0.48540  0.87510  0.14990  1.0000
  C   C65       1.0  0.58610  0.67690  0.10300  1.0000
  C   C66       1.0  0.41390  0.32310  0.10300  1.0000
  C   C67       1.0  0.58610  0.32310  0.60300  1.0000
  C   C68       1.0  0.41390  0.67690  0.60300  1.0000
  C   C69       1.0  0.08610  0.17690  0.10300  1.0000
  C   C70       1.0  0.91390  0.82310  0.10300  1.0000
  C   C71       1.0  0.08610  0.82310  0.60300  1.0000
  C   C72       1.0  0.91390  0.17690  0.60300  1.0000
  C   C73       1.0  0.61860  0.71770  0.99740  1.0000
  C   C74       1.0  0.38140  0.28230  0.99740  1.0000
  C   C75       1.0  0.61860  0.28230  0.49740  1.0000
  C   C76       1.0  0.38140  0.71770  0.49740  1.0000
  C   C77       1.0  0.11860  0.21770  0.99740  1.0000
  C   C78       1.0  0.88140  0.78230  0.99740  1.0000
  C   C79       1.0  0.11860  0.78230  0.49740  1.0000
  C   C80       1.0  0.88140  0.21770  0.49740  1.0000
  C   C81       1.0  0.65360  0.77810  0.03660  1.0000
  C   C82       1.0  0.34640  0.22190  0.03660  1.0000
  C   C83       1.0  0.65360  0.22190  0.53660  1.0000
  C   C84       1.0  0.34640  0.77810  0.53660  1.0000
  C   C85       1.0  0.15360  0.27810  0.03660  1.0000
  C   C86       1.0  0.84640  0.72190  0.03660  1.0000
  C   C87       1.0  0.15360  0.72190  0.53660  1.0000
  C   C88       1.0  0.84640  0.27810  0.53660  1.0000
  C   C89       1.0  0.65840  0.79710  0.17490  1.0000
  C   C90       1.0  0.34160  0.20290  0.17490  1.0000
  C   C91       1.0  0.65840  0.20290  0.67490  1.0000
  C   C92       1.0  0.34160  0.79710  0.67490  1.0000
  C   C93       1.0  0.15840  0.29710  0.17490  1.0000
  C   C94       1.0  0.84160  0.70290  0.17490  1.0000
  C   C95       1.0  0.15840  0.70290  0.67490  1.0000
  C   C96       1.0  0.84160  0.29710  0.67490  1.0000
  H   H65       1.0  0.68160  0.83730  0.19910  1.0000
  H   H66       1.0  0.31840  0.16270  0.19910  1.0000
  H   H67       1.0  0.68160  0.16270  0.69910  1.0000
  H   H68       1.0  0.31840  0.83730  0.69910  1.0000
  H   H69       1.0  0.18160  0.33730  0.19910  1.0000
  H   H70       1.0  0.81840  0.66270  0.19910  1.0000
  H   H71       1.0  0.18160  0.66270  0.69910  1.0000
  H   H72       1.0  0.81840  0.33730  0.69910  1.0000
  C   C97       1.0  0.62770  0.75470  0.27870  1.0000
  C   C98       1.0  0.37230  0.24530  0.27870  1.0000
  C   C99       1.0  0.62770  0.24530  0.77870  1.0000
  C   C100      1.0  0.37230  0.75470  0.77870  1.0000
  C   C101      1.0  0.12770  0.25470  0.27870  1.0000
  C   C102      1.0  0.87230  0.74530  0.27870  1.0000
  C   C103      1.0  0.12770  0.74530  0.77870  1.0000
  C   C104      1.0  0.87230  0.25470  0.77870  1.0000
  H   H73       1.0  0.63210  0.76640  0.37220  1.0000
  H   H74       1.0  0.36790  0.23360  0.37220  1.0000
  H   H75       1.0  0.63210  0.23360  0.87220  1.0000
  H   H76       1.0  0.36790  0.76640  0.87220  1.0000
  H   H77       1.0  0.13210  0.26640  0.37220  1.0000
  H   H78       1.0  0.86790  0.73360  0.37220  1.0000
  H   H79       1.0  0.13210  0.73360  0.87220  1.0000
  H   H80       1.0  0.86790  0.26640  0.87220  1.0000
  C   C105      1.0  0.59120  0.69630  0.24270  1.0000
  C   C106      1.0  0.40880  0.30370  0.24270  1.0000
  C   C107      1.0  0.59120  0.30370  0.74270  1.0000
  C   C108      1.0  0.40880  0.69630  0.74270  1.0000
  C   C109      1.0  0.09120  0.19630  0.24270  1.0000
  C   C110      1.0  0.90880  0.80370  0.24270  1.0000
  C   C111      1.0  0.09120  0.80370  0.74270  1.0000
  C   C112      1.0  0.90880  0.19630  0.74270  1.0000
  H   H81       1.0  0.56980  0.66940  0.31190  1.0000
  H   H82       1.0  0.43020  0.33060  0.31190  1.0000
  H   H83       1.0  0.56980  0.33060  0.81190  1.0000
  H   H84       1.0  0.43020  0.66940  0.81190  1.0000
  H   H85       1.0  0.06980  0.16940  0.31190  1.0000
  H   H86       1.0  0.93020  0.83060  0.31190  1.0000
  H   H87       1.0  0.06980  0.83060  0.81190  1.0000
  H   H88       1.0  0.93020  0.16940  0.81190  1.0000
  C   C113      1.0  0.54890  0.61190  0.06460  1.0000
  C   C114      1.0  0.45110  0.38810  0.06460  1.0000
  C   C115      1.0  0.54890  0.38810  0.56460  1.0000
  C   C116      1.0  0.45110  0.61190  0.56460  1.0000
  C   C117      1.0  0.04890  0.11190  0.06460  1.0000
  C   C118      1.0  0.95110  0.88810  0.06460  1.0000
  C   C119      1.0  0.04890  0.88810  0.56460  1.0000
  C   C120      1.0  0.95110  0.11190  0.56460  1.0000
  C   C121      1.0  0.71370  0.87800  0.95280  1.0000
  C   C122      1.0  0.28630  0.12200  0.95280  1.0000
  C   C123      1.0  0.71370  0.12200  0.45280  1.0000
  C   C124      1.0  0.28630  0.87800  0.45280  1.0000
  C   C125      1.0  0.21370  0.37800  0.95280  1.0000
  C   C126      1.0  0.78630  0.62200  0.95280  1.0000
  C   C127      1.0  0.21370  0.62200  0.45280  1.0000
  C   C128      1.0  0.78630  0.37800  0.45280  1.0000
  H   H89       1.0  0.75310  0.87540  0.02600  1.0000
  H   H90       1.0  0.24690  0.12460  0.02600  1.0000
  H   H91       1.0  0.75310  0.12460  0.52600  1.0000
  H   H92       1.0  0.24690  0.87540  0.52600  1.0000
  H   H93       1.0  0.25310  0.37540  0.02600  1.0000
  H   H94       1.0  0.74690  0.62460  0.02600  1.0000
  H   H95       1.0  0.25310  0.62460  0.52600  1.0000
  H   H96       1.0  0.74690  0.37540  0.52600  1.0000
  H   H97       1.0  0.67080  0.90710  0.98040  1.0000
  H   H98       1.0  0.32920  0.09290  0.98040  1.0000
  H   H99       1.0  0.67080  0.09290  0.48040  1.0000
  H   H100      1.0  0.32920  0.90710  0.48040  1.0000
  H   H101      1.0  0.17080  0.40710  0.98040  1.0000
  H   H102      1.0  0.82920  0.59290  0.98040  1.0000
  H   H103      1.0  0.17080  0.59290  0.48040  1.0000
  H   H104      1.0  0.82920  0.40710  0.48040  1.0000
  H   H105      1.0  0.73880  0.89450  0.86950  1.0000
  H   H106      1.0  0.26120  0.10550  0.86950  1.0000
  H   H107      1.0  0.73880  0.10550  0.36950  1.0000
  H   H108      1.0  0.26120  0.89450  0.36950  1.0000
  H   H109      1.0  0.23880  0.39450  0.86950  1.0000
  H   H110      1.0  0.76120  0.60550  0.86950  1.0000
  H   H111      1.0  0.23880  0.60550  0.36950  1.0000
  H   H112      1.0  0.76120  0.39450  0.36950  1.0000
