data_image0
_chemical_formula_structural       Y4O24H8O32H8O8C32H8C8H8C8H8C16H24C32H8C8H8C8H8C16H24
_chemical_formula_sum              "Y4 O64 H112 C128"
_cell_length_a       16.4717
_cell_length_b       20.2271
_cell_length_c       9.5967
_cell_angle_alpha    90
_cell_angle_beta     90
_cell_angle_gamma    90

_space_group_name_H-M_alt    "P 1"
_space_group_IT_number       1

loop_
  _space_group_symop_operation_xyz
  'x, y, z'

loop_
  _atom_site_type_symbol
  _atom_site_label
  _atom_site_symmetry_multiplicity
  _atom_site_fract_x
  _atom_site_fract_y
  _atom_site_fract_z
  _atom_site_occupancy
  Y   Y1        1.0  0.50000  0.50000  0.32305  1.0000
  Y   Y2        1.0  0.50000  0.50000  0.82305  1.0000
  Y   Y3        1.0  0.00000  0.00000  0.32305  1.0000
  Y   Y4        1.0  0.00000  0.00000  0.82305  1.0000
  O   O1        1.0  0.35837  0.50855  0.24680  1.0000
  O   O2        1.0  0.64163  0.49145  0.24680  1.0000
  O   O3        1.0  0.35837  0.49145  0.74680  1.0000
  O   O4        1.0  0.64163  0.50855  0.74680  1.0000
  O   O5        1.0  0.85837  0.00855  0.24680  1.0000
  O   O6        1.0  0.14163  0.99145  0.24680  1.0000
  O   O7        1.0  0.85837  0.99145  0.74680  1.0000
  O   O8        1.0  0.14163  0.00855  0.74680  1.0000
  O   O9        1.0  0.38706  0.44621  0.42980  1.0000
  O   O10       1.0  0.61294  0.55379  0.42980  1.0000
  O   O11       1.0  0.38706  0.55379  0.92980  1.0000
  O   O12       1.0  0.61294  0.44621  0.92980  1.0000
  O   O13       1.0  0.88706  0.94621  0.42980  1.0000
  O   O14       1.0  0.11294  0.05379  0.42980  1.0000
  O   O15       1.0  0.88706  0.05379  0.92980  1.0000
  O   O16       1.0  0.11294  0.94621  0.92980  1.0000
  O   O17       1.0  0.27742  0.38017  0.55410  1.0000
  O   O18       1.0  0.72258  0.61983  0.55410  1.0000
  O   O19       1.0  0.27742  0.61983  0.05410  1.0000
  O   O20       1.0  0.72258  0.38017  0.05410  1.0000
  O   O21       1.0  0.77742  0.88017  0.55410  1.0000
  O   O22       1.0  0.22258  0.11983  0.55410  1.0000
  O   O23       1.0  0.77742  0.11983  0.05410  1.0000
  O   O24       1.0  0.22258  0.88017  0.05410  1.0000
  H   H1        1.0  0.32360  0.39320  0.53740  1.0000
  H   H2        1.0  0.67640  0.60680  0.53740  1.0000
  H   H3        1.0  0.32360  0.60680  0.03740  1.0000
  H   H4        1.0  0.67640  0.39320  0.03740  1.0000
  H   H5        1.0  0.82360  0.89320  0.53740  1.0000
  H   H6        1.0  0.17640  0.10680  0.53740  1.0000
  H   H7        1.0  0.82360  0.10680  0.03740  1.0000
  H   H8        1.0  0.17640  0.89320  0.03740  1.0000
  O   O25       1.0  0.12583  0.35240  0.59180  1.0000
  O   O26       1.0  0.87417  0.64760  0.59180  1.0000
  O   O27       1.0  0.12583  0.64760  0.09180  1.0000
  O   O28       1.0  0.87417  0.35240  0.09180  1.0000
  O   O29       1.0  0.62583  0.85240  0.59180  1.0000
  O   O30       1.0  0.37417  0.14760  0.59180  1.0000
  O   O31       1.0  0.62583  0.14760  0.09180  1.0000
  O   O32       1.0  0.37417  0.85240  0.09180  1.0000
  O   O33       1.0  0.51147  0.57932  0.16080  1.0000
  O   O34       1.0  0.48853  0.42068  0.16080  1.0000
  O   O35       1.0  0.51147  0.42068  0.66080  1.0000
  O   O36       1.0  0.48853  0.57932  0.66080  1.0000
  O   O37       1.0  0.01147  0.07932  0.16080  1.0000
  O   O38       1.0  0.98853  0.92068  0.16080  1.0000
  O   O39       1.0  0.01147  0.92068  0.66080  1.0000
  O   O40       1.0  0.98853  0.07932  0.66080  1.0000
  O   O41       1.0  0.55518  0.59041  0.94260  1.0000
  O   O42       1.0  0.44482  0.40959  0.94260  1.0000
  O   O43       1.0  0.55518  0.40959  0.44260  1.0000
  O   O44       1.0  0.44482  0.59041  0.44260  1.0000
  O   O45       1.0  0.05518  0.09041  0.94260  1.0000
  O   O46       1.0  0.94482  0.90959  0.94260  1.0000
  O   O47       1.0  0.05518  0.90959  0.44260  1.0000
  O   O48       1.0  0.94482  0.09041  0.44260  1.0000
  O   O49       1.0  0.61678  0.70050  0.86133  1.0000
  O   O50       1.0  0.38322  0.29950  0.86133  1.0000
  O   O51       1.0  0.61678  0.29950  0.36133  1.0000
  O   O52       1.0  0.38322  0.70050  0.36133  1.0000
  O   O53       1.0  0.11678  0.20050  0.86133  1.0000
  O   O54       1.0  0.88322  0.79950  0.86133  1.0000
  O   O55       1.0  0.11678  0.79950  0.36133  1.0000
  O   O56       1.0  0.88322  0.20050  0.36133  1.0000
  H   H9        1.0  0.59510  0.66440  0.85080  1.0000
  H   H10       1.0  0.40490  0.33560  0.85080  1.0000
  H   H11       1.0  0.59510  0.33560  0.35080  1.0000
  H   H12       1.0  0.40490  0.66440  0.35080  1.0000
  H   H13       1.0  0.09510  0.16440  0.85080  1.0000
  H   H14       1.0  0.90490  0.83560  0.85080  1.0000
  H   H15       1.0  0.09510  0.83560  0.35080  1.0000
  H   H16       1.0  0.90490  0.16440  0.35080  1.0000
  O   O57       1.0  0.68072  0.81314  0.92380  1.0000
  O   O58       1.0  0.31928  0.18686  0.92380  1.0000
  O   O59       1.0  0.68072  0.18686  0.42380  1.0000
  O   O60       1.0  0.31928  0.81314  0.42380  1.0000
  O   O61       1.0  0.18072  0.31314  0.92380  1.0000
  O   O62       1.0  0.81928  0.68686  0.92380  1.0000
  O   O63       1.0  0.18072  0.68686  0.42380  1.0000
  O   O64       1.0  0.81928  0.31314  0.42380  1.0000
  C   C1        1.0  0.24779  0.45290  0.36000  1.0000
  C   C2        1.0  0.75221  0.54710  0.36000  1.0000
  C   C3        1.0  0.24779  0.54710  0.86000  1.0000
  C   C4        1.0  0.75221  0.45290  0.86000  1.0000
  C   C5        1.0  0.74779  0.95290  0.36000  1.0000
  C   C6        1.0  0.25221  0.04710  0.36000  1.0000
  C   C7        1.0  0.74779  0.04710  0.86000  1.0000
  C   C8        1.0  0.25221  0.95290  0.86000  1.0000
  C   C9        1.0  0.22445  0.40994  0.46660  1.0000
  C   C10       1.0  0.77555  0.59006  0.46660  1.0000
  C   C11       1.0  0.22445  0.59006  0.96660  1.0000
  C   C12       1.0  0.77555  0.40994  0.96660  1.0000
  C   C13       1.0  0.72445  0.90994  0.46660  1.0000
  C   C14       1.0  0.27555  0.09006  0.46660  1.0000
  C   C15       1.0  0.72445  0.09006  0.96660  1.0000
  C   C16       1.0  0.27555  0.90994  0.96660  1.0000
  C   C17       1.0  0.14095  0.39610  0.48580  1.0000
  C   C18       1.0  0.85905  0.60390  0.48580  1.0000
  C   C19       1.0  0.14095  0.60390  0.98580  1.0000
  C   C20       1.0  0.85905  0.39610  0.98580  1.0000
  C   C21       1.0  0.64095  0.89610  0.48580  1.0000
  C   C22       1.0  0.35905  0.10390  0.48580  1.0000
  C   C23       1.0  0.64095  0.10390  0.98580  1.0000
  C   C24       1.0  0.35905  0.89610  0.98580  1.0000
  C   C25       1.0  0.08390  0.42535  0.40040  1.0000
  C   C26       1.0  0.91610  0.57465  0.40040  1.0000
  C   C27       1.0  0.08390  0.57465  0.90040  1.0000
  C   C28       1.0  0.91610  0.42535  0.90040  1.0000
  C   C29       1.0  0.58390  0.92535  0.40040  1.0000
  C   C30       1.0  0.41610  0.07465  0.40040  1.0000
  C   C31       1.0  0.58390  0.07465  0.90040  1.0000
  C   C32       1.0  0.41610  0.92535  0.90040  1.0000
  H   H17       1.0  0.02900  0.41710  0.41470  1.0000
  H   H18       1.0  0.97100  0.58290  0.41470  1.0000
  H   H19       1.0  0.02900  0.58290  0.91470  1.0000
  H   H20       1.0  0.97100  0.41710  0.91470  1.0000
  H   H21       1.0  0.52900  0.91710  0.41470  1.0000
  H   H22       1.0  0.47100  0.08290  0.41470  1.0000
  H   H23       1.0  0.52900  0.08290  0.91470  1.0000
  H   H24       1.0  0.47100  0.91710  0.91470  1.0000
  C   C33       1.0  0.10838  0.46732  0.29240  1.0000
  C   C34       1.0  0.89162  0.53268  0.29240  1.0000
  C   C35       1.0  0.10838  0.53268  0.79240  1.0000
  C   C36       1.0  0.89162  0.46732  0.79240  1.0000
  C   C37       1.0  0.60838  0.96732  0.29240  1.0000
  C   C38       1.0  0.39162  0.03268  0.29240  1.0000
  C   C39       1.0  0.60838  0.03268  0.79240  1.0000
  C   C40       1.0  0.39162  0.96732  0.79240  1.0000
  H   H25       1.0  0.06970  0.48630  0.23410  1.0000
  H   H26       1.0  0.93030  0.51370  0.23410  1.0000
  H   H27       1.0  0.06970  0.51370  0.73410  1.0000
  H   H28       1.0  0.93030  0.48630  0.73410  1.0000
  H   H29       1.0  0.56970  0.98630  0.23410  1.0000
  H   H30       1.0  0.43030  0.01370  0.23410  1.0000
  H   H31       1.0  0.56970  0.01370  0.73410  1.0000
  H   H32       1.0  0.43030  0.98630  0.73410  1.0000
  C   C41       1.0  0.18983  0.48064  0.27200  1.0000
  C   C42       1.0  0.81017  0.51936  0.27200  1.0000
  C   C43       1.0  0.18983  0.51936  0.77200  1.0000
  C   C44       1.0  0.81017  0.48064  0.77200  1.0000
  C   C45       1.0  0.68983  0.98064  0.27200  1.0000
  C   C46       1.0  0.31017  0.01936  0.27200  1.0000
  C   C47       1.0  0.68983  0.01936  0.77200  1.0000
  C   C48       1.0  0.31017  0.98064  0.77200  1.0000
  H   H33       1.0  0.20590  0.50810  0.19940  1.0000
  H   H34       1.0  0.79410  0.49190  0.19940  1.0000
  H   H35       1.0  0.20590  0.49190  0.69940  1.0000
  H   H36       1.0  0.79410  0.50810  0.69940  1.0000
  H   H37       1.0  0.70590  0.00810  0.19940  1.0000
  H   H38       1.0  0.29410  0.99190  0.19940  1.0000
  H   H39       1.0  0.70590  0.99190  0.69940  1.0000
  H   H40       1.0  0.29410  0.00810  0.69940  1.0000
  C   C49       1.0  0.33560  0.47057  0.34260  1.0000
  C   C50       1.0  0.66440  0.52943  0.34260  1.0000
  C   C51       1.0  0.33560  0.52943  0.84260  1.0000
  C   C52       1.0  0.66440  0.47057  0.84260  1.0000
  C   C53       1.0  0.83560  0.97057  0.34260  1.0000
  C   C54       1.0  0.16440  0.02943  0.34260  1.0000
  C   C55       1.0  0.83560  0.02943  0.84260  1.0000
  C   C56       1.0  0.16440  0.97057  0.84260  1.0000
  C   C57       1.0  0.04267  0.33585  0.61770  1.0000
  C   C58       1.0  0.95733  0.66415  0.61770  1.0000
  C   C59       1.0  0.04267  0.66415  0.11770  1.0000
  C   C60       1.0  0.95733  0.33585  0.11770  1.0000
  C   C61       1.0  0.54267  0.83585  0.61770  1.0000
  C   C62       1.0  0.45733  0.16415  0.61770  1.0000
  C   C63       1.0  0.54267  0.16415  0.11770  1.0000
  C   C64       1.0  0.45733  0.83585  0.11770  1.0000
  H   H41       1.0  0.03960  0.30490  0.69340  1.0000
  H   H42       1.0  0.96040  0.69510  0.69340  1.0000
  H   H43       1.0  0.03960  0.69510  0.19340  1.0000
  H   H44       1.0  0.96040  0.30490  0.19340  1.0000
  H   H45       1.0  0.53960  0.80490  0.69340  1.0000
  H   H46       1.0  0.46040  0.19510  0.69340  1.0000
  H   H47       1.0  0.53960  0.19510  0.19340  1.0000
  H   H48       1.0  0.46040  0.80490  0.19340  1.0000
  H   H49       1.0  0.01950  0.31640  0.53560  1.0000
  H   H50       1.0  0.98050  0.68360  0.53560  1.0000
  H   H51       1.0  0.01950  0.68360  0.03560  1.0000
  H   H52       1.0  0.98050  0.31640  0.03560  1.0000
  H   H53       1.0  0.51950  0.81640  0.53560  1.0000
  H   H54       1.0  0.48050  0.18360  0.53560  1.0000
  H   H55       1.0  0.51950  0.18360  0.03560  1.0000
  H   H56       1.0  0.48050  0.81640  0.03560  1.0000
  H   H57       1.0  0.01310  0.37520  0.64140  1.0000
  H   H58       1.0  0.98690  0.62480  0.64140  1.0000
  H   H59       1.0  0.01310  0.62480  0.14140  1.0000
  H   H60       1.0  0.98690  0.37520  0.14140  1.0000
  H   H61       1.0  0.51310  0.87520  0.64140  1.0000
  H   H62       1.0  0.48690  0.12480  0.64140  1.0000
  H   H63       1.0  0.51310  0.12480  0.14140  1.0000
  H   H64       1.0  0.48690  0.87520  0.14140  1.0000
  C   C65       1.0  0.58632  0.67562  0.10350  1.0000
  C   C66       1.0  0.41368  0.32438  0.10350  1.0000
  C   C67       1.0  0.58632  0.32438  0.60350  1.0000
  C   C68       1.0  0.41368  0.67562  0.60350  1.0000
  C   C69       1.0  0.08632  0.17562  0.10350  1.0000
  C   C70       1.0  0.91368  0.82438  0.10350  1.0000
  C   C71       1.0  0.08632  0.82438  0.60350  1.0000
  C   C72       1.0  0.91368  0.17562  0.60350  1.0000
  C   C73       1.0  0.61777  0.71615  0.99850  1.0000
  C   C74       1.0  0.38223  0.28385  0.99850  1.0000
  C   C75       1.0  0.61777  0.28385  0.49850  1.0000
  C   C76       1.0  0.38223  0.71615  0.49850  1.0000
  C   C77       1.0  0.11777  0.21615  0.99850  1.0000
  C   C78       1.0  0.88223  0.78385  0.99850  1.0000
  C   C79       1.0  0.11777  0.78385  0.49850  1.0000
  C   C80       1.0  0.88223  0.21615  0.49850  1.0000
  C   C81       1.0  0.65331  0.77746  0.03540  1.0000
  C   C82       1.0  0.34669  0.22254  0.03540  1.0000
  C   C83       1.0  0.65331  0.22254  0.53540  1.0000
  C   C84       1.0  0.34669  0.77746  0.53540  1.0000
  C   C85       1.0  0.15331  0.27746  0.03540  1.0000
  C   C86       1.0  0.84669  0.72254  0.03540  1.0000
  C   C87       1.0  0.15331  0.72254  0.53540  1.0000
  C   C88       1.0  0.84669  0.27746  0.53540  1.0000
  C   C89       1.0  0.65807  0.79629  0.17270  1.0000
  C   C90       1.0  0.34193  0.20371  0.17270  1.0000
  C   C91       1.0  0.65807  0.20371  0.67270  1.0000
  C   C92       1.0  0.34193  0.79629  0.67270  1.0000
  C   C93       1.0  0.15807  0.29629  0.17270  1.0000
  C   C94       1.0  0.84193  0.70371  0.17270  1.0000
  C   C95       1.0  0.15807  0.70371  0.67270  1.0000
  C   C96       1.0  0.84193  0.29629  0.67270  1.0000
  H   H65       1.0  0.68130  0.83670  0.19610  1.0000
  H   H66       1.0  0.31870  0.16330  0.19610  1.0000
  H   H67       1.0  0.68130  0.16330  0.69610  1.0000
  H   H68       1.0  0.31870  0.83670  0.69610  1.0000
  H   H69       1.0  0.18130  0.33670  0.19610  1.0000
  H   H70       1.0  0.81870  0.66330  0.19610  1.0000
  H   H71       1.0  0.18130  0.66330  0.69610  1.0000
  H   H72       1.0  0.81870  0.33670  0.69610  1.0000
  C   C97       1.0  0.62803  0.75468  0.27760  1.0000
  C   C98       1.0  0.37197  0.24532  0.27760  1.0000
  C   C99       1.0  0.62803  0.24532  0.77760  1.0000
  C   C100      1.0  0.37197  0.75468  0.77760  1.0000
  C   C101      1.0  0.12803  0.25468  0.27760  1.0000
  C   C102      1.0  0.87197  0.74532  0.27760  1.0000
  C   C103      1.0  0.12803  0.74532  0.77760  1.0000
  C   C104      1.0  0.87197  0.25468  0.77760  1.0000
  H   H73       1.0  0.63260  0.76700  0.37060  1.0000
  H   H74       1.0  0.36740  0.23300  0.37060  1.0000
  H   H75       1.0  0.63260  0.23300  0.87060  1.0000
  H   H76       1.0  0.36740  0.76700  0.87060  1.0000
  H   H77       1.0  0.13260  0.26700  0.37060  1.0000
  H   H78       1.0  0.86740  0.73300  0.37060  1.0000
  H   H79       1.0  0.13260  0.73300  0.87060  1.0000
  H   H80       1.0  0.86740  0.26700  0.87060  1.0000
  C   C105      1.0  0.59175  0.69540  0.24300  1.0000
  C   C106      1.0  0.40825  0.30460  0.24300  1.0000
  C   C107      1.0  0.59175  0.30460  0.74300  1.0000
  C   C108      1.0  0.40825  0.69540  0.74300  1.0000
  C   C109      1.0  0.09175  0.19540  0.24300  1.0000
  C   C110      1.0  0.90825  0.80460  0.24300  1.0000
  C   C111      1.0  0.09175  0.80460  0.74300  1.0000
  C   C112      1.0  0.90825  0.19540  0.74300  1.0000
  H   H81       1.0  0.57080  0.66840  0.31280  1.0000
  H   H82       1.0  0.42920  0.33160  0.31280  1.0000
  H   H83       1.0  0.57080  0.33160  0.81280  1.0000
  H   H84       1.0  0.42920  0.66840  0.81280  1.0000
  H   H85       1.0  0.07080  0.16840  0.31280  1.0000
  H   H86       1.0  0.92920  0.83160  0.31280  1.0000
  H   H87       1.0  0.07080  0.83160  0.81280  1.0000
  H   H88       1.0  0.92920  0.16840  0.81280  1.0000
  C   C113      1.0  0.54829  0.61057  0.06750  1.0000
  C   C114      1.0  0.45171  0.38943  0.06750  1.0000
  C   C115      1.0  0.54829  0.38943  0.56750  1.0000
  C   C116      1.0  0.45171  0.61057  0.56750  1.0000
  C   C117      1.0  0.04829  0.11057  0.06750  1.0000
  C   C118      1.0  0.95171  0.88943  0.06750  1.0000
  C   C119      1.0  0.04829  0.88943  0.56750  1.0000
  C   C120      1.0  0.95171  0.11057  0.56750  1.0000
  C   C121      1.0  0.71170  0.87811  0.95040  1.0000
  C   C122      1.0  0.28830  0.12189  0.95040  1.0000
  C   C123      1.0  0.71170  0.12189  0.45040  1.0000
  C   C124      1.0  0.28830  0.87811  0.45040  1.0000
  C   C125      1.0  0.21170  0.37811  0.95040  1.0000
  C   C126      1.0  0.78830  0.62189  0.95040  1.0000
  C   C127      1.0  0.21170  0.62189  0.45040  1.0000
  C   C128      1.0  0.78830  0.37811  0.45040  1.0000
  H   H89       1.0  0.75560  0.87540  0.01610  1.0000
  H   H90       1.0  0.24440  0.12460  0.01610  1.0000
  H   H91       1.0  0.75560  0.12460  0.51610  1.0000
  H   H92       1.0  0.24440  0.87540  0.51610  1.0000
  H   H93       1.0  0.25560  0.37540  0.01610  1.0000
  H   H94       1.0  0.74440  0.62460  0.01610  1.0000
  H   H95       1.0  0.25560  0.62460  0.51610  1.0000
  H   H96       1.0  0.74440  0.37540  0.51610  1.0000
  H   H97       1.0  0.66930  0.90530  0.98800  1.0000
  H   H98       1.0  0.33070  0.09470  0.98800  1.0000
  H   H99       1.0  0.66930  0.09470  0.48800  1.0000
  H   H100      1.0  0.33070  0.90530  0.48800  1.0000
  H   H101      1.0  0.16930  0.40530  0.98800  1.0000
  H   H102      1.0  0.83070  0.59470  0.98800  1.0000
  H   H103      1.0  0.16930  0.59470  0.48800  1.0000
  H   H104      1.0  0.83070  0.40530  0.48800  1.0000
  H   H105      1.0  0.73100  0.89710  0.86500  1.0000
  H   H106      1.0  0.26900  0.10290  0.86500  1.0000
  H   H107      1.0  0.73100  0.10290  0.36500  1.0000
  H   H108      1.0  0.26900  0.89710  0.36500  1.0000
  H   H109      1.0  0.23100  0.39710  0.86500  1.0000
  H   H110      1.0  0.76900  0.60290  0.86500  1.0000
  H   H111      1.0  0.23100  0.60290  0.36500  1.0000
  H   H112      1.0  0.76900  0.39710  0.36500  1.0000
