data_image0
_chemical_formula_structural       Ga2P2H2O10H2O2C2
_chemical_formula_sum              "Ga2 P2 H4 O12 C2"
_cell_length_a       6.2571
_cell_length_b       8.558
_cell_length_c       9.253
_cell_angle_alpha    93.219
_cell_angle_beta     108.265
_cell_angle_gamma    106.956

_space_group_name_H-M_alt    "P 1"
_space_group_IT_number       1

loop_
  _space_group_symop_operation_xyz
  'x, y, z'

loop_
  _atom_site_type_symbol
  _atom_site_label
  _atom_site_symmetry_multiplicity
  _atom_site_fract_x
  _atom_site_fract_y
  _atom_site_fract_z
  _atom_site_occupancy
  Ga  Ga1       1.0  0.20853  0.58269  0.80859  1.0000
  Ga  Ga2       1.0  0.79147  0.41731  0.19141  1.0000
  P   P1        1.0  0.70631  0.51685  0.85895  1.0000
  P   P2        1.0  0.29369  0.48315  0.14105  1.0000
  H   H1        1.0  0.65500  0.36200  0.81700  1.0000
  H   H2        1.0  0.34500  0.63800  0.18300  1.0000
  O   O1        1.0  0.15830  0.69430  0.61170  1.0000
  O   O2        1.0  0.84170  0.30570  0.38830  1.0000
  O   O3        1.0  0.90400  0.61080  0.80170  1.0000
  O   O4        1.0  0.09600  0.38920  0.19830  1.0000
  O   O5        1.0  0.78410  0.55270  0.03420  1.0000
  O   O6        1.0  0.21590  0.44730  0.96580  1.0000
  O   O7        1.0  0.98810  0.62190  0.35580  1.0000
  O   O8        1.0  0.01190  0.37810  0.64420  1.0000
  O   O9        1.0  0.36040  0.78830  0.92500  1.0000
  O   O10       1.0  0.63960  0.21170  0.07500  1.0000
  H   H3        1.0  0.40330  0.77970  0.01670  1.0000
  H   H4        1.0  0.59670  0.22030  0.98330  1.0000
  O   O11       1.0  0.48850  0.56240  0.77740  1.0000
  O   O12       1.0  0.51150  0.43760  0.22260  1.0000
  C   C1        1.0  0.04330  0.59260  0.48990  1.0000
  C   C2        1.0  0.95670  0.40740  0.51010  1.0000
