data_image0
_chemical_formula_structural       Cu2O16N8H4C12H4C8
_chemical_formula_sum              "Cu2 O16 N8 H8 C20"
_cell_length_a       10.0394
_cell_length_b       9.7715
_cell_length_c       9.0168
_cell_angle_alpha    90
_cell_angle_beta     92.401
_cell_angle_gamma    90

_space_group_name_H-M_alt    "P 1"
_space_group_IT_number       1

loop_
  _space_group_symop_operation_xyz
  'x, y, z'

loop_
  _atom_site_type_symbol
  _atom_site_label
  _atom_site_symmetry_multiplicity
  _atom_site_fract_x
  _atom_site_fract_y
  _atom_site_fract_z
  _atom_site_occupancy
  Cu  Cu1       1.0  0.50000  0.50000  0.50000  1.0000
  Cu  Cu2       1.0  0.50000  0.00000  0.00000  1.0000
  O   O1        1.0  0.42031  0.37430  0.35330  1.0000
  O   O2        1.0  0.57969  0.87430  0.14670  1.0000
  O   O3        1.0  0.57969  0.62570  0.64670  1.0000
  O   O4        1.0  0.42031  0.12570  0.85330  1.0000
  O   O5        1.0  0.46857  0.21760  0.18580  1.0000
  O   O6        1.0  0.53143  0.71760  0.31420  1.0000
  O   O7        1.0  0.53143  0.78240  0.81420  1.0000
  O   O8        1.0  0.46857  0.28240  0.68580  1.0000
  O   O9        1.0  0.96987  0.16653  0.31530  1.0000
  O   O10       1.0  0.03013  0.66653  0.18470  1.0000
  O   O11       1.0  0.03013  0.83347  0.68470  1.0000
  O   O12       1.0  0.96987  0.33347  0.81530  1.0000
  O   O13       1.0  0.83438  0.55969  0.52710  1.0000
  O   O14       1.0  0.16562  0.05969  0.97290  1.0000
  O   O15       1.0  0.16562  0.44031  0.47290  1.0000
  O   O16       1.0  0.83438  0.94031  0.02710  1.0000
  N   N1        1.0  0.66970  0.42210  0.42600  1.0000
  N   N2        1.0  0.33030  0.92210  0.07400  1.0000
  N   N3        1.0  0.33030  0.57790  0.57400  1.0000
  N   N4        1.0  0.66970  0.07790  0.92600  1.0000
  N   N5        1.0  0.89580  0.36400  0.41670  1.0000
  N   N6        1.0  0.10420  0.86400  0.08330  1.0000
  N   N7        1.0  0.10420  0.63600  0.58330  1.0000
  N   N8        1.0  0.89580  0.13600  0.91670  1.0000
  H   H1        1.0  0.97722  0.38508  0.43980  1.0000
  H   H2        1.0  0.02278  0.88508  0.06020  1.0000
  H   H3        1.0  0.02278  0.61492  0.56020  1.0000
  H   H4        1.0  0.97722  0.11492  0.93980  1.0000
  C   C1        1.0  0.50110  0.29700  0.28630  1.0000
  C   C2        1.0  0.49890  0.79700  0.21370  1.0000
  C   C3        1.0  0.49890  0.70300  0.71370  1.0000
  C   C4        1.0  0.50110  0.20300  0.78630  1.0000
  C   C5        1.0  0.64590  0.31120  0.33740  1.0000
  C   C6        1.0  0.35410  0.81120  0.16260  1.0000
  C   C7        1.0  0.35410  0.68880  0.66260  1.0000
  C   C8        1.0  0.64590  0.18880  0.83740  1.0000
  C   C9        1.0  0.73900  0.22160  0.29200  1.0000
  C   C10       1.0  0.26100  0.72160  0.20800  1.0000
  C   C11       1.0  0.26100  0.77840  0.70800  1.0000
  C   C12       1.0  0.73900  0.27840  0.79200  1.0000
  H   H5        1.0  0.71502  0.14777  0.23147  1.0000
  H   H6        1.0  0.28498  0.64777  0.26853  1.0000
  H   H7        1.0  0.28498  0.85223  0.76853  1.0000
  H   H8        1.0  0.71502  0.35223  0.73147  1.0000
  C   C13       1.0  0.87510  0.24360  0.33950  1.0000
  C   C14       1.0  0.12490  0.74360  0.16050  1.0000
  C   C15       1.0  0.12490  0.75640  0.66050  1.0000
  C   C16       1.0  0.87510  0.25640  0.83950  1.0000
  C   C17       1.0  0.79930  0.45450  0.46080  1.0000
  C   C18       1.0  0.20070  0.95450  0.03920  1.0000
  C   C19       1.0  0.20070  0.54550  0.53920  1.0000
  C   C20       1.0  0.79930  0.04550  0.96080  1.0000
