data_image0
_chemical_formula_structural       Cu2O12N4H4N4C4O4C12H4C4
_chemical_formula_sum              "Cu2 O16 N8 H8 C20"
_cell_length_a       10.045
_cell_length_b       9.76
_cell_length_c       8.991
_cell_angle_alpha    90
_cell_angle_beta     92.728
_cell_angle_gamma    90

_space_group_name_H-M_alt    "P 1"
_space_group_IT_number       1

loop_
  _space_group_symop_operation_xyz
  'x, y, z'

loop_
  _atom_site_type_symbol
  _atom_site_label
  _atom_site_symmetry_multiplicity
  _atom_site_fract_x
  _atom_site_fract_y
  _atom_site_fract_z
  _atom_site_occupancy
  Cu  Cu1       1.0  0.00000  0.00000  0.00000  1.0000
  Cu  Cu2       1.0  0.00000  0.50000  0.50000  1.0000
  O   O1        1.0  0.66520  0.06020  0.97390  1.0000
  O   O2        1.0  0.33480  0.56020  0.52610  1.0000
  O   O3        1.0  0.33480  0.93980  0.02610  1.0000
  O   O4        1.0  0.66520  0.43980  0.47390  1.0000
  O   O5        1.0  0.52990  0.66660  0.18650  1.0000
  O   O6        1.0  0.47010  0.16660  0.31350  1.0000
  O   O7        1.0  0.47010  0.33340  0.81350  1.0000
  O   O8        1.0  0.52990  0.83340  0.68650  1.0000
  O   O9        1.0  0.08060  0.87210  0.14500  1.0000
  O   O10       1.0  0.91940  0.37210  0.35500  1.0000
  O   O11       1.0  0.91940  0.12790  0.85500  1.0000
  O   O12       1.0  0.08060  0.62790  0.64500  1.0000
  N   N1        1.0  0.60390  0.86400  0.08510  1.0000
  N   N2        1.0  0.39610  0.36400  0.41490  1.0000
  N   N3        1.0  0.39610  0.13600  0.91490  1.0000
  N   N4        1.0  0.60390  0.63600  0.58510  1.0000
  H   H1        1.0  0.52050  0.88620  0.06250  1.0000
  H   H2        1.0  0.47950  0.38620  0.43750  1.0000
  H   H3        1.0  0.47950  0.11380  0.93750  1.0000
  H   H4        1.0  0.52050  0.61380  0.56250  1.0000
  N   N5        1.0  0.83060  0.92140  0.07440  1.0000
  N   N6        1.0  0.16940  0.42140  0.42560  1.0000
  N   N7        1.0  0.16940  0.07860  0.92560  1.0000
  N   N8        1.0  0.83060  0.57860  0.57440  1.0000
  C   C1        1.0  0.85520  0.80980  0.16290  1.0000
  C   C2        1.0  0.14480  0.30980  0.33710  1.0000
  C   C3        1.0  0.14480  0.19020  0.83710  1.0000
  C   C4        1.0  0.85520  0.69020  0.66290  1.0000
  O   O13       1.0  0.03350  0.71430  0.31300  1.0000
  O   O14       1.0  0.96650  0.21430  0.18700  1.0000
  O   O15       1.0  0.96650  0.28570  0.68700  1.0000
  O   O16       1.0  0.03350  0.78570  0.81300  1.0000
  C   C5        1.0  0.62530  0.74310  0.16130  1.0000
  C   C6        1.0  0.37470  0.24310  0.33870  1.0000
  C   C7        1.0  0.37470  0.25690  0.83870  1.0000
  C   C8        1.0  0.62530  0.75690  0.66130  1.0000
  C   C9        1.0  0.70050  0.95400  0.04040  1.0000
  C   C10       1.0  0.29950  0.45400  0.45960  1.0000
  C   C11       1.0  0.29950  0.04600  0.95960  1.0000
  C   C12       1.0  0.70050  0.54600  0.54040  1.0000
  C   C13       1.0  0.76120  0.71980  0.20800  1.0000
  C   C14       1.0  0.23880  0.21980  0.29200  1.0000
  C   C15       1.0  0.23880  0.28020  0.79200  1.0000
  C   C16       1.0  0.76120  0.78020  0.70800  1.0000
  H   H5        1.0  0.78560  0.64360  0.26910  1.0000
  H   H6        1.0  0.21440  0.14360  0.23090  1.0000
  H   H7        1.0  0.21440  0.35640  0.73090  1.0000
  H   H8        1.0  0.78560  0.85640  0.76910  1.0000
  C   C17       1.0  0.00040  0.79400  0.21290  1.0000
  C   C18       1.0  0.99960  0.29400  0.28710  1.0000
  C   C19       1.0  0.99960  0.20600  0.78710  1.0000
  C   C20       1.0  0.00040  0.70600  0.71290  1.0000
