data_image0
_chemical_formula_structural       Mn2Cr2O24C12
_chemical_formula_sum              "Mn2 Cr2 O24 C12"
_cell_length_a       9.3808
_cell_length_b       9.3808
_cell_length_c       15.8006
_cell_angle_alpha    90
_cell_angle_beta     90
_cell_angle_gamma    120

_space_group_name_H-M_alt    "P 1"
_space_group_IT_number       1

loop_
  _space_group_symop_operation_xyz
  'x, y, z'

loop_
  _atom_site_type_symbol
  _atom_site_label
  _atom_site_symmetry_multiplicity
  _atom_site_fract_x
  _atom_site_fract_y
  _atom_site_fract_z
  _atom_site_occupancy
  Mn  Mn1       1.0  0.00000  0.00000  0.54240  1.0000
  Mn  Mn2       1.0  0.00000  0.00000  0.04240  1.0000
  Cr  Cr1       1.0  0.66670  0.33330  0.54365  1.0000
  Cr  Cr2       1.0  0.33340  0.66670  0.04365  1.0000
  O   O1        1.0  0.68100  0.51640  0.47610  1.0000
  O   O2        1.0  0.16460  0.68100  0.97610  1.0000
  O   O3        1.0  0.48360  0.16460  0.47610  1.0000
  O   O4        1.0  0.31900  0.48360  0.97610  1.0000
  O   O5        1.0  0.83540  0.31900  0.47610  1.0000
  O   O6        1.0  0.51640  0.83540  0.97610  1.0000
  O   O7        1.0  0.81470  0.79380  0.47670  1.0000
  O   O8        1.0  0.02090  0.81470  0.97670  1.0000
  O   O9        1.0  0.20620  0.02090  0.47670  1.0000
  O   O10       1.0  0.18530  0.20620  0.97670  1.0000
  O   O11       1.0  0.97910  0.18530  0.47670  1.0000
  O   O12       1.0  0.79380  0.97910  0.97670  1.0000
  O   O13       1.0  0.83790  0.52020  0.61380  1.0000
  O   O14       1.0  0.31770  0.83790  0.11380  1.0000
  O   O15       1.0  0.47980  0.31770  0.61380  1.0000
  O   O16       1.0  0.16210  0.47980  0.11380  1.0000
  O   O17       1.0  0.68230  0.16210  0.61380  1.0000
  O   O18       1.0  0.52020  0.68230  0.11380  1.0000
  O   O19       1.0  0.97430  0.79210  0.61510  1.0000
  O   O20       1.0  0.18220  0.97430  0.11510  1.0000
  O   O21       1.0  0.20790  0.18220  0.61510  1.0000
  O   O22       1.0  0.02570  0.20790  0.11510  1.0000
  O   O23       1.0  0.81780  0.02570  0.61510  1.0000
  O   O24       1.0  0.79210  0.81780  0.11510  1.0000
  C   C1        1.0  0.78150  0.64930  0.50540  1.0000
  C   C2        1.0  0.13220  0.78150  0.00540  1.0000
  C   C3        1.0  0.35070  0.13220  0.50540  1.0000
  C   C4        1.0  0.21850  0.35070  0.00540  1.0000
  C   C5        1.0  0.86780  0.21850  0.50540  1.0000
  C   C6        1.0  0.64930  0.86780  0.00540  1.0000
  C   C7        1.0  0.87900  0.65740  0.58240  1.0000
  C   C8        1.0  0.22160  0.87900  0.08240  1.0000
  C   C9        1.0  0.34260  0.22160  0.58240  1.0000
  C   C10       1.0  0.12100  0.34260  0.08240  1.0000
  C   C11       1.0  0.77840  0.12100  0.58240  1.0000
  C   C12       1.0  0.65740  0.77840  0.08240  1.0000
