data_image0
_chemical_formula_structural       Cu4C48O52C4N8O8H40
_chemical_formula_sum              "Cu4 C52 O60 N8 H40"
_cell_length_a       9.5848
_cell_length_b       14.6574
_cell_length_c       18.2114
_cell_angle_alpha    90
_cell_angle_beta     97.655
_cell_angle_gamma    90

_space_group_name_H-M_alt    "P 1"
_space_group_IT_number       1

loop_
  _space_group_symop_operation_xyz
  'x, y, z'

loop_
  _atom_site_type_symbol
  _atom_site_label
  _atom_site_symmetry_multiplicity
  _atom_site_fract_x
  _atom_site_fract_y
  _atom_site_fract_z
  _atom_site_occupancy
  Cu  Cu1       1.0  0.86697  0.79227  0.38814  1.0000
  Cu  Cu2       1.0  0.63303  0.29227  0.11186  1.0000
  Cu  Cu3       1.0  0.13303  0.20773  0.61186  1.0000
  Cu  Cu4       1.0  0.36697  0.70773  0.88814  1.0000
  C   C1        1.0  0.73070  0.76370  0.59312  1.0000
  C   C2        1.0  0.76930  0.26370  0.90688  1.0000
  C   C3        1.0  0.26930  0.23630  0.40688  1.0000
  C   C4        1.0  0.23070  0.73630  0.09312  1.0000
  C   C5        1.0  0.81850  0.75550  0.66023  1.0000
  C   C6        1.0  0.68150  0.25550  0.83977  1.0000
  C   C7        1.0  0.18150  0.24450  0.33977  1.0000
  C   C8        1.0  0.31850  0.74450  0.16023  1.0000
  C   C9        1.0  0.76490  0.76460  0.72773  1.0000
  C   C10       1.0  0.73510  0.26460  0.77227  1.0000
  C   C11       1.0  0.23510  0.23540  0.27227  1.0000
  C   C12       1.0  0.26490  0.73540  0.22773  1.0000
  C   C13       1.0  0.62100  0.78070  0.72732  1.0000
  C   C14       1.0  0.87900  0.28070  0.77268  1.0000
  C   C15       1.0  0.37900  0.21930  0.27268  1.0000
  C   C16       1.0  0.12100  0.71930  0.22732  1.0000
  C   C17       1.0  0.53370  0.79210  0.66034  1.0000
  C   C18       1.0  0.96630  0.29210  0.83966  1.0000
  C   C19       1.0  0.46630  0.20790  0.33966  1.0000
  C   C20       1.0  0.03370  0.70790  0.16034  1.0000
  C   C21       1.0  0.58740  0.78450  0.59301  1.0000
  C   C22       1.0  0.91260  0.28450  0.90699  1.0000
  C   C23       1.0  0.41260  0.21550  0.40699  1.0000
  C   C24       1.0  0.08740  0.71550  0.09301  1.0000
  C   C25       1.0  0.79470  0.75010  0.52196  1.0000
  C   C26       1.0  0.70530  0.25010  0.97804  1.0000
  C   C27       1.0  0.20530  0.24990  0.47804  1.0000
  C   C28       1.0  0.29470  0.74990  0.02196  1.0000
  C   C29       1.0  0.97420  0.73580  0.66195  1.0000
  C   C30       1.0  0.52580  0.23580  0.83805  1.0000
  C   C31       1.0  0.02580  0.26420  0.33805  1.0000
  C   C32       1.0  0.47420  0.76420  0.16195  1.0000
  C   C33       1.0  0.86490  0.76580  0.79914  1.0000
  C   C34       1.0  0.63510  0.26580  0.70086  1.0000
  C   C35       1.0  0.13510  0.23420  0.20086  1.0000
  C   C36       1.0  0.36490  0.73420  0.29914  1.0000
  C   C37       1.0  0.55720  0.78400  0.79873  1.0000
  C   C38       1.0  0.94280  0.28400  0.70127  1.0000
  C   C39       1.0  0.44280  0.21600  0.20127  1.0000
  C   C40       1.0  0.05720  0.71600  0.29873  1.0000
  C   C41       1.0  0.38100  0.81480  0.66493  1.0000
  C   C42       1.0  0.11900  0.31480  0.83507  1.0000
  C   C43       1.0  0.61900  0.18520  0.33507  1.0000
  C   C44       1.0  0.88100  0.68520  0.16493  1.0000
  C   C45       1.0  0.49130  0.80430  0.52138  1.0000
  C   C46       1.0  0.00870  0.30430  0.97862  1.0000
  C   C47       1.0  0.50870  0.19570  0.47862  1.0000
  C   C48       1.0  0.99130  0.69570  0.02138  1.0000
  O   O1        1.0  0.76350  0.81014  0.47214  1.0000
  O   O2        1.0  0.73650  0.31014  0.02786  1.0000
  O   O3        1.0  0.23650  0.18986  0.52786  1.0000
  O   O4        1.0  0.26350  0.68986  0.97214  1.0000
  O   O5        1.0  0.87350  0.68448  0.51774  1.0000
  O   O6        1.0  0.62650  0.18448  0.98226  1.0000
  O   O7        1.0  0.12650  0.31552  0.48226  1.0000
  O   O8        1.0  0.37350  0.81552  0.01774  1.0000
  O   O9        1.0  0.04270  0.79602  0.63185  1.0000
  O   O10       1.0  0.45730  0.29602  0.86815  1.0000
  O   O11       1.0  0.95730  0.20398  0.36815  1.0000
  O   O12       1.0  0.54270  0.70398  0.13185  1.0000
  O   O13       1.0  0.02260  0.66500  0.69292  1.0000
  O   O14       1.0  0.47740  0.16500  0.80708  1.0000
  O   O15       1.0  0.97740  0.33500  0.30708  1.0000
  O   O16       1.0  0.52260  0.83500  0.19292  1.0000
  O   O17       1.0  0.96890  0.81403  0.80360  1.0000
  O   O18       1.0  0.53110  0.31403  0.69640  1.0000
  O   O19       1.0  0.03110  0.18597  0.19640  1.0000
  O   O20       1.0  0.46890  0.68597  0.30360  1.0000
  O   O21       1.0  0.82940  0.71501  0.85205  1.0000
  O   O22       1.0  0.67060  0.21501  0.64795  1.0000
  O   O23       1.0  0.17060  0.28499  0.14795  1.0000
  O   O24       1.0  0.32940  0.78499  0.35205  1.0000
  O   O25       1.0  0.59030  0.84729  0.84330  1.0000
  O   O26       1.0  0.90970  0.34729  0.65670  1.0000
  O   O27       1.0  0.40970  0.15271  0.15670  1.0000
  O   O28       1.0  0.09030  0.65271  0.34330  1.0000
  O   O29       1.0  0.47290  0.71965  0.80540  1.0000
  O   O30       1.0  0.02710  0.21965  0.69460  1.0000
  O   O31       1.0  0.52710  0.28035  0.19460  1.0000
  O   O32       1.0  0.97290  0.78035  0.30540  1.0000
  O   O33       1.0  0.35090  0.87137  0.70926  1.0000
  O   O34       1.0  0.14910  0.37137  0.79074  1.0000
  O   O35       1.0  0.64910  0.12863  0.29074  1.0000
  O   O36       1.0  0.85090  0.62863  0.20926  1.0000
  O   O37       1.0  0.29240  0.76810  0.62037  1.0000
  O   O38       1.0  0.20760  0.26810  0.87963  1.0000
  O   O39       1.0  0.70760  0.23190  0.37963  1.0000
  O   O40       1.0  0.79240  0.73190  0.12037  1.0000
  O   O41       1.0  0.44330  0.88320  0.51389  1.0000
  O   O42       1.0  0.05670  0.38320  0.98611  1.0000
  O   O43       1.0  0.55670  0.11680  0.48611  1.0000
  O   O44       1.0  0.94330  0.61680  0.01389  1.0000
  O   O45       1.0  0.46530  0.74012  0.47570  1.0000
  O   O46       1.0  0.03470  0.24012  0.02430  1.0000
  O   O47       1.0  0.53470  0.25988  0.52430  1.0000
  O   O48       1.0  0.96530  0.75988  0.97570  1.0000
  O   O49       1.0  0.02350  0.86646  0.43673  1.0000
  O   O50       1.0  0.47650  0.36646  0.06327  1.0000
  O   O51       1.0  0.97650  0.13354  0.56327  1.0000
  O   O52       1.0  0.52350  0.63354  0.93673  1.0000
  C   C49       1.0  0.05070  0.94900  0.42510  1.0000
  C   C50       1.0  0.44930  0.44900  0.07490  1.0000
  C   C51       1.0  0.94930  0.05100  0.57490  1.0000
  C   C52       1.0  0.55070  0.55100  0.92510  1.0000
  N   N1        1.0  0.17030  0.98490  0.46000  1.0000
  N   N2        1.0  0.32970  0.48490  0.04000  1.0000
  N   N3        1.0  0.82970  0.01510  0.54000  1.0000
  N   N4        1.0  0.67030  0.51510  0.96000  1.0000
  N   N5        1.0  0.96780  0.00160  0.37920  1.0000
  N   N6        1.0  0.53220  0.50160  0.12080  1.0000
  N   N7        1.0  0.03220  0.99840  0.62080  1.0000
  N   N8        1.0  0.46780  0.49840  0.87920  1.0000
  O   O53       1.0  0.74970  0.68638  0.34712  1.0000
  O   O54       1.0  0.75030  0.18638  0.15288  1.0000
  O   O55       1.0  0.25030  0.31362  0.65288  1.0000
  O   O56       1.0  0.24970  0.81362  0.84712  1.0000
  O   O57       1.0  0.71900  0.89380  0.32098  1.0000
  O   O58       1.0  0.78100  0.39380  0.17902  1.0000
  O   O59       1.0  0.28100  0.10620  0.67902  1.0000
  O   O60       1.0  0.21900  0.60620  0.82098  1.0000
  H   H1        1.0  0.89220  0.73150  0.89990  1.0000
  H   H2        1.0  0.60780  0.23150  0.60010  1.0000
  H   H3        1.0  0.10780  0.26850  0.10010  1.0000
  H   H4        1.0  0.39220  0.76850  0.39990  1.0000
  H   H5        1.0  0.21660  0.78060  0.62310  1.0000
  H   H6        1.0  0.28340  0.28060  0.87690  1.0000
  H   H7        1.0  0.78340  0.21940  0.37690  1.0000
  H   H8        1.0  0.71660  0.71940  0.12310  1.0000
  H   H9        1.0  0.76790  0.66830  0.31010  1.0000
  H   H10       1.0  0.73210  0.16830  0.18990  1.0000
  H   H11       1.0  0.23210  0.33170  0.68990  1.0000
  H   H12       1.0  0.26790  0.83170  0.81010  1.0000
  H   H13       1.0  0.66220  0.69070  0.34350  1.0000
  H   H14       1.0  0.83780  0.19070  0.15650  1.0000
  H   H15       1.0  0.33780  0.30930  0.65650  1.0000
  H   H16       1.0  0.16220  0.80930  0.84350  1.0000
  H   H17       1.0  0.67810  0.87330  0.28170  1.0000
  H   H18       1.0  0.82190  0.37330  0.21830  1.0000
  H   H19       1.0  0.32190  0.12670  0.71830  1.0000
  H   H20       1.0  0.17810  0.62670  0.78170  1.0000
  H   H21       1.0  0.67100  0.91950  0.33960  1.0000
  H   H22       1.0  0.82900  0.41950  0.16040  1.0000
  H   H23       1.0  0.32900  0.08050  0.66040  1.0000
  H   H24       1.0  0.17100  0.58050  0.83960  1.0000
  H   H25       1.0  0.22900  0.94440  0.48690  1.0000
  H   H26       1.0  0.27100  0.44440  0.01310  1.0000
  H   H27       1.0  0.77100  0.05560  0.51310  1.0000
  H   H28       1.0  0.72900  0.55560  0.98690  1.0000
  H   H29       1.0  0.17690  0.03900  0.46010  1.0000
  H   H30       1.0  0.32310  0.53900  0.03990  1.0000
  H   H31       1.0  0.82310  0.96100  0.53990  1.0000
  H   H32       1.0  0.67690  0.46100  0.96010  1.0000
  H   H33       1.0  0.89200  0.98140  0.35420  1.0000
  H   H34       1.0  0.60800  0.48140  0.14580  1.0000
  H   H35       1.0  0.10800  0.01860  0.64580  1.0000
  H   H36       1.0  0.39200  0.51860  0.85420  1.0000
  H   H37       1.0  0.98110  0.05710  0.37880  1.0000
  H   H38       1.0  0.51890  0.55710  0.12120  1.0000
  H   H39       1.0  0.01890  0.94290  0.62120  1.0000
  H   H40       1.0  0.48110  0.44290  0.87880  1.0000
