data_image0
_chemical_formula_structural       Yb4O24H8O32H8O8C32H8C8H8C8H8C16H24C32H8C8H8C8H8C16H24
_chemical_formula_sum              "Yb4 O64 H112 C128"
_cell_length_a       16.4187
_cell_length_b       20.1923
_cell_length_c       9.5549
_cell_angle_alpha    90
_cell_angle_beta     90
_cell_angle_gamma    90

_space_group_name_H-M_alt    "P 1"
_space_group_IT_number       1

loop_
  _space_group_symop_operation_xyz
  'x, y, z'

loop_
  _atom_site_type_symbol
  _atom_site_label
  _atom_site_symmetry_multiplicity
  _atom_site_fract_x
  _atom_site_fract_y
  _atom_site_fract_z
  _atom_site_occupancy
  Yb  Yb1       1.0  0.50000  0.50000  0.67624  1.0000
  Yb  Yb2       1.0  0.50000  0.50000  0.17624  1.0000
  Yb  Yb3       1.0  0.00000  0.00000  0.67624  1.0000
  Yb  Yb4       1.0  0.00000  0.00000  0.17624  1.0000
  O   O1        1.0  0.64000  0.49150  0.75310  1.0000
  O   O2        1.0  0.36000  0.50850  0.75310  1.0000
  O   O3        1.0  0.64000  0.50850  0.25310  1.0000
  O   O4        1.0  0.36000  0.49150  0.25310  1.0000
  O   O5        1.0  0.14000  0.99150  0.75310  1.0000
  O   O6        1.0  0.86000  0.00850  0.75310  1.0000
  O   O7        1.0  0.14000  0.00850  0.25310  1.0000
  O   O8        1.0  0.86000  0.99150  0.25310  1.0000
  O   O9        1.0  0.61160  0.55375  0.57070  1.0000
  O   O10       1.0  0.38840  0.44625  0.57070  1.0000
  O   O11       1.0  0.61160  0.44625  0.07070  1.0000
  O   O12       1.0  0.38840  0.55375  0.07070  1.0000
  O   O13       1.0  0.11160  0.05375  0.57070  1.0000
  O   O14       1.0  0.88840  0.94625  0.57070  1.0000
  O   O15       1.0  0.11160  0.94625  0.07070  1.0000
  O   O16       1.0  0.88840  0.05375  0.07070  1.0000
  O   O17       1.0  0.72190  0.61952  0.44540  1.0000
  O   O18       1.0  0.27810  0.38048  0.44540  1.0000
  O   O19       1.0  0.72190  0.38048  0.94540  1.0000
  O   O20       1.0  0.27810  0.61952  0.94540  1.0000
  O   O21       1.0  0.22190  0.11952  0.44540  1.0000
  O   O22       1.0  0.77810  0.88048  0.44540  1.0000
  O   O23       1.0  0.22190  0.88048  0.94540  1.0000
  O   O24       1.0  0.77810  0.11952  0.94540  1.0000
  H   H1        1.0  0.67670  0.60280  0.45440  1.0000
  H   H2        1.0  0.32330  0.39720  0.45440  1.0000
  H   H3        1.0  0.67670  0.39720  0.95440  1.0000
  H   H4        1.0  0.32330  0.60280  0.95440  1.0000
  H   H5        1.0  0.17670  0.10280  0.45440  1.0000
  H   H6        1.0  0.82330  0.89720  0.45440  1.0000
  H   H7        1.0  0.17670  0.89720  0.95440  1.0000
  H   H8        1.0  0.82330  0.10280  0.95440  1.0000
  O   O25       1.0  0.87430  0.64749  0.40800  1.0000
  O   O26       1.0  0.12570  0.35251  0.40800  1.0000
  O   O27       1.0  0.87430  0.35251  0.90800  1.0000
  O   O28       1.0  0.12570  0.64749  0.90800  1.0000
  O   O29       1.0  0.37430  0.14749  0.40800  1.0000
  O   O30       1.0  0.62570  0.85251  0.40800  1.0000
  O   O31       1.0  0.37430  0.85251  0.90800  1.0000
  O   O32       1.0  0.62570  0.14749  0.90800  1.0000
  O   O33       1.0  0.48950  0.42130  0.83760  1.0000
  O   O34       1.0  0.51050  0.57870  0.83760  1.0000
  O   O35       1.0  0.48950  0.57870  0.33760  1.0000
  O   O36       1.0  0.51050  0.42130  0.33760  1.0000
  O   O37       1.0  0.98950  0.92130  0.83760  1.0000
  O   O38       1.0  0.01050  0.07870  0.83760  1.0000
  O   O39       1.0  0.98950  0.07870  0.33760  1.0000
  O   O40       1.0  0.01050  0.92130  0.33760  1.0000
  O   O41       1.0  0.44500  0.41128  0.05650  1.0000
  O   O42       1.0  0.55500  0.58872  0.05650  1.0000
  O   O43       1.0  0.44500  0.58872  0.55650  1.0000
  O   O44       1.0  0.55500  0.41128  0.55650  1.0000
  O   O45       1.0  0.94500  0.91128  0.05650  1.0000
  O   O46       1.0  0.05500  0.08872  0.05650  1.0000
  O   O47       1.0  0.94500  0.08872  0.55650  1.0000
  O   O48       1.0  0.05500  0.91128  0.55650  1.0000
  O   O49       1.0  0.38380  0.30080  0.13960  1.0000
  O   O50       1.0  0.61620  0.69920  0.13960  1.0000
  O   O51       1.0  0.38380  0.69920  0.63960  1.0000
  O   O52       1.0  0.61620  0.30080  0.63960  1.0000
  O   O53       1.0  0.88380  0.80080  0.13960  1.0000
  O   O54       1.0  0.11620  0.19920  0.13960  1.0000
  O   O55       1.0  0.88380  0.19920  0.63960  1.0000
  O   O56       1.0  0.11620  0.80080  0.63960  1.0000
  H   H9        1.0  0.40420  0.33760  0.14940  1.0000
  H   H10       1.0  0.59580  0.66240  0.14940  1.0000
  H   H11       1.0  0.40420  0.66240  0.64940  1.0000
  H   H12       1.0  0.59580  0.33760  0.64940  1.0000
  H   H13       1.0  0.90420  0.83760  0.14940  1.0000
  H   H14       1.0  0.09580  0.16240  0.14940  1.0000
  H   H15       1.0  0.90420  0.16240  0.64940  1.0000
  H   H16       1.0  0.09580  0.83760  0.64940  1.0000
  O   O57       1.0  0.32020  0.18754  0.07750  1.0000
  O   O58       1.0  0.67980  0.81246  0.07750  1.0000
  O   O59       1.0  0.32020  0.81246  0.57750  1.0000
  O   O60       1.0  0.67980  0.18754  0.57750  1.0000
  O   O61       1.0  0.82020  0.68754  0.07750  1.0000
  O   O62       1.0  0.17980  0.31246  0.07750  1.0000
  O   O63       1.0  0.82020  0.31246  0.57750  1.0000
  O   O64       1.0  0.17980  0.68754  0.57750  1.0000
  C   C1        1.0  0.75130  0.54670  0.64100  1.0000
  C   C2        1.0  0.24870  0.45330  0.64100  1.0000
  C   C3        1.0  0.75130  0.45330  0.14100  1.0000
  C   C4        1.0  0.24870  0.54670  0.14100  1.0000
  C   C5        1.0  0.25130  0.04670  0.64100  1.0000
  C   C6        1.0  0.74870  0.95330  0.64100  1.0000
  C   C7        1.0  0.25130  0.95330  0.14100  1.0000
  C   C8        1.0  0.74870  0.04670  0.14100  1.0000
  C   C9        1.0  0.77490  0.58970  0.53370  1.0000
  C   C10       1.0  0.22510  0.41030  0.53370  1.0000
  C   C11       1.0  0.77490  0.41030  0.03370  1.0000
  C   C12       1.0  0.22510  0.58970  0.03370  1.0000
  C   C13       1.0  0.27490  0.08970  0.53370  1.0000
  C   C14       1.0  0.72510  0.91030  0.53370  1.0000
  C   C15       1.0  0.27490  0.91030  0.03370  1.0000
  C   C16       1.0  0.72510  0.08970  0.03370  1.0000
  C   C17       1.0  0.85850  0.60400  0.51540  1.0000
  C   C18       1.0  0.14150  0.39600  0.51540  1.0000
  C   C19       1.0  0.85850  0.39600  0.01540  1.0000
  C   C20       1.0  0.14150  0.60400  0.01540  1.0000
  C   C21       1.0  0.35850  0.10400  0.51540  1.0000
  C   C22       1.0  0.64150  0.89600  0.51540  1.0000
  C   C23       1.0  0.35850  0.89600  0.01540  1.0000
  C   C24       1.0  0.64150  0.10400  0.01540  1.0000
  C   C25       1.0  0.91610  0.57440  0.60050  1.0000
  C   C26       1.0  0.08390  0.42560  0.60050  1.0000
  C   C27       1.0  0.91610  0.42560  0.10050  1.0000
  C   C28       1.0  0.08390  0.57440  0.10050  1.0000
  C   C29       1.0  0.41610  0.07440  0.60050  1.0000
  C   C30       1.0  0.58390  0.92560  0.60050  1.0000
  C   C31       1.0  0.41610  0.92560  0.10050  1.0000
  C   C32       1.0  0.58390  0.07440  0.10050  1.0000
  H   H17       1.0  0.97120  0.58240  0.58580  1.0000
  H   H18       1.0  0.02880  0.41760  0.58580  1.0000
  H   H19       1.0  0.97120  0.41760  0.08580  1.0000
  H   H20       1.0  0.02880  0.58240  0.08580  1.0000
  H   H21       1.0  0.47120  0.08240  0.58580  1.0000
  H   H22       1.0  0.52880  0.91760  0.58580  1.0000
  H   H23       1.0  0.47120  0.91760  0.08580  1.0000
  H   H24       1.0  0.52880  0.08240  0.08580  1.0000
  C   C33       1.0  0.89110  0.53260  0.70890  1.0000
  C   C34       1.0  0.10890  0.46740  0.70890  1.0000
  C   C35       1.0  0.89110  0.46740  0.20890  1.0000
  C   C36       1.0  0.10890  0.53260  0.20890  1.0000
  C   C37       1.0  0.39110  0.03260  0.70890  1.0000
  C   C38       1.0  0.60890  0.96740  0.70890  1.0000
  C   C39       1.0  0.39110  0.96740  0.20890  1.0000
  C   C40       1.0  0.60890  0.03260  0.20890  1.0000
  H   H25       1.0  0.92970  0.51350  0.76750  1.0000
  H   H26       1.0  0.07030  0.48650  0.76750  1.0000
  H   H27       1.0  0.92970  0.48650  0.26750  1.0000
  H   H28       1.0  0.07030  0.51350  0.26750  1.0000
  H   H29       1.0  0.42970  0.01350  0.76750  1.0000
  H   H30       1.0  0.57030  0.98650  0.76750  1.0000
  H   H31       1.0  0.42970  0.98650  0.26750  1.0000
  H   H32       1.0  0.57030  0.01350  0.26750  1.0000
  C   C41       1.0  0.80940  0.51940  0.72930  1.0000
  C   C42       1.0  0.19060  0.48060  0.72930  1.0000
  C   C43       1.0  0.80940  0.48060  0.22930  1.0000
  C   C44       1.0  0.19060  0.51940  0.22930  1.0000
  C   C45       1.0  0.30940  0.01940  0.72930  1.0000
  C   C46       1.0  0.69060  0.98060  0.72930  1.0000
  C   C47       1.0  0.30940  0.98060  0.22930  1.0000
  C   C48       1.0  0.69060  0.01940  0.22930  1.0000
  H   H33       1.0  0.79320  0.49210  0.80270  1.0000
  H   H34       1.0  0.20680  0.50790  0.80270  1.0000
  H   H35       1.0  0.79320  0.50790  0.30270  1.0000
  H   H36       1.0  0.20680  0.49210  0.30270  1.0000
  H   H37       1.0  0.29320  0.99210  0.80270  1.0000
  H   H38       1.0  0.70680  0.00790  0.80270  1.0000
  H   H39       1.0  0.29320  0.00790  0.30270  1.0000
  H   H40       1.0  0.70680  0.99210  0.30270  1.0000
  C   C49       1.0  0.66360  0.52940  0.65820  1.0000
  C   C50       1.0  0.33640  0.47060  0.65820  1.0000
  C   C51       1.0  0.66360  0.47060  0.15820  1.0000
  C   C52       1.0  0.33640  0.52940  0.15820  1.0000
  C   C53       1.0  0.16360  0.02940  0.65820  1.0000
  C   C54       1.0  0.83640  0.97060  0.65820  1.0000
  C   C55       1.0  0.16360  0.97060  0.15820  1.0000
  C   C56       1.0  0.83640  0.02940  0.15820  1.0000
  C   C57       1.0  0.95770  0.66390  0.38330  1.0000
  C   C58       1.0  0.04230  0.33610  0.38330  1.0000
  C   C59       1.0  0.95770  0.33610  0.88330  1.0000
  C   C60       1.0  0.04230  0.66390  0.88330  1.0000
  C   C61       1.0  0.45770  0.16390  0.38330  1.0000
  C   C62       1.0  0.54230  0.83610  0.38330  1.0000
  C   C63       1.0  0.45770  0.83610  0.88330  1.0000
  C   C64       1.0  0.54230  0.16390  0.88330  1.0000
  H   H41       1.0  0.96120  0.69460  0.30690  1.0000
  H   H42       1.0  0.03880  0.30540  0.30690  1.0000
  H   H43       1.0  0.96120  0.30540  0.80690  1.0000
  H   H44       1.0  0.03880  0.69460  0.80690  1.0000
  H   H45       1.0  0.46120  0.19460  0.30690  1.0000
  H   H46       1.0  0.53880  0.80540  0.30690  1.0000
  H   H47       1.0  0.46120  0.80540  0.80690  1.0000
  H   H48       1.0  0.53880  0.19460  0.80690  1.0000
  H   H49       1.0  0.98750  0.62440  0.36060  1.0000
  H   H50       1.0  0.01250  0.37560  0.36060  1.0000
  H   H51       1.0  0.98750  0.37560  0.86060  1.0000
  H   H52       1.0  0.01250  0.62440  0.86060  1.0000
  H   H53       1.0  0.48750  0.12440  0.36060  1.0000
  H   H54       1.0  0.51250  0.87560  0.36060  1.0000
  H   H55       1.0  0.48750  0.87560  0.86060  1.0000
  H   H56       1.0  0.51250  0.12440  0.86060  1.0000
  H   H57       1.0  0.98040  0.68370  0.46590  1.0000
  H   H58       1.0  0.01960  0.31630  0.46590  1.0000
  H   H59       1.0  0.98040  0.31630  0.96590  1.0000
  H   H60       1.0  0.01960  0.68370  0.96590  1.0000
  H   H61       1.0  0.48040  0.18370  0.46590  1.0000
  H   H62       1.0  0.51960  0.81630  0.46590  1.0000
  H   H63       1.0  0.48040  0.81630  0.96590  1.0000
  H   H64       1.0  0.51960  0.18370  0.96590  1.0000
  C   C65       1.0  0.41400  0.32540  0.89550  1.0000
  C   C66       1.0  0.58600  0.67460  0.89550  1.0000
  C   C67       1.0  0.41400  0.67460  0.39550  1.0000
  C   C68       1.0  0.58600  0.32540  0.39550  1.0000
  C   C69       1.0  0.91400  0.82540  0.89550  1.0000
  C   C70       1.0  0.08600  0.17460  0.89550  1.0000
  C   C71       1.0  0.91400  0.17460  0.39550  1.0000
  C   C72       1.0  0.08600  0.82540  0.39550  1.0000
  C   C73       1.0  0.38250  0.28480  0.00200  1.0000
  C   C74       1.0  0.61750  0.71520  0.00200  1.0000
  C   C75       1.0  0.38250  0.71520  0.50200  1.0000
  C   C76       1.0  0.61750  0.28480  0.50200  1.0000
  C   C77       1.0  0.88250  0.78480  0.00200  1.0000
  C   C78       1.0  0.11750  0.21520  0.00200  1.0000
  C   C79       1.0  0.88250  0.21520  0.50200  1.0000
  C   C80       1.0  0.11750  0.78480  0.50200  1.0000
  C   C81       1.0  0.34730  0.22350  0.96570  1.0000
  C   C82       1.0  0.65270  0.77650  0.96570  1.0000
  C   C83       1.0  0.34730  0.77650  0.46570  1.0000
  C   C84       1.0  0.65270  0.22350  0.46570  1.0000
  C   C85       1.0  0.84730  0.72350  0.96570  1.0000
  C   C86       1.0  0.15270  0.27650  0.96570  1.0000
  C   C87       1.0  0.84730  0.27650  0.46570  1.0000
  C   C88       1.0  0.15270  0.72350  0.46570  1.0000
  C   C89       1.0  0.34210  0.20410  0.82750  1.0000
  C   C90       1.0  0.65790  0.79590  0.82750  1.0000
  C   C91       1.0  0.34210  0.79590  0.32750  1.0000
  C   C92       1.0  0.65790  0.20410  0.32750  1.0000
  C   C93       1.0  0.84210  0.70410  0.82750  1.0000
  C   C94       1.0  0.15790  0.29590  0.82750  1.0000
  C   C95       1.0  0.84210  0.29590  0.32750  1.0000
  C   C96       1.0  0.15790  0.70410  0.32750  1.0000
  H   H65       1.0  0.31900  0.16350  0.80450  1.0000
  H   H66       1.0  0.68100  0.83650  0.80450  1.0000
  H   H67       1.0  0.31900  0.83650  0.30450  1.0000
  H   H68       1.0  0.68100  0.16350  0.30450  1.0000
  H   H69       1.0  0.81900  0.66350  0.80450  1.0000
  H   H70       1.0  0.18100  0.33650  0.80450  1.0000
  H   H71       1.0  0.81900  0.33650  0.30450  1.0000
  H   H72       1.0  0.18100  0.66350  0.30450  1.0000
  C   C97       1.0  0.37180  0.24590  0.72200  1.0000
  C   C98       1.0  0.62820  0.75410  0.72200  1.0000
  C   C99       1.0  0.37180  0.75410  0.22200  1.0000
  C   C100      1.0  0.62820  0.24590  0.22200  1.0000
  C   C101      1.0  0.87180  0.74590  0.72200  1.0000
  C   C102      1.0  0.12820  0.25410  0.72200  1.0000
  C   C103      1.0  0.87180  0.25410  0.22200  1.0000
  C   C104      1.0  0.12820  0.74590  0.22200  1.0000
  H   H73       1.0  0.36680  0.23350  0.62870  1.0000
  H   H74       1.0  0.63320  0.76650  0.62870  1.0000
  H   H75       1.0  0.36680  0.76650  0.12870  1.0000
  H   H76       1.0  0.63320  0.23350  0.12870  1.0000
  H   H77       1.0  0.86680  0.73350  0.62870  1.0000
  H   H78       1.0  0.13320  0.26650  0.62870  1.0000
  H   H79       1.0  0.86680  0.26650  0.12870  1.0000
  H   H80       1.0  0.13320  0.73350  0.12870  1.0000
  C   C105      1.0  0.40830  0.30560  0.75560  1.0000
  C   C106      1.0  0.59170  0.69440  0.75560  1.0000
  C   C107      1.0  0.40830  0.69440  0.25560  1.0000
  C   C108      1.0  0.59170  0.30560  0.25560  1.0000
  C   C109      1.0  0.90830  0.80560  0.75560  1.0000
  C   C110      1.0  0.09170  0.19440  0.75560  1.0000
  C   C111      1.0  0.90830  0.19440  0.25560  1.0000
  C   C112      1.0  0.09170  0.80560  0.25560  1.0000
  H   H81       1.0  0.42910  0.33250  0.68510  1.0000
  H   H82       1.0  0.57090  0.66750  0.68510  1.0000
  H   H83       1.0  0.42910  0.66750  0.18510  1.0000
  H   H84       1.0  0.57090  0.33250  0.18510  1.0000
  H   H85       1.0  0.92910  0.83250  0.68510  1.0000
  H   H86       1.0  0.07090  0.16750  0.68510  1.0000
  H   H87       1.0  0.92910  0.16750  0.18510  1.0000
  H   H88       1.0  0.07090  0.83250  0.18510  1.0000
  C   C113      1.0  0.45230  0.39060  0.93150  1.0000
  C   C114      1.0  0.54770  0.60940  0.93150  1.0000
  C   C115      1.0  0.45230  0.60940  0.43150  1.0000
  C   C116      1.0  0.54770  0.39060  0.43150  1.0000
  C   C117      1.0  0.95230  0.89060  0.93150  1.0000
  C   C118      1.0  0.04770  0.10940  0.93150  1.0000
  C   C119      1.0  0.95230  0.10940  0.43150  1.0000
  C   C120      1.0  0.04770  0.89060  0.43150  1.0000
  C   C121      1.0  0.28900  0.12240  0.05230  1.0000
  C   C122      1.0  0.71100  0.87760  0.05230  1.0000
  C   C123      1.0  0.28900  0.87760  0.55230  1.0000
  C   C124      1.0  0.71100  0.12240  0.55230  1.0000
  C   C125      1.0  0.78900  0.62240  0.05230  1.0000
  C   C126      1.0  0.21100  0.37760  0.05230  1.0000
  C   C127      1.0  0.78900  0.37760  0.55230  1.0000
  C   C128      1.0  0.21100  0.62240  0.55230  1.0000
  H   H89       1.0  0.24430  0.12490  0.98770  1.0000
  H   H90       1.0  0.75570  0.87510  0.98770  1.0000
  H   H91       1.0  0.24430  0.87510  0.48770  1.0000
  H   H92       1.0  0.75570  0.12490  0.48770  1.0000
  H   H93       1.0  0.74430  0.62490  0.98770  1.0000
  H   H94       1.0  0.25570  0.37510  0.98770  1.0000
  H   H95       1.0  0.74430  0.37510  0.48770  1.0000
  H   H96       1.0  0.25570  0.62490  0.48770  1.0000
  H   H97       1.0  0.27050  0.10350  0.13880  1.0000
  H   H98       1.0  0.72950  0.89650  0.13880  1.0000
  H   H99       1.0  0.27050  0.89650  0.63880  1.0000
  H   H100      1.0  0.72950  0.10350  0.63880  1.0000
  H   H101      1.0  0.77050  0.60350  0.13880  1.0000
  H   H102      1.0  0.22950  0.39650  0.13880  1.0000
  H   H103      1.0  0.77050  0.39650  0.63880  1.0000
  H   H104      1.0  0.22950  0.60350  0.63880  1.0000
  H   H105      1.0  0.33120  0.09520  0.01340  1.0000
  H   H106      1.0  0.66880  0.90480  0.01340  1.0000
  H   H107      1.0  0.33120  0.90480  0.51340  1.0000
  H   H108      1.0  0.66880  0.09520  0.51340  1.0000
  H   H109      1.0  0.83120  0.59520  0.01340  1.0000
  H   H110      1.0  0.16880  0.40480  0.01340  1.0000
  H   H111      1.0  0.83120  0.40480  0.51340  1.0000
  H   H112      1.0  0.16880  0.59520  0.51340  1.0000
