data_image0
_chemical_formula_structural       C12Cu4O24H12
_chemical_formula_sum              "C12 Cu4 O24 H12"
_cell_length_a       13.6663
_cell_length_b       8.7307
_cell_length_c       8.8613
_cell_angle_alpha    90
_cell_angle_beta     123.784
_cell_angle_gamma    90

_space_group_name_H-M_alt    "P 1"
_space_group_IT_number       1

loop_
  _space_group_symop_operation_xyz
  'x, y, z'

loop_
  _atom_site_type_symbol
  _atom_site_label
  _atom_site_symmetry_multiplicity
  _atom_site_fract_x
  _atom_site_fract_y
  _atom_site_fract_z
  _atom_site_occupancy
  C   C1        1.0  0.00000  0.71450  0.25000  1.0000
  C   C2        1.0  0.50000  0.21450  0.25000  1.0000
  C   C3        1.0  0.00000  0.28550  0.75000  1.0000
  C   C4        1.0  0.50000  0.78550  0.75000  1.0000
  C   C5        1.0  0.27860  0.53800  0.27550  1.0000
  C   C6        1.0  0.72140  0.53800  0.22450  1.0000
  C   C7        1.0  0.77860  0.03800  0.27550  1.0000
  C   C8        1.0  0.22140  0.03800  0.22450  1.0000
  C   C9        1.0  0.72140  0.46200  0.72450  1.0000
  C   C10       1.0  0.27860  0.46200  0.77550  1.0000
  C   C11       1.0  0.22140  0.96200  0.72450  1.0000
  C   C12       1.0  0.77860  0.96200  0.77550  1.0000
  Cu  Cu1       1.0  0.25000  0.75000  0.50000  1.0000
  Cu  Cu2       1.0  0.75000  0.75000  0.00000  1.0000
  Cu  Cu3       1.0  0.75000  0.25000  0.50000  1.0000
  Cu  Cu4       1.0  0.25000  0.25000  0.00000  1.0000
  O   O1        1.0  0.31099  0.66130  0.36380  1.0000
  O   O2        1.0  0.68901  0.66130  0.13620  1.0000
  O   O3        1.0  0.81099  0.16130  0.36380  1.0000
  O   O4        1.0  0.18901  0.16130  0.13620  1.0000
  O   O5        1.0  0.68901  0.33870  0.63620  1.0000
  O   O6        1.0  0.31099  0.33870  0.86380  1.0000
  O   O7        1.0  0.18901  0.83870  0.63620  1.0000
  O   O8        1.0  0.81099  0.83870  0.86380  1.0000
  O   O9        1.0  0.09687  0.64713  0.34100  1.0000
  O   O10       1.0  0.90313  0.64713  0.15900  1.0000
  O   O11       1.0  0.59687  0.14713  0.34100  1.0000
  O   O12       1.0  0.40313  0.14713  0.15900  1.0000
  O   O13       1.0  0.90313  0.35287  0.65900  1.0000
  O   O14       1.0  0.09687  0.35287  0.84100  1.0000
  O   O15       1.0  0.40313  0.85287  0.65900  1.0000
  O   O16       1.0  0.59687  0.85287  0.84100  1.0000
  O   O17       1.0  0.32235  0.48315  0.19650  1.0000
  O   O18       1.0  0.67765  0.48315  0.30350  1.0000
  O   O19       1.0  0.82235  0.98315  0.19650  1.0000
  O   O20       1.0  0.17765  0.98315  0.30350  1.0000
  O   O21       1.0  0.67765  0.51685  0.80350  1.0000
  O   O22       1.0  0.32235  0.51685  0.69650  1.0000
  O   O23       1.0  0.17765  0.01685  0.80350  1.0000
  O   O24       1.0  0.82235  0.01685  0.69650  1.0000
  H   H1        1.0  0.00000  0.82700  0.25000  1.0000
  H   H2        1.0  0.50000  0.32700  0.25000  1.0000
  H   H3        1.0  0.00000  0.17300  0.75000  1.0000
  H   H4        1.0  0.50000  0.67300  0.75000  1.0000
  H   H5        1.0  0.21200  0.47900  0.26700  1.0000
  H   H6        1.0  0.78800  0.47900  0.23300  1.0000
  H   H7        1.0  0.71200  0.97900  0.26700  1.0000
  H   H8        1.0  0.28800  0.97900  0.23300  1.0000
  H   H9        1.0  0.78800  0.52100  0.73300  1.0000
  H   H10       1.0  0.21200  0.52100  0.76700  1.0000
  H   H11       1.0  0.28800  0.02100  0.73300  1.0000
  H   H12       1.0  0.71200  0.02100  0.76700  1.0000
