data_image0
_chemical_formula_structural       Ti4O32C14
_chemical_formula_sum              "Ti4 O32 C14"
_cell_length_a       9.1437
_cell_length_b       11.4991
_cell_length_c       11.6975
_cell_angle_alpha    96.2915
_cell_angle_beta     107.998
_cell_angle_gamma    104.276

_space_group_name_H-M_alt    "P 1"
_space_group_IT_number       1

loop_
  _space_group_symop_operation_xyz
  'x, y, z'

loop_
  _atom_site_type_symbol
  _atom_site_label
  _atom_site_symmetry_multiplicity
  _atom_site_fract_x
  _atom_site_fract_y
  _atom_site_fract_z
  _atom_site_occupancy
  Ti  Ti1       1.0  0.99929  0.30256  0.39759  1.0000
  Ti  Ti2       1.0  0.00071  0.69744  0.60241  1.0000
  Ti  Ti3       1.0  0.69984  0.44062  0.37897  1.0000
  Ti  Ti4       1.0  0.30016  0.55938  0.62103  1.0000
  O   O1        1.0  0.04500  0.38500  0.26750  1.0000
  O   O2        1.0  0.95500  0.61500  0.73250  1.0000
  O   O3        1.0  0.54660  0.56400  0.38400  1.0000
  O   O4        1.0  0.45340  0.43600  0.61600  1.0000
  O   O5        1.0  0.72780  0.50260  0.23320  1.0000
  O   O6        1.0  0.27220  0.49740  0.76680  1.0000
  O   O7        1.0  0.17220  0.21730  0.39730  1.0000
  O   O8        1.0  0.82780  0.78270  0.60270  1.0000
  O   O9        1.0  0.96470  0.18200  0.50410  1.0000
  O   O10       1.0  0.03530  0.81800  0.49590  1.0000
  O   O11       1.0  0.85830  0.16920  0.23410  1.0000
  O   O12       1.0  0.14170  0.83080  0.76590  1.0000
  O   O13       1.0  0.40200  0.61250  0.49580  1.0000
  O   O14       1.0  0.59800  0.38750  0.50420  1.0000
  O   O15       1.0  0.80200  0.32960  0.38830  1.0000
  O   O16       1.0  0.19800  0.67040  0.61170  1.0000
  O   O17       1.0  0.49750  0.33230  0.24130  1.0000
  O   O18       1.0  0.50250  0.66770  0.75870  1.0000
  O   O19       1.0  0.13510  0.42720  0.51550  1.0000
  O   O20       1.0  0.86490  0.57280  0.48450  1.0000
  O   O21       1.0  0.77160  0.14300  0.02980  1.0000
  O   O22       1.0  0.22840  0.85700  0.97020  1.0000
  O   O23       1.0  0.30290  0.09740  0.49960  1.0000
  O   O24       1.0  0.69710  0.90260  0.50040  1.0000
  O   O25       1.0  0.10180  0.08850  0.63720  1.0000
  O   O26       1.0  0.89820  0.91150  0.36280  1.0000
  O   O27       1.0  0.38020  0.27700  0.03710  1.0000
  O   O28       1.0  0.61980  0.72300  0.96290  1.0000
  O   O29       1.0  0.65050  0.45750  0.02990  1.0000
  O   O30       1.0  0.34950  0.54250  0.97010  1.0000
  O   O31       1.0  0.97820  0.38250  0.06810  1.0000
  O   O32       1.0  0.02180  0.61750  0.93190  1.0000
  C   C1        1.0  0.85520  0.20320  0.13370  1.0000
  C   C2        1.0  0.14480  0.79680  0.86630  1.0000
  C   C3        1.0  0.63020  0.44060  0.12430  1.0000
  C   C4        1.0  0.36980  0.55940  0.87570  1.0000
  C   C5        1.0  0.19870  0.14930  0.47670  1.0000
  C   C6        1.0  0.80130  0.85070  0.52330  1.0000
  C   C7        1.0  0.08070  0.13680  0.54790  1.0000
  C   C8        1.0  0.91930  0.86320  0.45210  1.0000
  C   C9        1.0  0.96940  0.33400  0.15420  1.0000
  C   C10       1.0  0.03060  0.66600  0.84580  1.0000
  C   C11       1.0  0.48670  0.33980  0.13080  1.0000
  C   C12       1.0  0.51330  0.66020  0.86920  1.0000
  C   C13       1.0  0.48630  0.55090  0.46450  1.0000
  C   C14       1.0  0.51370  0.44910  0.53550  1.0000
