data_image0
_chemical_formula_structural       C12Co4O24H12
_chemical_formula_sum              "C12 Co4 O24 H12"
_cell_length_a       8.2827
_cell_length_b       11.6735
_cell_length_c       8.1543
_cell_angle_alpha    90
_cell_angle_beta     90
_cell_angle_gamma    90

_space_group_name_H-M_alt    "P 1"
_space_group_IT_number       1

loop_
  _space_group_symop_operation_xyz
  'x, y, z'

loop_
  _atom_site_type_symbol
  _atom_site_label
  _atom_site_symmetry_multiplicity
  _atom_site_fract_x
  _atom_site_fract_y
  _atom_site_fract_z
  _atom_site_occupancy
  C   C1        1.0  0.71995  0.97004  0.27955  1.0000
  C   C2        1.0  0.78005  0.02996  0.77955  1.0000
  C   C3        1.0  0.28005  0.47004  0.72045  1.0000
  C   C4        1.0  0.21995  0.52996  0.22045  1.0000
  C   C5        1.0  0.28005  0.02996  0.72045  1.0000
  C   C6        1.0  0.21995  0.97004  0.22045  1.0000
  C   C7        1.0  0.71995  0.52996  0.27955  1.0000
  C   C8        1.0  0.78005  0.47004  0.77955  1.0000
  C   C9        1.0  0.49025  0.25000  0.05642  1.0000
  C   C10       1.0  0.00975  0.75000  0.55642  1.0000
  C   C11       1.0  0.50975  0.75000  0.94358  1.0000
  C   C12       1.0  0.99025  0.25000  0.44358  1.0000
  Co  Co1       1.0  0.50000  0.00000  0.00000  1.0000
  Co  Co2       1.0  0.00000  0.00000  0.50000  1.0000
  Co  Co3       1.0  0.50000  0.50000  0.00000  1.0000
  Co  Co4       1.0  0.00000  0.50000  0.50000  1.0000
  O   O1        1.0  0.59638  0.92958  0.21424  1.0000
  O   O2        1.0  0.90362  0.07042  0.71424  1.0000
  O   O3        1.0  0.40362  0.42958  0.78576  1.0000
  O   O4        1.0  0.09638  0.57042  0.28576  1.0000
  O   O5        1.0  0.40362  0.07042  0.78576  1.0000
  O   O6        1.0  0.09638  0.92958  0.28576  1.0000
  O   O7        1.0  0.59638  0.57042  0.21424  1.0000
  O   O8        1.0  0.90362  0.42958  0.71424  1.0000
  O   O9        1.0  0.77307  0.94008  0.41823  1.0000
  O   O10       1.0  0.72693  0.05992  0.91823  1.0000
  O   O11       1.0  0.22693  0.44008  0.58177  1.0000
  O   O12       1.0  0.27307  0.55992  0.08177  1.0000
  O   O13       1.0  0.22693  0.05992  0.58177  1.0000
  O   O14       1.0  0.27307  0.94008  0.08177  1.0000
  O   O15       1.0  0.77307  0.55992  0.41823  1.0000
  O   O16       1.0  0.72693  0.44008  0.91823  1.0000
  O   O17       1.0  0.47438  0.15526  0.12751  1.0000
  O   O18       1.0  0.02562  0.84474  0.62751  1.0000
  O   O19       1.0  0.52562  0.65526  0.87249  1.0000
  O   O20       1.0  0.97438  0.34474  0.37249  1.0000
  O   O21       1.0  0.52562  0.84474  0.87249  1.0000
  O   O22       1.0  0.97438  0.15526  0.37249  1.0000
  O   O23       1.0  0.47438  0.34474  0.12751  1.0000
  O   O24       1.0  0.02562  0.65526  0.62751  1.0000
  H   H1        1.0  0.78834  0.03569  0.21325  1.0000
  H   H2        1.0  0.71166  0.96431  0.71325  1.0000
  H   H3        1.0  0.21166  0.53569  0.78675  1.0000
  H   H4        1.0  0.28834  0.46431  0.28675  1.0000
  H   H5        1.0  0.21166  0.96431  0.78675  1.0000
  H   H6        1.0  0.28834  0.03569  0.28675  1.0000
  H   H7        1.0  0.78834  0.46431  0.21325  1.0000
  H   H8        1.0  0.71166  0.53569  0.71325  1.0000
  H   H9        1.0  0.51900  0.25000  0.92510  1.0000
  H   H10       1.0  0.98100  0.75000  0.42510  1.0000
  H   H11       1.0  0.48100  0.75000  0.07490  1.0000
  H   H12       1.0  0.01900  0.25000  0.57490  1.0000
