data_image0
_chemical_formula_structural       H12Co4C4O24C8
_chemical_formula_sum              "H12 Co4 C12 O24"
_cell_length_a       8.2499
_cell_length_b       11.6336
_cell_length_c       8.1398
_cell_angle_alpha    90
_cell_angle_beta     90
_cell_angle_gamma    90

_space_group_name_H-M_alt    "P 1"
_space_group_IT_number       1

loop_
  _space_group_symop_operation_xyz
  'x, y, z'

loop_
  _atom_site_type_symbol
  _atom_site_label
  _atom_site_symmetry_multiplicity
  _atom_site_fract_x
  _atom_site_fract_y
  _atom_site_fract_z
  _atom_site_occupancy
  H   H1        1.0  0.22900  0.53400  0.27200  1.0000
  H   H2        1.0  0.27100  0.46600  0.77200  1.0000
  H   H3        1.0  0.77100  0.03400  0.72800  1.0000
  H   H4        1.0  0.72900  0.96600  0.22800  1.0000
  H   H5        1.0  0.77100  0.46600  0.72800  1.0000
  H   H6        1.0  0.72900  0.53400  0.22800  1.0000
  H   H7        1.0  0.22900  0.96600  0.27200  1.0000
  H   H8        1.0  0.27100  0.03400  0.77200  1.0000
  H   H9        1.0  0.49800  0.75000  0.58100  1.0000
  H   H10       1.0  0.00200  0.25000  0.08100  1.0000
  H   H11       1.0  0.50200  0.25000  0.41900  1.0000
  H   H12       1.0  0.99800  0.75000  0.91900  1.0000
  Co  Co1       1.0  0.50000  0.50000  0.50000  1.0000
  Co  Co2       1.0  0.00000  0.50000  0.00000  1.0000
  Co  Co3       1.0  0.50000  0.00000  0.50000  1.0000
  Co  Co4       1.0  0.00000  0.00000  0.00000  1.0000
  C   C1        1.0  0.51000  0.75000  0.44330  1.0000
  C   C2        1.0  0.99000  0.25000  0.94330  1.0000
  C   C3        1.0  0.49000  0.25000  0.55670  1.0000
  C   C4        1.0  0.01000  0.75000  0.05670  1.0000
  O   O1        1.0  0.40398  0.42935  0.28636  1.0000
  O   O2        1.0  0.09602  0.57065  0.78636  1.0000
  O   O3        1.0  0.59602  0.92935  0.71364  1.0000
  O   O4        1.0  0.90398  0.07065  0.21364  1.0000
  O   O5        1.0  0.59602  0.57065  0.71364  1.0000
  O   O6        1.0  0.90398  0.42935  0.21364  1.0000
  O   O7        1.0  0.40398  0.07065  0.28636  1.0000
  O   O8        1.0  0.09602  0.92935  0.78636  1.0000
  O   O9        1.0  0.22749  0.44015  0.08155  1.0000
  O   O10       1.0  0.27251  0.55985  0.58155  1.0000
  O   O11       1.0  0.77251  0.94015  0.91845  1.0000
  O   O12       1.0  0.72749  0.05985  0.41845  1.0000
  O   O13       1.0  0.77251  0.55985  0.91845  1.0000
  O   O14       1.0  0.72749  0.44015  0.41845  1.0000
  O   O15       1.0  0.22749  0.05985  0.08155  1.0000
  O   O16       1.0  0.27251  0.94015  0.58155  1.0000
  O   O17       1.0  0.52529  0.65525  0.37228  1.0000
  O   O18       1.0  0.97471  0.34475  0.87228  1.0000
  O   O19       1.0  0.47471  0.15525  0.62772  1.0000
  O   O20       1.0  0.02529  0.84475  0.12772  1.0000
  O   O21       1.0  0.47471  0.34475  0.62772  1.0000
  O   O22       1.0  0.02529  0.65525  0.12772  1.0000
  O   O23       1.0  0.52529  0.84475  0.37228  1.0000
  O   O24       1.0  0.97471  0.15525  0.87228  1.0000
  C   C5        1.0  0.27950  0.46960  0.22130  1.0000
  C   C6        1.0  0.22050  0.53040  0.72130  1.0000
  C   C7        1.0  0.72050  0.96960  0.77870  1.0000
  C   C8        1.0  0.77950  0.03040  0.27870  1.0000
  C   C9        1.0  0.72050  0.53040  0.77870  1.0000
  C   C10       1.0  0.77950  0.46960  0.27870  1.0000
  C   C11       1.0  0.27950  0.03040  0.22130  1.0000
  C   C12       1.0  0.22050  0.96960  0.72130  1.0000
