data_image0
_chemical_formula_structural       Dy6O40N2H2N10H2N6H2C6H2C2H2C4H2C2H2C8H2C6H2C6H2C6H2C6H2C4H2C8H2C2H2C6H2C2H2C6H2C2H2C4H2C2H2C8H2C6H2C6H2C2H2
_chemical_formula_sum              "Dy6 O40 N18 H50 C104"
_cell_length_a       15.1589
_cell_length_b       16.8609
_cell_length_c       16.97
_cell_angle_alpha    110.902
_cell_angle_beta     92.49
_cell_angle_gamma    98.552

_space_group_name_H-M_alt    "P 1"
_space_group_IT_number       1

loop_
  _space_group_symop_operation_xyz
  'x, y, z'

loop_
  _atom_site_type_symbol
  _atom_site_label
  _atom_site_symmetry_multiplicity
  _atom_site_fract_x
  _atom_site_fract_y
  _atom_site_fract_z
  _atom_site_occupancy
  Dy  Dy1       1.0  0.05844  0.62189  0.02839  1.0000
  Dy  Dy2       1.0  0.94156  0.37811  0.97161  1.0000
  Dy  Dy3       1.0  0.01232  0.86119  0.14583  1.0000
  Dy  Dy4       1.0  0.98768  0.13881  0.85417  1.0000
  Dy  Dy5       1.0  0.95016  0.97072  0.38134  1.0000
  Dy  Dy6       1.0  0.04984  0.02928  0.61866  1.0000
  O   O1        1.0  0.92680  0.02890  0.70913  1.0000
  O   O2        1.0  0.07320  0.97110  0.29087  1.0000
  O   O3        1.0  0.83570  0.06080  0.80940  1.0000
  O   O4        1.0  0.16430  0.93920  0.19060  1.0000
  O   O5        1.0  0.20240  0.69560  0.12800  1.0000
  O   O6        1.0  0.79760  0.30440  0.87200  1.0000
  O   O7        1.0  0.08210  0.75340  0.16426  1.0000
  O   O8        1.0  0.91790  0.24660  0.83574  1.0000
  O   O9        1.0  0.07660  0.96460  0.46170  1.0000
  O   O10       1.0  0.92340  0.03540  0.53830  1.0000
  O   O11       1.0  0.17500  0.96250  0.56000  1.0000
  O   O12       1.0  0.82500  0.03750  0.44000  1.0000
  O   O13       1.0  0.03550  0.01430  0.84500  1.0000
  O   O14       1.0  0.96450  0.98570  0.15500  1.0000
  O   O15       1.0  0.09720  0.98030  0.72210  1.0000
  O   O16       1.0  0.90280  0.01970  0.27790  1.0000
  O   O17       1.0  0.07410  0.85070  0.02388  1.0000
  O   O18       1.0  0.92590  0.14930  0.97612  1.0000
  O   O19       1.0  0.12130  0.72400  0.97490  1.0000
  O   O20       1.0  0.87870  0.27600  0.02510  1.0000
  O   O21       1.0  0.99830  0.43950  0.11590  1.0000
  O   O22       1.0  0.00170  0.56050  0.88410  1.0000
  O   O23       1.0  0.06670  0.57540  0.14220  1.0000
  O   O24       1.0  0.93330  0.42460  0.85780  1.0000
  O   O25       1.0  0.86340  0.81580  0.07150  1.0000
  O   O26       1.0  0.13660  0.18420  0.92850  1.0000
  O   O27       1.0  0.94740  0.71460  0.03460  1.0000
  O   O28       1.0  0.05260  0.28540  0.96540  1.0000
  O   O29       1.0  0.19240  0.13110  0.68990  1.0000
  O   O30       1.0  0.80760  0.86890  0.31010  1.0000
  O   O31       1.0  0.07000  0.16440  0.74877  1.0000
  O   O32       1.0  0.93000  0.83560  0.25123  1.0000
  O   O33       1.0  0.07790  0.46350  0.96650  1.0000
  O   O34       1.0  0.92210  0.53650  0.03350  1.0000
  O   O35       1.0  0.18430  0.56470  0.96040  1.0000
  O   O36       1.0  0.81570  0.43530  0.03960  1.0000
  O   O37       1.0  0.92410  0.84970  0.42660  1.0000
  O   O38       1.0  0.07590  0.15030  0.57340  1.0000
  O   O39       1.0  0.98740  0.88250  0.55970  1.0000
  O   O40       1.0  0.01260  0.11750  0.44030  1.0000
  N   N1        1.0  0.46970  0.87750  0.47890  1.0000
  N   N2        1.0  0.53030  0.12250  0.52110  1.0000
  H   H1        1.0  0.44850  0.91330  0.52240  1.0000
  H   H2        1.0  0.55150  0.08670  0.47760  1.0000
  N   N3        1.0  0.48050  0.78590  0.35320  1.0000
  N   N4        1.0  0.51950  0.21410  0.64680  1.0000
  N   N5        1.0  0.56180  0.80210  0.39950  1.0000
  N   N6        1.0  0.43820  0.19790  0.60050  1.0000
  N   N7        1.0  0.13720  0.54330  0.56210  1.0000
  N   N8        1.0  0.86280  0.45670  0.43790  1.0000
  N   N9        1.0  0.14400  0.59130  0.64850  1.0000
  N   N10       1.0  0.85600  0.40870  0.35150  1.0000
  N   N11       1.0  0.09890  0.66600  0.57650  1.0000
  N   N12       1.0  0.90110  0.33400  0.42350  1.0000
  H   H3        1.0  0.08130  0.70820  0.56450  1.0000
  H   H4        1.0  0.91870  0.29180  0.43550  1.0000
  N   N13       1.0  0.49160  0.35210  0.79890  1.0000
  N   N14       1.0  0.50840  0.64790  0.20110  1.0000
  N   N15       1.0  0.57760  0.39820  0.81690  1.0000
  N   N16       1.0  0.42240  0.60180  0.18310  1.0000
  N   N17       1.0  0.48150  0.48230  0.87950  1.0000
  N   N18       1.0  0.51850  0.51770  0.12050  1.0000
  H   H5        1.0  0.46050  0.52840  0.91020  1.0000
  H   H6        1.0  0.53950  0.47160  0.08980  1.0000
  C   C1        1.0  0.84700  0.02160  0.73320  1.0000
  C   C2        1.0  0.15300  0.97840  0.26680  1.0000
  C   C3        1.0  0.76890  0.97140  0.67010  1.0000
  C   C4        1.0  0.23110  0.02860  0.32990  1.0000
  C   C5        1.0  0.78250  0.91660  0.58980  1.0000
  C   C6        1.0  0.21750  0.08340  0.41020  1.0000
  H   H7        1.0  0.84120  0.90570  0.57820  1.0000
  H   H8        1.0  0.15880  0.09430  0.42180  1.0000
  C   C7        1.0  0.71200  0.87800  0.52680  1.0000
  C   C8        1.0  0.28800  0.12200  0.47320  1.0000
  H   H9        1.0  0.72190  0.84080  0.47220  1.0000
  H   H10       1.0  0.27810  0.15920  0.52780  1.0000
  C   C9        1.0  0.62530  0.89450  0.54450  1.0000
  C   C10       1.0  0.37470  0.10550  0.45550  1.0000
  C   C11       1.0  0.61180  0.94690  0.62540  1.0000
  C   C12       1.0  0.38820  0.05310  0.37460  1.0000
  H   H11       1.0  0.55300  0.95690  0.63800  1.0000
  H   H12       1.0  0.44700  0.04310  0.36200  1.0000
  C   C13       1.0  0.68250  0.98470  0.68750  1.0000
  C   C14       1.0  0.31750  0.01530  0.31250  1.0000
  H   H13       1.0  0.67230  0.02010  0.74280  1.0000
  H   H14       1.0  0.32770  0.97990  0.25720  1.0000
  C   C15       1.0  0.55170  0.85800  0.47540  1.0000
  C   C16       1.0  0.44830  0.14200  0.52460  1.0000
  C   C17       1.0  0.42640  0.83080  0.40190  1.0000
  C   C18       1.0  0.57360  0.16920  0.59810  1.0000
  C   C19       1.0  0.33370  0.83170  0.37700  1.0000
  C   C20       1.0  0.66630  0.16830  0.62300  1.0000
  C   C21       1.0  0.29360  0.78630  0.29420  1.0000
  C   C22       1.0  0.70640  0.21370  0.70580  1.0000
  H   H15       1.0  0.32720  0.75370  0.25240  1.0000
  H   H16       1.0  0.67280  0.24630  0.74760  1.0000
  C   C23       1.0  0.20380  0.78870  0.27250  1.0000
  C   C24       1.0  0.79620  0.21130  0.72750  1.0000
  C   C25       1.0  0.16300  0.74340  0.18340  1.0000
  C   C26       1.0  0.83700  0.25660  0.81660  1.0000
  C   C27       1.0  0.15410  0.83500  0.33480  1.0000
  C   C28       1.0  0.84590  0.16500  0.66520  1.0000
  H   H17       1.0  0.09260  0.83460  0.32090  1.0000
  H   H18       1.0  0.90740  0.16540  0.67910  1.0000
  C   C29       1.0  0.19420  0.88160  0.41680  1.0000
  C   C30       1.0  0.80580  0.11840  0.58320  1.0000
  C   C31       1.0  0.14690  0.93850  0.48310  1.0000
  C   C32       1.0  0.85310  0.06150  0.51690  1.0000
  C   C33       1.0  0.28350  0.87980  0.43760  1.0000
  C   C34       1.0  0.71650  0.12020  0.56240  1.0000
  H   H19       1.0  0.31070  0.91170  0.49380  1.0000
  H   H20       1.0  0.68930  0.08830  0.50620  1.0000
  C   C35       1.0  0.10050  0.79040  0.96620  1.0000
  C   C36       1.0  0.89950  0.20960  0.03380  1.0000
  C   C37       1.0  0.10450  0.79970  0.88170  1.0000
  C   C38       1.0  0.89550  0.20030  0.11830  1.0000
  C   C39       1.0  0.09070  0.87560  0.87420  1.0000
  C   C40       1.0  0.90930  0.12440  0.12580  1.0000
  H   H21       1.0  0.08070  0.92230  0.92260  1.0000
  H   H22       1.0  0.91930  0.07770  0.07740  1.0000
  C   C41       1.0  0.09140  0.88380  0.79530  1.0000
  C   C42       1.0  0.90860  0.11620  0.20470  1.0000
  C   C43       1.0  0.07340  0.96610  0.78720  1.0000
  C   C44       1.0  0.92660  0.03390  0.21280  1.0000
  C   C45       1.0  0.10420  0.81600  0.72420  1.0000
  C   C46       1.0  0.89580  0.18400  0.27580  1.0000
  H   H23       1.0  0.10490  0.82220  0.67080  1.0000
  H   H24       1.0  0.89510  0.17780  0.32920  1.0000
  C   C47       1.0  0.11630  0.73720  0.73130  1.0000
  C   C48       1.0  0.88370  0.26280  0.26870  1.0000
  C   C49       1.0  0.11720  0.72970  0.81020  1.0000
  C   C50       1.0  0.88280  0.27030  0.18980  1.0000
  H   H25       1.0  0.12640  0.67730  0.81570  1.0000
  H   H26       1.0  0.87360  0.32270  0.18430  1.0000
  C   C51       1.0  0.12140  0.66510  0.65360  1.0000
  C   C52       1.0  0.87860  0.33490  0.34640  1.0000
  C   C53       1.0  0.10920  0.58860  0.52180  1.0000
  C   C54       1.0  0.89080  0.41140  0.47820  1.0000
  C   C55       1.0  0.09160  0.56750  0.42940  1.0000
  C   C56       1.0  0.90840  0.43250  0.57060  1.0000
  C   C57       1.0  0.07740  0.48150  0.37130  1.0000
  C   C58       1.0  0.92260  0.51850  0.62870  1.0000
  H   H27       1.0  0.08000  0.43600  0.39150  1.0000
  H   H28       1.0  0.92000  0.56400  0.60850  1.0000
  C   C59       1.0  0.05970  0.46260  0.28590  1.0000
  C   C60       1.0  0.94030  0.53740  0.71410  1.0000
  H   H29       1.0  0.05040  0.40450  0.24730  1.0000
  H   H30       1.0  0.94960  0.59550  0.75270  1.0000
  C   C61       1.0  0.05550  0.52890  0.25640  1.0000
  C   C62       1.0  0.94450  0.47110  0.74360  1.0000
  C   C63       1.0  0.03820  0.51360  0.16510  1.0000
  C   C64       1.0  0.96180  0.48640  0.83490  1.0000
  C   C65       1.0  0.07210  0.61450  0.31350  1.0000
  C   C66       1.0  0.92790  0.38550  0.68650  1.0000
  H   H31       1.0  0.07180  0.66000  0.29290  1.0000
  H   H32       1.0  0.92820  0.34000  0.70710  1.0000
  C   C67       1.0  0.08880  0.63350  0.39980  1.0000
  C   C68       1.0  0.91120  0.36650  0.60020  1.0000
  H   H33       1.0  0.09820  0.69170  0.43840  1.0000
  H   H34       1.0  0.90180  0.30830  0.56160  1.0000
  C   C69       1.0  0.87120  0.73930  0.02970  1.0000
  C   C70       1.0  0.12880  0.26070  0.97030  1.0000
  C   C71       1.0  0.79220  0.67670  0.97850  1.0000
  C   C72       1.0  0.20780  0.32330  0.02150  1.0000
  C   C73       1.0  0.80320  0.59590  0.92130  1.0000
  C   C74       1.0  0.19680  0.40410  0.07870  1.0000
  H   H35       1.0  0.86190  0.58490  0.90940  1.0000
  H   H36       1.0  0.13810  0.41510  0.09060  1.0000
  C   C75       1.0  0.72930  0.53150  0.88180  1.0000
  C   C76       1.0  0.27070  0.46850  0.11820  1.0000
  H   H37       1.0  0.73740  0.47710  0.84280  1.0000
  H   H38       1.0  0.26260  0.52290  0.15720  1.0000
  C   C77       1.0  0.64370  0.54720  0.89970  1.0000
  C   C78       1.0  0.35630  0.45280  0.10030  1.0000
  C   C79       1.0  0.63250  0.62940  0.95440  1.0000
  C   C80       1.0  0.36750  0.37060  0.04560  1.0000
  H   H39       1.0  0.57390  0.64140  0.96460  1.0000
  H   H40       1.0  0.42610  0.35860  0.03540  1.0000
  C   C81       1.0  0.70620  0.69270  0.99320  1.0000
  C   C82       1.0  0.29380  0.30730  0.00680  1.0000
  H   H41       1.0  0.69800  0.74790  0.03040  1.0000
  H   H42       1.0  0.30200  0.25210  0.96960  1.0000
  C   C83       1.0  0.56740  0.47610  0.86420  1.0000
  C   C84       1.0  0.43260  0.52390  0.13580  1.0000
  C   C85       1.0  0.43590  0.40350  0.83780  1.0000
  C   C86       1.0  0.56410  0.59650  0.16220  1.0000
  C   C87       1.0  0.33870  0.37780  0.83540  1.0000
  C   C88       1.0  0.66130  0.62220  0.16460  1.0000
  C   C89       1.0  0.29460  0.29590  0.78830  1.0000
  C   C90       1.0  0.70540  0.70410  0.21170  1.0000
  H   H43       1.0  0.32690  0.25360  0.75560  1.0000
  H   H44       1.0  0.67310  0.74640  0.24440  1.0000
  C   C91       1.0  0.20110  0.27480  0.78870  1.0000
  C   C92       1.0  0.79890  0.72520  0.21130  1.0000
  C   C93       1.0  0.15350  0.18470  0.73920  1.0000
  C   C94       1.0  0.84650  0.81530  0.26080  1.0000
  C   C95       1.0  0.15420  0.33700  0.83500  1.0000
  C   C96       1.0  0.84580  0.66300  0.16500  1.0000
  H   H45       1.0  0.09090  0.32320  0.83330  1.0000
  H   H46       1.0  0.90910  0.67680  0.16670  1.0000
  C   C97       1.0  0.19850  0.41960  0.88400  1.0000
  C   C98       1.0  0.80150  0.58040  0.11600  1.0000
  C   C99       1.0  0.15180  0.48660  0.93940  1.0000
  C   C100      1.0  0.84820  0.51340  0.06060  1.0000
  C   C101      1.0  0.29080  0.43950  0.88320  1.0000
  C   C102      1.0  0.70920  0.56050  0.11680  1.0000
  H   H47       1.0  0.32160  0.49610  0.91580  1.0000
  H   H48       1.0  0.67840  0.50390  0.08420  1.0000
  C   C103      1.0  0.95170  0.83020  0.48750  1.0000
  C   C104      1.0  0.04830  0.16980  0.51250  1.0000
  H   H49       1.0  0.94490  0.77050  0.47820  1.0000
  H   H50       1.0  0.05510  0.22950  0.52180  1.0000
