data_image0
_chemical_formula_structural       Zn28N208H16C8H8C16H8C8H8C8H8N16H16C8H8C16H8C8H8C8H8
_chemical_formula_sum              "Zn28 N224 H96 C80"
_cell_length_a       19.751
_cell_length_b       26.9814
_cell_length_c       13.6877
_cell_angle_alpha    90
_cell_angle_beta     117.143
_cell_angle_gamma    90

_space_group_name_H-M_alt    "P 1"
_space_group_IT_number       1

loop_
  _space_group_symop_operation_xyz
  'x, y, z'

loop_
  _atom_site_type_symbol
  _atom_site_label
  _atom_site_symmetry_multiplicity
  _atom_site_fract_x
  _atom_site_fract_y
  _atom_site_fract_z
  _atom_site_occupancy
  Zn  Zn1       1.0  0.67051  0.71642  0.94521  1.0000
  Zn  Zn2       1.0  0.32949  0.71642  0.55479  1.0000
  Zn  Zn3       1.0  0.17050  0.21642  0.94521  1.0000
  Zn  Zn4       1.0  0.82949  0.21642  0.55479  1.0000
  Zn  Zn5       1.0  0.32949  0.28358  0.05479  1.0000
  Zn  Zn6       1.0  0.67050  0.28358  0.44521  1.0000
  Zn  Zn7       1.0  0.82949  0.78358  0.05479  1.0000
  Zn  Zn8       1.0  0.17050  0.78358  0.44521  1.0000
  Zn  Zn9       1.0  0.80135  0.69226  0.20158  1.0000
  Zn  Zn10      1.0  0.19865  0.69226  0.29842  1.0000
  Zn  Zn11      1.0  0.30135  0.19226  0.20158  1.0000
  Zn  Zn12      1.0  0.69865  0.19226  0.29842  1.0000
  Zn  Zn13      1.0  0.19865  0.30774  0.79842  1.0000
  Zn  Zn14      1.0  0.80135  0.30774  0.70158  1.0000
  Zn  Zn15      1.0  0.69865  0.80774  0.79842  1.0000
  Zn  Zn16      1.0  0.30135  0.80774  0.70158  1.0000
  Zn  Zn17      1.0  0.69881  0.58577  0.02799  1.0000
  Zn  Zn18      1.0  0.30119  0.58577  0.47201  1.0000
  Zn  Zn19      1.0  0.19881  0.08577  0.02799  1.0000
  Zn  Zn20      1.0  0.80119  0.08577  0.47201  1.0000
  Zn  Zn21      1.0  0.30119  0.41423  0.97201  1.0000
  Zn  Zn22      1.0  0.69881  0.41423  0.52799  1.0000
  Zn  Zn23      1.0  0.80119  0.91423  0.97201  1.0000
  Zn  Zn24      1.0  0.19881  0.91423  0.52799  1.0000
  Zn  Zn25      1.0  1.00000  0.72226  0.25000  1.0000
  Zn  Zn26      1.0  0.50000  0.22226  0.25000  1.0000
  Zn  Zn27      1.0  0.00000  0.27774  0.75000  1.0000
  Zn  Zn28      1.0  0.50000  0.77774  0.75000  1.0000
  N   N1        1.0  0.79452  0.70421  0.03675  1.0000
  N   N2        1.0  0.20548  0.70421  0.46325  1.0000
  N   N3        1.0  0.29452  0.20421  0.03675  1.0000
  N   N4        1.0  0.70548  0.20421  0.46325  1.0000
  N   N5        1.0  0.20548  0.29579  0.96325  1.0000
  N   N6        1.0  0.79452  0.29579  0.53675  1.0000
  N   N7        1.0  0.70548  0.79579  0.96325  1.0000
  N   N8        1.0  0.29452  0.79579  0.53675  1.0000
  N   N9        1.0  0.82600  0.67135  0.01058  1.0000
  N   N10       1.0  0.17400  0.67135  0.48942  1.0000
  N   N11       1.0  0.32600  0.17135  0.01058  1.0000
  N   N12       1.0  0.67400  0.17135  0.48942  1.0000
  N   N13       1.0  0.17400  0.32865  0.98942  1.0000
  N   N14       1.0  0.82600  0.32865  0.51058  1.0000
  N   N15       1.0  0.67400  0.82865  0.98942  1.0000
  N   N16       1.0  0.32600  0.82865  0.51058  1.0000
  N   N17       1.0  0.85499  0.63978  0.98847  1.0000
  N   N18       1.0  0.14501  0.63978  0.51153  1.0000
  N   N19       1.0  0.35499  0.13978  0.98847  1.0000
  N   N20       1.0  0.64501  0.13978  0.51153  1.0000
  N   N21       1.0  0.14501  0.36022  0.01153  1.0000
  N   N22       1.0  0.85499  0.36022  0.48847  1.0000
  N   N23       1.0  0.64501  0.86022  0.01153  1.0000
  N   N24       1.0  0.35499  0.86022  0.48847  1.0000
  N   N25       1.0  0.66824  0.72873  0.78825  1.0000
  N   N26       1.0  0.33176  0.72873  0.71175  1.0000
  N   N27       1.0  0.16824  0.22873  0.78825  1.0000
  N   N28       1.0  0.83176  0.22873  0.71175  1.0000
  N   N29       1.0  0.33176  0.27127  0.21175  1.0000
  N   N30       1.0  0.66824  0.27127  0.28825  1.0000
  N   N31       1.0  0.83176  0.77127  0.21175  1.0000
  N   N32       1.0  0.16824  0.77127  0.28825  1.0000
  N   N33       1.0  0.68851  0.69715  0.74435  1.0000
  N   N34       1.0  0.31149  0.69715  0.75565  1.0000
  N   N35       1.0  0.18851  0.19715  0.74435  1.0000
  N   N36       1.0  0.81149  0.19715  0.75565  1.0000
  N   N37       1.0  0.31149  0.30285  0.25565  1.0000
  N   N38       1.0  0.68851  0.30285  0.24435  1.0000
  N   N39       1.0  0.81149  0.80285  0.25565  1.0000
  N   N40       1.0  0.18851  0.80285  0.24435  1.0000
  N   N41       1.0  0.70554  0.66697  0.70022  1.0000
  N   N42       1.0  0.29446  0.66697  0.79978  1.0000
  N   N43       1.0  0.20554  0.16697  0.70022  1.0000
  N   N44       1.0  0.79446  0.16697  0.79978  1.0000
  N   N45       1.0  0.29446  0.33303  0.29978  1.0000
  N   N46       1.0  0.70554  0.33303  0.20022  1.0000
  N   N47       1.0  0.79446  0.83303  0.29978  1.0000
  N   N48       1.0  0.20554  0.83303  0.20022  1.0000
  N   N49       1.0  0.68157  0.70834  0.10717  1.0000
  N   N50       1.0  0.31843  0.70834  0.39283  1.0000
  N   N51       1.0  0.18157  0.20834  0.10717  1.0000
  N   N52       1.0  0.81843  0.20834  0.39283  1.0000
  N   N53       1.0  0.31843  0.29166  0.89283  1.0000
  N   N54       1.0  0.68157  0.29166  0.60717  1.0000
  N   N55       1.0  0.81843  0.79166  0.89283  1.0000
  N   N56       1.0  0.18157  0.79166  0.60717  1.0000
  N   N57       1.0  0.64899  0.73571  0.14194  1.0000
  N   N58       1.0  0.35101  0.73571  0.35806  1.0000
  N   N59       1.0  0.14899  0.23571  0.14194  1.0000
  N   N60       1.0  0.85101  0.23571  0.35806  1.0000
  N   N61       1.0  0.35101  0.26429  0.85806  1.0000
  N   N62       1.0  0.64899  0.26429  0.64194  1.0000
  N   N63       1.0  0.85101  0.76429  0.85806  1.0000
  N   N64       1.0  0.14899  0.76429  0.64194  1.0000
  N   N65       1.0  0.61684  0.76125  0.17403  1.0000
  N   N66       1.0  0.38316  0.76125  0.32597  1.0000
  N   N67       1.0  0.11684  0.26125  0.17403  1.0000
  N   N68       1.0  0.88316  0.26125  0.32597  1.0000
  N   N69       1.0  0.38316  0.23875  0.82597  1.0000
  N   N70       1.0  0.61684  0.23875  0.67403  1.0000
  N   N71       1.0  0.88316  0.73875  0.82597  1.0000
  N   N72       1.0  0.11684  0.73875  0.67403  1.0000
  N   N73       1.0  0.65236  0.63869  0.91510  1.0000
  N   N74       1.0  0.34764  0.63869  0.58490  1.0000
  N   N75       1.0  0.15236  0.13869  0.91510  1.0000
  N   N76       1.0  0.84764  0.13869  0.58490  1.0000
  N   N77       1.0  0.34764  0.36131  0.08490  1.0000
  N   N78       1.0  0.65236  0.36131  0.41510  1.0000
  N   N79       1.0  0.84764  0.86131  0.08490  1.0000
  N   N80       1.0  0.15236  0.86131  0.41510  1.0000
  N   N81       1.0  0.60992  0.62641  0.82021  1.0000
  N   N82       1.0  0.39008  0.62641  0.67979  1.0000
  N   N83       1.0  0.10992  0.12641  0.82021  1.0000
  N   N84       1.0  0.89008  0.12641  0.67979  1.0000
  N   N85       1.0  0.39008  0.37359  0.17979  1.0000
  N   N86       1.0  0.60992  0.37359  0.32021  1.0000
  N   N87       1.0  0.89008  0.87359  0.17979  1.0000
  N   N88       1.0  0.10992  0.87359  0.32021  1.0000
  N   N89       1.0  0.57040  0.61652  0.73119  1.0000
  N   N90       1.0  0.42960  0.61652  0.76881  1.0000
  N   N91       1.0  0.07040  0.11652  0.73119  1.0000
  N   N92       1.0  0.92960  0.11652  0.76881  1.0000
  N   N93       1.0  0.42960  0.38348  0.26881  1.0000
  N   N94       1.0  0.57040  0.38348  0.23119  1.0000
  N   N95       1.0  0.92960  0.88348  0.26881  1.0000
  N   N96       1.0  0.07040  0.88348  0.23119  1.0000
  N   N97       1.0  0.77912  0.61259  0.17054  1.0000
  N   N98       1.0  0.22088  0.61259  0.32946  1.0000
  N   N99       1.0  0.27912  0.11259  0.17054  1.0000
  N   N100      1.0  0.72088  0.11259  0.32946  1.0000
  N   N101      1.0  0.22088  0.38741  0.82946  1.0000
  N   N102      1.0  0.77912  0.38741  0.67054  1.0000
  N   N103      1.0  0.72088  0.88741  0.82946  1.0000
  N   N104      1.0  0.27912  0.88741  0.67054  1.0000
  N   N105      1.0  0.79575  0.58435  0.24879  1.0000
  N   N106      1.0  0.20425  0.58435  0.25121  1.0000
  N   N107      1.0  0.29575  0.08435  0.24879  1.0000
  N   N108      1.0  0.70425  0.08435  0.25121  1.0000
  N   N109      1.0  0.20425  0.41565  0.75121  1.0000
  N   N110      1.0  0.79575  0.41565  0.74879  1.0000
  N   N111      1.0  0.70425  0.91565  0.75121  1.0000
  N   N112      1.0  0.29575  0.91565  0.74879  1.0000
  N   N113      1.0  0.81181  0.55865  0.32250  1.0000
  N   N114      1.0  0.18819  0.55865  0.17750  1.0000
  N   N115      1.0  0.31181  0.05865  0.32250  1.0000
  N   N116      1.0  0.68819  0.05865  0.17750  1.0000
  N   N117      1.0  0.18819  0.44135  0.67750  1.0000
  N   N118      1.0  0.81181  0.44135  0.82250  1.0000
  N   N119      1.0  0.68819  0.94135  0.67750  1.0000
  N   N120      1.0  0.31181  0.94135  0.82250  1.0000
  N   N121      1.0  0.92372  0.67848  0.26704  1.0000
  N   N122      1.0  0.07628  0.67848  0.23296  1.0000
  N   N123      1.0  0.42372  0.17848  0.26704  1.0000
  N   N124      1.0  0.57628  0.17848  0.23296  1.0000
  N   N125      1.0  0.07628  0.32152  0.73296  1.0000
  N   N126      1.0  0.92372  0.32152  0.76704  1.0000
  N   N127      1.0  0.57628  0.82152  0.73296  1.0000
  N   N128      1.0  0.42372  0.82152  0.76704  1.0000
  N   N129      1.0  0.94772  0.63877  0.31161  1.0000
  N   N130      1.0  0.05228  0.63877  0.18839  1.0000
  N   N131      1.0  0.44772  0.13877  0.31161  1.0000
  N   N132      1.0  0.55228  0.13877  0.18839  1.0000
  N   N133      1.0  0.05228  0.36123  0.68839  1.0000
  N   N134      1.0  0.94772  0.36123  0.81161  1.0000
  N   N135      1.0  0.55228  0.86123  0.68839  1.0000
  N   N136      1.0  0.44772  0.86123  0.81161  1.0000
  N   N137      1.0  0.96886  0.60154  0.35330  1.0000
  N   N138      1.0  0.03114  0.60154  0.14670  1.0000
  N   N139      1.0  0.46886  0.10154  0.35330  1.0000
  N   N140      1.0  0.53114  0.10154  0.14670  1.0000
  N   N141      1.0  0.03114  0.39846  0.64670  1.0000
  N   N142      1.0  0.96886  0.39846  0.85330  1.0000
  N   N143      1.0  0.53114  0.89846  0.64670  1.0000
  N   N144      1.0  0.46886  0.89846  0.85330  1.0000
  N   N145      1.0  0.94632  0.76440  0.11736  1.0000
  N   N146      1.0  0.05368  0.76440  0.38264  1.0000
  N   N147      1.0  0.44632  0.26440  0.11736  1.0000
  N   N148      1.0  0.55368  0.26440  0.38264  1.0000
  N   N149      1.0  0.05368  0.23560  0.88264  1.0000
  N   N150      1.0  0.94632  0.23560  0.61736  1.0000
  N   N151      1.0  0.55368  0.73560  0.88264  1.0000
  N   N152      1.0  0.44632  0.73560  0.61736  1.0000
  N   N153      1.0  0.98251  0.78256  0.07450  1.0000
  N   N154      1.0  0.01749  0.78256  0.42550  1.0000
  N   N155      1.0  0.48251  0.28256  0.07450  1.0000
  N   N156      1.0  0.51749  0.28256  0.42550  1.0000
  N   N157      1.0  0.01749  0.21744  0.92550  1.0000
  N   N158      1.0  0.98251  0.21744  0.57450  1.0000
  N   N159      1.0  0.51749  0.71744  0.92550  1.0000
  N   N160      1.0  0.48251  0.71744  0.57450  1.0000
  N   N161      1.0  0.01495  0.79986  0.03167  1.0000
  N   N162      1.0  0.98505  0.79986  0.46833  1.0000
  N   N163      1.0  0.51495  0.29986  0.03167  1.0000
  N   N164      1.0  0.48505  0.29986  0.46833  1.0000
  N   N165      1.0  0.98505  0.20014  0.96833  1.0000
  N   N166      1.0  0.01495  0.20014  0.53167  1.0000
  N   N167      1.0  0.48505  0.70014  0.96833  1.0000
  N   N168      1.0  0.51495  0.70014  0.53167  1.0000
  N   N169      1.0  0.73635  0.53260  0.96340  1.0000
  N   N170      1.0  0.26365  0.53260  0.53660  1.0000
  N   N171      1.0  0.23635  0.03260  0.96340  1.0000
  N   N172      1.0  0.76365  0.03260  0.53660  1.0000
  N   N173      1.0  0.26365  0.46740  0.03660  1.0000
  N   N174      1.0  0.73635  0.46740  0.46340  1.0000
  N   N175      1.0  0.76365  0.96740  0.03660  1.0000
  N   N176      1.0  0.23635  0.96740  0.46340  1.0000
  N   N177      1.0  0.71688  0.49034  0.95836  1.0000
  N   N178      1.0  0.28312  0.49034  0.54164  1.0000
  N   N179      1.0  0.21688  0.99034  0.95836  1.0000
  N   N180      1.0  0.78312  0.99034  0.54164  1.0000
  N   N181      1.0  0.28312  0.50966  0.04164  1.0000
  N   N182      1.0  0.71688  0.50966  0.45836  1.0000
  N   N183      1.0  0.78312  0.00966  0.04164  1.0000
  N   N184      1.0  0.21688  0.00966  0.45836  1.0000
  N   N185      1.0  0.69950  0.44962  0.94990  1.0000
  N   N186      1.0  0.30050  0.44962  0.55010  1.0000
  N   N187      1.0  0.19950  0.94962  0.94990  1.0000
  N   N188      1.0  0.80050  0.94962  0.55010  1.0000
  N   N189      1.0  0.30050  0.55038  0.05010  1.0000
  N   N190      1.0  0.69950  0.55038  0.44990  1.0000
  N   N191      1.0  0.80050  0.05038  0.05010  1.0000
  N   N192      1.0  0.19950  0.05038  0.44990  1.0000
  N   N193      1.0  0.79877  0.69112  0.35221  1.0000
  N   N194      1.0  0.20123  0.69112  0.14779  1.0000
  N   N195      1.0  0.29877  0.19112  0.35221  1.0000
  N   N196      1.0  0.70123  0.19112  0.14779  1.0000
  N   N197      1.0  0.20123  0.30888  0.64779  1.0000
  N   N198      1.0  0.79877  0.30888  0.85221  1.0000
  N   N199      1.0  0.70123  0.80888  0.64779  1.0000
  N   N200      1.0  0.29877  0.80888  0.85221  1.0000
  N   N201      1.0  0.91887  0.74106  0.62483  1.0000
  N   N202      1.0  0.08113  0.74106  0.87517  1.0000
  N   N203      1.0  0.41887  0.24106  0.62483  1.0000
  N   N204      1.0  0.58113  0.24106  0.87517  1.0000
  N   N205      1.0  0.08113  0.25894  0.37517  1.0000
  N   N206      1.0  0.91887  0.25894  0.12483  1.0000
  N   N207      1.0  0.58113  0.75894  0.37517  1.0000
  N   N208      1.0  0.41887  0.75894  0.12483  1.0000
  H   H1        1.0  0.95110  0.75790  0.60800  1.0000
  H   H2        1.0  0.04890  0.75790  0.89200  1.0000
  H   H3        1.0  0.45110  0.25790  0.60800  1.0000
  H   H4        1.0  0.54890  0.25790  0.89200  1.0000
  H   H5        1.0  0.04890  0.24210  0.39200  1.0000
  H   H6        1.0  0.95110  0.24210  0.10800  1.0000
  H   H7        1.0  0.54890  0.74210  0.39200  1.0000
  H   H8        1.0  0.45110  0.74210  0.10800  1.0000
  H   H9        1.0  0.91550  0.74730  0.68700  1.0000
  H   H10       1.0  0.08450  0.74730  0.81300  1.0000
  H   H11       1.0  0.41550  0.24730  0.68700  1.0000
  H   H12       1.0  0.58450  0.24730  0.81300  1.0000
  H   H13       1.0  0.08450  0.25270  0.31300  1.0000
  H   H14       1.0  0.91550  0.25270  0.18700  1.0000
  H   H15       1.0  0.58450  0.75270  0.31300  1.0000
  H   H16       1.0  0.41550  0.75270  0.18700  1.0000
  C   C1        1.0  0.85494  0.71428  0.43697  1.0000
  C   C2        1.0  0.14506  0.71428  0.06303  1.0000
  C   C3        1.0  0.35494  0.21428  0.43697  1.0000
  C   C4        1.0  0.64506  0.21428  0.06303  1.0000
  C   C5        1.0  0.14506  0.28572  0.56303  1.0000
  C   C6        1.0  0.85494  0.28572  0.93697  1.0000
  C   C7        1.0  0.64506  0.78572  0.56303  1.0000
  C   C8        1.0  0.35494  0.78572  0.93697  1.0000
  H   H17       1.0  0.89480  0.72880  0.42610  1.0000
  H   H18       1.0  0.10520  0.72880  0.07390  1.0000
  H   H19       1.0  0.39480  0.22880  0.42610  1.0000
  H   H20       1.0  0.60520  0.22880  0.07390  1.0000
  H   H21       1.0  0.10520  0.27120  0.57390  1.0000
  H   H22       1.0  0.89480  0.27120  0.92610  1.0000
  H   H23       1.0  0.60520  0.77120  0.57390  1.0000
  H   H24       1.0  0.39480  0.77120  0.92610  1.0000
  C   C9        1.0  0.85787  0.71810  0.54043  1.0000
  C   C10       1.0  0.14213  0.71810  0.95957  1.0000
  C   C11       1.0  0.35787  0.21810  0.54043  1.0000
  C   C12       1.0  0.64213  0.21810  0.95957  1.0000
  C   C13       1.0  0.14213  0.28190  0.45957  1.0000
  C   C14       1.0  0.85787  0.28190  0.04043  1.0000
  C   C15       1.0  0.64213  0.78190  0.45957  1.0000
  C   C16       1.0  0.35787  0.78190  0.04043  1.0000
  C   C17       1.0  0.74106  0.67229  0.46730  1.0000
  C   C18       1.0  0.25894  0.67229  0.03270  1.0000
  C   C19       1.0  0.24106  0.17229  0.46730  1.0000
  C   C20       1.0  0.75894  0.17229  0.03270  1.0000
  C   C21       1.0  0.25894  0.32771  0.53270  1.0000
  C   C22       1.0  0.74106  0.32771  0.96730  1.0000
  C   C23       1.0  0.75894  0.82771  0.53270  1.0000
  C   C24       1.0  0.24106  0.82771  0.96730  1.0000
  H   H25       1.0  0.70070  0.65730  0.47610  1.0000
  H   H26       1.0  0.29930  0.65730  0.02390  1.0000
  H   H27       1.0  0.20070  0.15730  0.47610  1.0000
  H   H28       1.0  0.79930  0.15730  0.02390  1.0000
  H   H29       1.0  0.29930  0.34270  0.52390  1.0000
  H   H30       1.0  0.70070  0.34270  0.97610  1.0000
  H   H31       1.0  0.79930  0.84270  0.52390  1.0000
  H   H32       1.0  0.20070  0.84270  0.97610  1.0000
  C   C25       1.0  0.79877  0.69617  0.55471  1.0000
  C   C26       1.0  0.20123  0.69617  0.94529  1.0000
  C   C27       1.0  0.29877  0.19617  0.55471  1.0000
  C   C28       1.0  0.70123  0.19617  0.94529  1.0000
  C   C29       1.0  0.20123  0.30383  0.44529  1.0000
  C   C30       1.0  0.79877  0.30383  0.05471  1.0000
  C   C31       1.0  0.70123  0.80383  0.44529  1.0000
  C   C32       1.0  0.29877  0.80383  0.05471  1.0000
  H   H33       1.0  0.79840  0.69770  0.62380  1.0000
  H   H34       1.0  0.20160  0.69770  0.87620  1.0000
  H   H35       1.0  0.29840  0.19770  0.62380  1.0000
  H   H36       1.0  0.70160  0.19770  0.87620  1.0000
  H   H37       1.0  0.20160  0.30230  0.37620  1.0000
  H   H38       1.0  0.79840  0.30230  0.12380  1.0000
  H   H39       1.0  0.70160  0.80230  0.37620  1.0000
  H   H40       1.0  0.29840  0.80230  0.12380  1.0000
  C   C33       1.0  0.74186  0.67016  0.36654  1.0000
  C   C34       1.0  0.25814  0.67016  0.13346  1.0000
  C   C35       1.0  0.24186  0.17016  0.36654  1.0000
  C   C36       1.0  0.75814  0.17016  0.13346  1.0000
  C   C37       1.0  0.25814  0.32984  0.63346  1.0000
  C   C38       1.0  0.74186  0.32984  0.86654  1.0000
  C   C39       1.0  0.75814  0.82984  0.63346  1.0000
  C   C40       1.0  0.24186  0.82984  0.86654  1.0000
  H   H41       1.0  0.70180  0.65370  0.30670  1.0000
  H   H42       1.0  0.29820  0.65370  0.19330  1.0000
  H   H43       1.0  0.20180  0.15370  0.30670  1.0000
  H   H44       1.0  0.79820  0.15370  0.19330  1.0000
  H   H45       1.0  0.29820  0.34630  0.69330  1.0000
  H   H46       1.0  0.70180  0.34630  0.80670  1.0000
  H   H47       1.0  0.79820  0.84630  0.69330  1.0000
  H   H48       1.0  0.20180  0.84630  0.80670  1.0000
  N   N209      1.0  0.61619  0.55987  0.06456  1.0000
  N   N210      1.0  0.38381  0.55987  0.43544  1.0000
  N   N211      1.0  0.11619  0.05987  0.06456  1.0000
  N   N212      1.0  0.88381  0.05987  0.43544  1.0000
  N   N213      1.0  0.38381  0.44013  0.93544  1.0000
  N   N214      1.0  0.61619  0.44013  0.56456  1.0000
  N   N215      1.0  0.88381  0.94013  0.93544  1.0000
  N   N216      1.0  0.11619  0.94013  0.56456  1.0000
  N   N217      1.0  0.42716  0.60034  0.01730  1.0000
  N   N218      1.0  0.57284  0.60034  0.48270  1.0000
  N   N219      1.0  0.92716  0.10034  0.01730  1.0000
  N   N220      1.0  0.07284  0.10034  0.48270  1.0000
  N   N221      1.0  0.57284  0.39966  0.98270  1.0000
  N   N222      1.0  0.42716  0.39966  0.51730  1.0000
  N   N223      1.0  0.07284  0.89966  0.98270  1.0000
  N   N224      1.0  0.92716  0.89966  0.51730  1.0000
  H   H49       1.0  0.38380  0.58650  0.01000  1.0000
  H   H50       1.0  0.61620  0.58650  0.49000  1.0000
  H   H51       1.0  0.88380  0.08650  0.01000  1.0000
  H   H52       1.0  0.11620  0.08650  0.49000  1.0000
  H   H53       1.0  0.61620  0.41350  0.99000  1.0000
  H   H54       1.0  0.38380  0.41350  0.51000  1.0000
  H   H55       1.0  0.11620  0.91350  0.99000  1.0000
  H   H56       1.0  0.88380  0.91350  0.51000  1.0000
  H   H57       1.0  0.41930  0.62170  0.96300  1.0000
  H   H58       1.0  0.58070  0.62170  0.53700  1.0000
  H   H59       1.0  0.91930  0.12170  0.96300  1.0000
  H   H60       1.0  0.08070  0.12170  0.53700  1.0000
  H   H61       1.0  0.58070  0.37830  0.03700  1.0000
  H   H62       1.0  0.41930  0.37830  0.46300  1.0000
  H   H63       1.0  0.08070  0.87830  0.03700  1.0000
  H   H64       1.0  0.91930  0.87830  0.46300  1.0000
  C   C41       1.0  0.55070  0.58530  0.02793  1.0000
  C   C42       1.0  0.44930  0.58530  0.47207  1.0000
  C   C43       1.0  0.05070  0.08530  0.02793  1.0000
  C   C44       1.0  0.94930  0.08530  0.47207  1.0000
  C   C45       1.0  0.44930  0.41470  0.97207  1.0000
  C   C46       1.0  0.55070  0.41470  0.52793  1.0000
  C   C47       1.0  0.94930  0.91470  0.97207  1.0000
  C   C48       1.0  0.05070  0.91470  0.52793  1.0000
  H   H65       1.0  0.54360  0.61320  0.98190  1.0000
  H   H66       1.0  0.45640  0.61320  0.51810  1.0000
  H   H67       1.0  0.04360  0.11320  0.98190  1.0000
  H   H68       1.0  0.95640  0.11320  0.51810  1.0000
  H   H69       1.0  0.45640  0.38680  0.01810  1.0000
  H   H70       1.0  0.54360  0.38680  0.48190  1.0000
  H   H71       1.0  0.95640  0.88680  0.01810  1.0000
  H   H72       1.0  0.04360  0.88680  0.48190  1.0000
  C   C49       1.0  0.49259  0.57249  0.05455  1.0000
  C   C50       1.0  0.50741  0.57249  0.44545  1.0000
  C   C51       1.0  0.99259  0.07249  0.05455  1.0000
  C   C52       1.0  0.00741  0.07249  0.44545  1.0000
  C   C53       1.0  0.50741  0.42751  0.94545  1.0000
  C   C54       1.0  0.49259  0.42751  0.55455  1.0000
  C   C55       1.0  0.00741  0.92751  0.94545  1.0000
  C   C56       1.0  0.99259  0.92751  0.55455  1.0000
  C   C57       1.0  0.50508  0.53129  0.12218  1.0000
  C   C58       1.0  0.49492  0.53129  0.37782  1.0000
  C   C59       1.0  0.00508  0.03129  0.12218  1.0000
  C   C60       1.0  0.99492  0.03129  0.37782  1.0000
  C   C61       1.0  0.49492  0.46871  0.87782  1.0000
  C   C62       1.0  0.50508  0.46871  0.62218  1.0000
  C   C63       1.0  0.99492  0.96871  0.87782  1.0000
  C   C64       1.0  0.00508  0.96871  0.62218  1.0000
  H   H73       1.0  0.46720  0.52110  0.14260  1.0000
  H   H74       1.0  0.53280  0.52110  0.35740  1.0000
  H   H75       1.0  0.96720  0.02110  0.14260  1.0000
  H   H76       1.0  0.03280  0.02110  0.35740  1.0000
  H   H77       1.0  0.53280  0.47890  0.85740  1.0000
  H   H78       1.0  0.46720  0.47890  0.64260  1.0000
  H   H79       1.0  0.03280  0.97890  0.85740  1.0000
  H   H80       1.0  0.96720  0.97890  0.64260  1.0000
  C   C65       1.0  0.57208  0.50546  0.15920  1.0000
  C   C66       1.0  0.42792  0.50546  0.34080  1.0000
  C   C67       1.0  0.07208  0.00546  0.15920  1.0000
  C   C68       1.0  0.92792  0.00546  0.34080  1.0000
  C   C69       1.0  0.42792  0.49454  0.84080  1.0000
  C   C70       1.0  0.57208  0.49454  0.65920  1.0000
  C   C71       1.0  0.92792  0.99454  0.84080  1.0000
  C   C72       1.0  0.07208  0.99454  0.65920  1.0000
  H   H81       1.0  0.58060  0.47750  0.20550  1.0000
  H   H82       1.0  0.41940  0.47750  0.29450  1.0000
  H   H83       1.0  0.08060  0.97750  0.20550  1.0000
  H   H84       1.0  0.91940  0.97750  0.29450  1.0000
  H   H85       1.0  0.41940  0.52250  0.79450  1.0000
  H   H86       1.0  0.58060  0.52250  0.70550  1.0000
  H   H87       1.0  0.91940  0.02250  0.79450  1.0000
  H   H88       1.0  0.08060  0.02250  0.70550  1.0000
  C   C73       1.0  0.62736  0.52005  0.12927  1.0000
  C   C74       1.0  0.37264  0.52005  0.37073  1.0000
  C   C75       1.0  0.12736  0.02005  0.12927  1.0000
  C   C76       1.0  0.87264  0.02005  0.37073  1.0000
  C   C77       1.0  0.37264  0.47995  0.87073  1.0000
  C   C78       1.0  0.62736  0.47995  0.62927  1.0000
  C   C79       1.0  0.87264  0.97995  0.87073  1.0000
  C   C80       1.0  0.12736  0.97995  0.62927  1.0000
  H   H89       1.0  0.67340  0.50180  0.15460  1.0000
  H   H90       1.0  0.32660  0.50180  0.34540  1.0000
  H   H91       1.0  0.17340  0.00180  0.15460  1.0000
  H   H92       1.0  0.82660  0.00180  0.34540  1.0000
  H   H93       1.0  0.32660  0.49820  0.84540  1.0000
  H   H94       1.0  0.67340  0.49820  0.65460  1.0000
  H   H95       1.0  0.82660  0.99820  0.84540  1.0000
  H   H96       1.0  0.17340  0.99820  0.65460  1.0000
