data_image0
_chemical_formula_structural       Nd4P8O28H4O4H8C8H12
_chemical_formula_sum              "Nd4 P8 O32 H24 C8"
_cell_length_a       8.649
_cell_length_b       10.323
_cell_length_c       10.738
_cell_angle_alpha    90
_cell_angle_beta     90
_cell_angle_gamma    90

_space_group_name_H-M_alt    "P 1"
_space_group_IT_number       1

loop_
  _space_group_symop_operation_xyz
  'x, y, z'

loop_
  _atom_site_type_symbol
  _atom_site_label
  _atom_site_symmetry_multiplicity
  _atom_site_fract_x
  _atom_site_fract_y
  _atom_site_fract_z
  _atom_site_occupancy
  Nd  Nd1       1.0  0.49291  0.39826  0.61302  1.0000
  Nd  Nd2       1.0  0.00709  0.60174  0.11302  1.0000
  Nd  Nd3       1.0  0.50709  0.89826  0.88698  1.0000
  Nd  Nd4       1.0  0.99291  0.10174  0.38698  1.0000
  P   P1        1.0  0.69350  0.58170  0.86170  1.0000
  P   P2        1.0  0.80650  0.41830  0.36170  1.0000
  P   P3        1.0  0.30650  0.08170  0.63830  1.0000
  P   P4        1.0  0.19350  0.91830  0.13830  1.0000
  P   P5        1.0  0.34260  0.58470  0.89280  1.0000
  P   P6        1.0  0.15740  0.41530  0.39280  1.0000
  P   P7        1.0  0.65740  0.08470  0.60720  1.0000
  P   P8        1.0  0.84260  0.91530  0.10720  1.0000
  O   O1        1.0  0.67580  0.47060  0.76950  1.0000
  O   O2        1.0  0.82420  0.52940  0.26950  1.0000
  O   O3        1.0  0.32420  0.97060  0.73050  1.0000
  O   O4        1.0  0.17580  0.02940  0.23050  1.0000
  O   O5        1.0  0.67120  0.71530  0.80150  1.0000
  O   O6        1.0  0.82880  0.28470  0.30150  1.0000
  O   O7        1.0  0.32880  0.21530  0.69850  1.0000
  O   O8        1.0  0.17120  0.78470  0.19850  1.0000
  O   O9        1.0  0.84190  0.56990  0.93590  1.0000
  O   O10       1.0  0.65810  0.43010  0.43590  1.0000
  O   O11       1.0  0.15810  0.06990  0.56410  1.0000
  O   O12       1.0  0.34190  0.93010  0.06410  1.0000
  O   O13       1.0  0.21760  0.54330  0.98520  1.0000
  O   O14       1.0  0.28240  0.45670  0.48520  1.0000
  O   O15       1.0  0.78240  0.04330  0.51480  1.0000
  O   O16       1.0  0.71760  0.95670  0.01480  1.0000
  O   O17       1.0  0.32580  0.72650  0.85750  1.0000
  O   O18       1.0  0.17420  0.27350  0.35750  1.0000
  O   O19       1.0  0.67420  0.22650  0.64250  1.0000
  O   O20       1.0  0.82580  0.77350  0.14250  1.0000
  O   O21       1.0  0.34390  0.49420  0.78050  1.0000
  O   O22       1.0  0.15610  0.50580  0.28050  1.0000
  O   O23       1.0  0.65610  0.99420  0.71950  1.0000
  O   O24       1.0  0.84390  0.00580  0.21950  1.0000
  O   O25       1.0  0.54330  0.69500  0.04580  1.0000
  O   O26       1.0  0.95670  0.30500  0.54580  1.0000
  O   O27       1.0  0.45670  0.19500  0.45420  1.0000
  O   O28       1.0  0.04330  0.80500  0.95420  1.0000
  H   H1        1.0  0.63150  0.69810  0.07950  1.0000
  H   H2        1.0  0.86850  0.30190  0.57950  1.0000
  H   H3        1.0  0.36850  0.19810  0.42050  1.0000
  H   H4        1.0  0.13150  0.80190  0.92050  1.0000
  O   O29       1.0  0.53270  0.64120  0.58400  1.0000
  O   O30       1.0  0.96730  0.35880  0.08400  1.0000
  O   O31       1.0  0.46730  0.14120  0.91600  1.0000
  O   O32       1.0  0.03270  0.85880  0.41600  1.0000
  H   H5        1.0  0.54010  0.67710  0.65430  1.0000
  H   H6        1.0  0.95990  0.32290  0.15430  1.0000
  H   H7        1.0  0.45990  0.17710  0.84570  1.0000
  H   H8        1.0  0.04010  0.82290  0.34570  1.0000
  H   H9        1.0  0.61500  0.65370  0.54320  1.0000
  H   H10       1.0  0.88500  0.34630  0.04320  1.0000
  H   H11       1.0  0.38500  0.15370  0.95680  1.0000
  H   H12       1.0  0.11500  0.84630  0.45680  1.0000
  C   C1        1.0  0.53160  0.57470  0.97060  1.0000
  C   C2        1.0  0.96840  0.42530  0.47060  1.0000
  C   C3        1.0  0.46840  0.07470  0.52940  1.0000
  C   C4        1.0  0.03160  0.92530  0.02940  1.0000
  C   C5        1.0  0.53920  0.45700  0.05660  1.0000
  C   C6        1.0  0.96080  0.54300  0.55660  1.0000
  C   C7        1.0  0.46080  0.95700  0.44340  1.0000
  C   C8        1.0  0.03920  0.04300  0.94340  1.0000
  H   H13       1.0  0.63870  0.45380  0.09610  1.0000
  H   H14       1.0  0.86130  0.54620  0.59610  1.0000
  H   H15       1.0  0.36130  0.95380  0.40390  1.0000
  H   H16       1.0  0.13870  0.04620  0.90390  1.0000
  H   H17       1.0  0.52360  0.37950  0.00880  1.0000
  H   H18       1.0  0.97640  0.62050  0.50880  1.0000
  H   H19       1.0  0.47640  0.87950  0.49120  1.0000
  H   H20       1.0  0.02360  0.12050  0.99120  1.0000
  H   H21       1.0  0.46010  0.46370  0.11900  1.0000
  H   H22       1.0  0.03990  0.53630  0.61900  1.0000
  H   H23       1.0  0.53990  0.96370  0.38100  1.0000
  H   H24       1.0  0.96010  0.03630  0.88100  1.0000
