data_image0
_chemical_formula_structural       Ce4P8O28H4O4H8C8H12
_chemical_formula_sum              "Ce4 P8 O32 H24 C8"
_cell_length_a       8.6912
_cell_length_b       10.3935
_cell_length_c       10.818
_cell_angle_alpha    90
_cell_angle_beta     90
_cell_angle_gamma    90

_space_group_name_H-M_alt    "P 1"
_space_group_IT_number       1

loop_
  _space_group_symop_operation_xyz
  'x, y, z'

loop_
  _atom_site_type_symbol
  _atom_site_label
  _atom_site_symmetry_multiplicity
  _atom_site_fract_x
  _atom_site_fract_y
  _atom_site_fract_z
  _atom_site_occupancy
  Ce  Ce1       1.0  0.99235  0.60131  0.38733  1.0000
  Ce  Ce2       1.0  0.50765  0.39869  0.88733  1.0000
  Ce  Ce3       1.0  0.00765  0.10131  0.11267  1.0000
  Ce  Ce4       1.0  0.49235  0.89869  0.61267  1.0000
  P   P1        1.0  0.84370  0.41600  0.10661  1.0000
  P   P2        1.0  0.65630  0.58400  0.60661  1.0000
  P   P3        1.0  0.15630  0.91600  0.39339  1.0000
  P   P4        1.0  0.34370  0.08400  0.89339  1.0000
  P   P5        1.0  0.19400  0.41840  0.13898  1.0000
  P   P6        1.0  0.30600  0.58160  0.63898  1.0000
  P   P7        1.0  0.80600  0.91840  0.36102  1.0000
  P   P8        1.0  0.69400  0.08160  0.86102  1.0000
  O   O1        1.0  0.84650  0.50400  0.21910  1.0000
  O   O2        1.0  0.65350  0.49600  0.71910  1.0000
  O   O3        1.0  0.15350  0.00400  0.28090  1.0000
  O   O4        1.0  0.34650  0.99600  0.78090  1.0000
  O   O5        1.0  0.72120  0.45830  0.01530  1.0000
  O   O6        1.0  0.77880  0.54170  0.51530  1.0000
  O   O7        1.0  0.27880  0.95830  0.48470  1.0000
  O   O8        1.0  0.22120  0.04170  0.98470  1.0000
  O   O9        1.0  0.82450  0.27450  0.14100  1.0000
  O   O10       1.0  0.67550  0.72550  0.64100  1.0000
  O   O11       1.0  0.17550  0.77450  0.35900  1.0000
  O   O12       1.0  0.32450  0.22550  0.85900  1.0000
  O   O13       1.0  0.17860  0.52990  0.23040  1.0000
  O   O14       1.0  0.32140  0.47010  0.73040  1.0000
  O   O15       1.0  0.82140  0.02990  0.26960  1.0000
  O   O16       1.0  0.67860  0.97010  0.76960  1.0000
  O   O17       1.0  0.17430  0.28510  0.19920  1.0000
  O   O18       1.0  0.32570  0.71490  0.69920  1.0000
  O   O19       1.0  0.82570  0.78510  0.30080  1.0000
  O   O20       1.0  0.67430  0.21490  0.80080  1.0000
  O   O21       1.0  0.34170  0.42940  0.06490  1.0000
  O   O22       1.0  0.15830  0.57060  0.56490  1.0000
  O   O23       1.0  0.65830  0.92940  0.43510  1.0000
  O   O24       1.0  0.84170  0.07060  0.93510  1.0000
  O   O25       1.0  0.04750  0.30680  0.95540  1.0000
  O   O26       1.0  0.45250  0.69320  0.45540  1.0000
  O   O27       1.0  0.95250  0.80680  0.54460  1.0000
  O   O28       1.0  0.54750  0.19320  0.04460  1.0000
  H   H1        1.0  0.97950  0.30530  0.89890  1.0000
  H   H2        1.0  0.52050  0.69470  0.39890  1.0000
  H   H3        1.0  0.02050  0.80530  0.60110  1.0000
  H   H4        1.0  0.47950  0.19470  0.10110  1.0000
  O   O29       1.0  0.03620  0.35700  0.41720  1.0000
  O   O30       1.0  0.46380  0.64300  0.91720  1.0000
  O   O31       1.0  0.96380  0.85700  0.08280  1.0000
  O   O32       1.0  0.53620  0.14300  0.58280  1.0000
  H   H5        1.0  0.07650  0.32550  0.35230  1.0000
  H   H6        1.0  0.42350  0.67450  0.85230  1.0000
  H   H7        1.0  0.92350  0.82550  0.14770  1.0000
  H   H8        1.0  0.57650  0.17450  0.64770  1.0000
  H   H9        1.0  0.95030  0.31990  0.42920  1.0000
  H   H10       1.0  0.54970  0.68010  0.92920  1.0000
  H   H11       1.0  0.04970  0.81990  0.07080  1.0000
  H   H12       1.0  0.45030  0.18010  0.57080  1.0000
  C   C1        1.0  0.03190  0.42520  0.02960  1.0000
  C   C2        1.0  0.46810  0.57480  0.52960  1.0000
  C   C3        1.0  0.96810  0.92520  0.47040  1.0000
  C   C4        1.0  0.53190  0.07480  0.97040  1.0000
  C   C5        1.0  0.04220  0.54340  0.94590  1.0000
  C   C6        1.0  0.45780  0.45660  0.44590  1.0000
  C   C7        1.0  0.95780  0.04340  0.55410  1.0000
  C   C8        1.0  0.54220  0.95660  0.05410  1.0000
  H   H13       1.0  0.95620  0.54430  0.89020  1.0000
  H   H14       1.0  0.54380  0.45570  0.39020  1.0000
  H   H15       1.0  0.04380  0.04430  0.60980  1.0000
  H   H16       1.0  0.45620  0.95570  0.10980  1.0000
  H   H17       1.0  0.13620  0.54030  0.89930  1.0000
  H   H18       1.0  0.36380  0.45970  0.39930  1.0000
  H   H19       1.0  0.86380  0.04030  0.60070  1.0000
  H   H20       1.0  0.63620  0.95970  0.10070  1.0000
  H   H21       1.0  0.04070  0.62000  0.99560  1.0000
  H   H22       1.0  0.45930  0.38000  0.49560  1.0000
  H   H23       1.0  0.95930  0.12000  0.50440  1.0000
  H   H24       1.0  0.54070  0.88000  0.00440  1.0000
