data_image0
_chemical_formula_structural       Pr4P8O28H4O4H8C8H12
_chemical_formula_sum              "Pr4 P8 O32 H24 C8"
_cell_length_a       8.6544
_cell_length_b       10.3809
_cell_length_c       10.7646
_cell_angle_alpha    90
_cell_angle_beta     90
_cell_angle_gamma    90

_space_group_name_H-M_alt    "P 1"
_space_group_IT_number       1

loop_
  _space_group_symop_operation_xyz
  'x, y, z'

loop_
  _atom_site_type_symbol
  _atom_site_label
  _atom_site_symmetry_multiplicity
  _atom_site_fract_x
  _atom_site_fract_y
  _atom_site_fract_z
  _atom_site_occupancy
  Pr  Pr1       1.0  0.49280  0.39847  0.61346  1.0000
  Pr  Pr2       1.0  0.00720  0.60153  0.11346  1.0000
  Pr  Pr3       1.0  0.50720  0.89847  0.88654  1.0000
  Pr  Pr4       1.0  0.99280  0.10153  0.38654  1.0000
  P   P1        1.0  0.69340  0.58160  0.86180  1.0000
  P   P2        1.0  0.80660  0.41840  0.36180  1.0000
  P   P3        1.0  0.30660  0.08160  0.63820  1.0000
  P   P4        1.0  0.19340  0.91840  0.13820  1.0000
  P   P5        1.0  0.34240  0.58570  0.89250  1.0000
  P   P6        1.0  0.15760  0.41430  0.39250  1.0000
  P   P7        1.0  0.65760  0.08570  0.60750  1.0000
  P   P8        1.0  0.84240  0.91430  0.10750  1.0000
  O   O1        1.0  0.67720  0.47210  0.76930  1.0000
  O   O2        1.0  0.82280  0.52790  0.26930  1.0000
  O   O3        1.0  0.32280  0.97210  0.73070  1.0000
  O   O4        1.0  0.17720  0.02790  0.23070  1.0000
  O   O5        1.0  0.67090  0.71530  0.80260  1.0000
  O   O6        1.0  0.82910  0.28470  0.30260  1.0000
  O   O7        1.0  0.32910  0.21530  0.69740  1.0000
  O   O8        1.0  0.17090  0.78470  0.19740  1.0000
  O   O9        1.0  0.84160  0.57080  0.93650  1.0000
  O   O10       1.0  0.65840  0.42920  0.43650  1.0000
  O   O11       1.0  0.15840  0.07080  0.56350  1.0000
  O   O12       1.0  0.34160  0.92920  0.06350  1.0000
  O   O13       1.0  0.21950  0.54480  0.98440  1.0000
  O   O14       1.0  0.28050  0.45520  0.48440  1.0000
  O   O15       1.0  0.78050  0.04480  0.51560  1.0000
  O   O16       1.0  0.71950  0.95520  0.01560  1.0000
  O   O17       1.0  0.32490  0.72560  0.85680  1.0000
  O   O18       1.0  0.17510  0.27440  0.35680  1.0000
  O   O19       1.0  0.67510  0.22560  0.64320  1.0000
  O   O20       1.0  0.82490  0.77440  0.14320  1.0000
  O   O21       1.0  0.34540  0.49710  0.77920  1.0000
  O   O22       1.0  0.15460  0.50290  0.27920  1.0000
  O   O23       1.0  0.65460  0.99710  0.72080  1.0000
  O   O24       1.0  0.84540  0.00290  0.22080  1.0000
  O   O25       1.0  0.54280  0.69510  0.04500  1.0000
  O   O26       1.0  0.95720  0.30490  0.54500  1.0000
  O   O27       1.0  0.45720  0.19510  0.45500  1.0000
  O   O28       1.0  0.04280  0.80490  0.95500  1.0000
  H   H1        1.0  0.63100  0.69820  0.07870  1.0000
  H   H2        1.0  0.86900  0.30180  0.57870  1.0000
  H   H3        1.0  0.36900  0.19820  0.42130  1.0000
  H   H4        1.0  0.13100  0.80180  0.92130  1.0000
  O   O29       1.0  0.53310  0.64340  0.58330  1.0000
  O   O30       1.0  0.96690  0.35660  0.08330  1.0000
  O   O31       1.0  0.46690  0.14340  0.91670  1.0000
  O   O32       1.0  0.03310  0.85660  0.41670  1.0000
  H   H5        1.0  0.54050  0.67920  0.65370  1.0000
  H   H6        1.0  0.95950  0.32080  0.15370  1.0000
  H   H7        1.0  0.45950  0.17920  0.84630  1.0000
  H   H8        1.0  0.04050  0.82080  0.34630  1.0000
  H   H9        1.0  0.61540  0.65590  0.54260  1.0000
  H   H10       1.0  0.88460  0.34410  0.04260  1.0000
  H   H11       1.0  0.38460  0.15590  0.95740  1.0000
  H   H12       1.0  0.11540  0.84410  0.45740  1.0000
  C   C1        1.0  0.53220  0.57470  0.96960  1.0000
  C   C2        1.0  0.96780  0.42530  0.46960  1.0000
  C   C3        1.0  0.46780  0.07470  0.53040  1.0000
  C   C4        1.0  0.03220  0.92530  0.03040  1.0000
  C   C5        1.0  0.54060  0.45750  0.05490  1.0000
  C   C6        1.0  0.95940  0.54250  0.55490  1.0000
  C   C7        1.0  0.45940  0.95750  0.44510  1.0000
  C   C8        1.0  0.04060  0.04250  0.94510  1.0000
  H   H13       1.0  0.64010  0.45450  0.09410  1.0000
  H   H14       1.0  0.85990  0.54550  0.59410  1.0000
  H   H15       1.0  0.35990  0.95450  0.40590  1.0000
  H   H16       1.0  0.14010  0.04550  0.90590  1.0000
  H   H17       1.0  0.52540  0.38060  0.00690  1.0000
  H   H18       1.0  0.97460  0.61940  0.50690  1.0000
  H   H19       1.0  0.47460  0.88060  0.49310  1.0000
  H   H20       1.0  0.02540  0.11940  0.99310  1.0000
  H   H21       1.0  0.46160  0.46370  0.11720  1.0000
  H   H22       1.0  0.03840  0.53630  0.61720  1.0000
  H   H23       1.0  0.53840  0.96370  0.38280  1.0000
  H   H24       1.0  0.96160  0.03630  0.88280  1.0000
