data_image0
_chemical_formula_structural       P8O52H4O4H4C12Fe8
_chemical_formula_sum              "P8 O56 H8 C12 Fe8"
_cell_length_a       9.2137
_cell_length_b       15.2014
_cell_length_c       12.0457
_cell_angle_alpha    90
_cell_angle_beta     101.893
_cell_angle_gamma    90

_space_group_name_H-M_alt    "P 1"
_space_group_IT_number       1

loop_
  _space_group_symop_operation_xyz
  'x, y, z'

loop_
  _atom_site_type_symbol
  _atom_site_label
  _atom_site_symmetry_multiplicity
  _atom_site_fract_x
  _atom_site_fract_y
  _atom_site_fract_z
  _atom_site_occupancy
  P   P1        1.0  0.89450  0.10730  0.89080  1.0000
  P   P2        1.0  0.60550  0.60730  0.60920  1.0000
  P   P3        1.0  0.10550  0.89270  0.10920  1.0000
  P   P4        1.0  0.39450  0.39270  0.39080  1.0000
  P   P5        1.0  0.44880  0.00300  0.81670  1.0000
  P   P6        1.0  0.05120  0.50300  0.68330  1.0000
  P   P7        1.0  0.55120  0.99700  0.18330  1.0000
  P   P8        1.0  0.94880  0.49700  0.31670  1.0000
  O   O1        1.0  0.51950  0.08290  0.77470  1.0000
  O   O2        1.0  0.98050  0.58290  0.72530  1.0000
  O   O3        1.0  0.48050  0.91710  0.22530  1.0000
  O   O4        1.0  0.01950  0.41710  0.27470  1.0000
  O   O5        1.0  0.82430  0.10050  0.76430  1.0000
  O   O6        1.0  0.67570  0.60050  0.73570  1.0000
  O   O7        1.0  0.17570  0.89950  0.23570  1.0000
  O   O8        1.0  0.32430  0.39950  0.26430  1.0000
  O   O9        1.0  0.60010  0.24320  0.69060  1.0000
  O   O10       1.0  0.89990  0.74320  0.80940  1.0000
  O   O11       1.0  0.39990  0.75680  0.30940  1.0000
  O   O12       1.0  0.10010  0.25680  0.19060  1.0000
  O   O13       1.0  0.66750  0.99260  0.59780  1.0000
  O   O14       1.0  0.83250  0.49260  0.90220  1.0000
  O   O15       1.0  0.33250  0.00740  0.40220  1.0000
  O   O16       1.0  0.16750  0.50740  0.09780  1.0000
  O   O17       1.0  0.73830  0.16930  0.54360  1.0000
  O   O18       1.0  0.76170  0.66930  0.95640  1.0000
  O   O19       1.0  0.26170  0.83070  0.45640  1.0000
  O   O20       1.0  0.23830  0.33070  0.04360  1.0000
  O   O21       1.0  0.44410  0.10460  0.53470  1.0000
  O   O22       1.0  0.05590  0.60460  0.96530  1.0000
  O   O23       1.0  0.55590  0.89540  0.46530  1.0000
  O   O24       1.0  0.94410  0.39540  0.03470  1.0000
  O   O25       1.0  0.81530  0.05210  0.96340  1.0000
  O   O26       1.0  0.68470  0.55210  0.53660  1.0000
  O   O27       1.0  0.18470  0.94790  0.03660  1.0000
  O   O28       1.0  0.31530  0.44790  0.46340  1.0000
  O   O29       1.0  0.31830  0.03180  0.86700  1.0000
  O   O30       1.0  0.18170  0.53180  0.63300  1.0000
  O   O31       1.0  0.68170  0.96820  0.13300  1.0000
  O   O32       1.0  0.81830  0.46820  0.36700  1.0000
  O   O33       1.0  0.55780  0.94680  0.89810  1.0000
  O   O34       1.0  0.94220  0.44680  0.60190  1.0000
  O   O35       1.0  0.44220  0.05320  0.10190  1.0000
  O   O36       1.0  0.05780  0.55320  0.39810  1.0000
  O   O37       1.0  0.05400  0.08490  0.89960  1.0000
  O   O38       1.0  0.44600  0.58490  0.60040  1.0000
  O   O39       1.0  0.94600  0.91510  0.10040  1.0000
  O   O40       1.0  0.55400  0.41510  0.39960  1.0000
  O   O41       1.0  0.79360  0.30310  0.48340  1.0000
  O   O42       1.0  0.70640  0.80310  0.01660  1.0000
  O   O43       1.0  0.20640  0.69690  0.51660  1.0000
  O   O44       1.0  0.29360  0.19690  0.98340  1.0000
  O   O45       1.0  0.65710  0.37860  0.63370  1.0000
  O   O46       1.0  0.84290  0.87860  0.86630  1.0000
  O   O47       1.0  0.34290  0.62140  0.36630  1.0000
  O   O48       1.0  0.15710  0.12140  0.13370  1.0000
  O   O49       1.0  0.88280  0.20410  0.93190  1.0000
  O   O50       1.0  0.61720  0.70410  0.56810  1.0000
  O   O51       1.0  0.11720  0.79590  0.06810  1.0000
  O   O52       1.0  0.38280  0.29590  0.43190  1.0000
  H   H1        1.0  0.91970  0.23750  0.89200  1.0000
  H   H2        1.0  0.58030  0.73750  0.60800  1.0000
  H   H3        1.0  0.08030  0.76250  0.10800  1.0000
  H   H4        1.0  0.41970  0.26250  0.39200  1.0000
  O   O53       1.0  0.38300  0.94600  0.71000  1.0000
  O   O54       1.0  0.11700  0.44600  0.79000  1.0000
  O   O55       1.0  0.61700  0.05400  0.29000  1.0000
  O   O56       1.0  0.88300  0.55400  0.21000  1.0000
  H   H5        1.0  0.34060  0.90300  0.72950  1.0000
  H   H6        1.0  0.15940  0.40300  0.77050  1.0000
  H   H7        1.0  0.65940  0.09700  0.27050  1.0000
  H   H8        1.0  0.84060  0.59700  0.22950  1.0000
  C   C1        1.0  0.56480  0.96760  0.51830  1.0000
  C   C2        1.0  0.93520  0.46760  0.98170  1.0000
  C   C3        1.0  0.43520  0.03240  0.48170  1.0000
  C   C4        1.0  0.06480  0.53240  0.01830  1.0000
  C   C5        1.0  0.73860  0.25200  0.54480  1.0000
  C   C6        1.0  0.76140  0.75200  0.95520  1.0000
  C   C7        1.0  0.26140  0.74800  0.45520  1.0000
  C   C8        1.0  0.23860  0.24800  0.04480  1.0000
  C   C9        1.0  0.65780  0.29570  0.63110  1.0000
  C   C10       1.0  0.84220  0.79570  0.86890  1.0000
  C   C11       1.0  0.34220  0.70430  0.36890  1.0000
  C   C12       1.0  0.15780  0.20430  0.13110  1.0000
  Fe  Fe1       1.0  0.63476  0.11255  0.66452  1.0000
  Fe  Fe2       1.0  0.86524  0.61255  0.83548  1.0000
  Fe  Fe3       1.0  0.36524  0.88745  0.33548  1.0000
  Fe  Fe4       1.0  0.13476  0.38745  0.16452  1.0000
  Fe  Fe5       1.0  0.75220  0.93807  0.99795  1.0000
  Fe  Fe6       1.0  0.74780  0.43807  0.50205  1.0000
  Fe  Fe7       1.0  0.24780  0.06193  0.00205  1.0000
  Fe  Fe8       1.0  0.25220  0.56193  0.49795  1.0000
