data_image0
_chemical_formula_structural       Cu42I24C36N18H36N54H36N18O3
_chemical_formula_sum              "Cu42 I24 C36 N90 H72 O3"
_cell_length_a       15.4326
_cell_length_b       15.4326
_cell_length_c       17.733
_cell_angle_alpha    90
_cell_angle_beta     90
_cell_angle_gamma    120

_space_group_name_H-M_alt    "P 1"
_space_group_IT_number       1

loop_
  _space_group_symop_operation_xyz
  'x, y, z'

loop_
  _atom_site_type_symbol
  _atom_site_label
  _atom_site_symmetry_multiplicity
  _atom_site_fract_x
  _atom_site_fract_y
  _atom_site_fract_z
  _atom_site_occupancy
  Cu  Cu1       1.0  0.42309  0.51455  0.32639  1.0000
  Cu  Cu2       1.0  0.48545  0.90854  0.32639  1.0000
  Cu  Cu3       1.0  0.09146  0.57691  0.32639  1.0000
  Cu  Cu4       1.0  0.08976  0.84788  0.65972  1.0000
  Cu  Cu5       1.0  0.15212  0.24187  0.65972  1.0000
  Cu  Cu6       1.0  0.75813  0.91024  0.65972  1.0000
  Cu  Cu7       1.0  0.75642  0.18122  0.99306  1.0000
  Cu  Cu8       1.0  0.81878  0.57521  0.99306  1.0000
  Cu  Cu9       1.0  0.42479  0.24358  0.99306  1.0000
  Cu  Cu10      1.0  0.57691  0.48545  0.67361  1.0000
  Cu  Cu11      1.0  0.51455  0.09146  0.67361  1.0000
  Cu  Cu12      1.0  0.90854  0.42309  0.67361  1.0000
  Cu  Cu13      1.0  0.91024  0.15212  0.34028  1.0000
  Cu  Cu14      1.0  0.84788  0.75813  0.34028  1.0000
  Cu  Cu15      1.0  0.24187  0.08976  0.34028  1.0000
  Cu  Cu16      1.0  0.24358  0.81878  0.00694  1.0000
  Cu  Cu17      1.0  0.18122  0.42479  0.00694  1.0000
  Cu  Cu18      1.0  0.57521  0.75642  0.00694  1.0000
  Cu  Cu19      1.0  0.07886  0.11417  0.23686  1.0000
  Cu  Cu20      1.0  0.88583  0.96469  0.23686  1.0000
  Cu  Cu21      1.0  0.03531  0.92114  0.23686  1.0000
  Cu  Cu22      1.0  0.74553  0.44750  0.57019  1.0000
  Cu  Cu23      1.0  0.55250  0.29802  0.57019  1.0000
  Cu  Cu24      1.0  0.70198  0.25447  0.57019  1.0000
  Cu  Cu25      1.0  0.41219  0.78084  0.90353  1.0000
  Cu  Cu26      1.0  0.21916  0.63136  0.90353  1.0000
  Cu  Cu27      1.0  0.36864  0.58781  0.90353  1.0000
  Cu  Cu28      1.0  0.92114  0.88583  0.76314  1.0000
  Cu  Cu29      1.0  0.11417  0.03531  0.76314  1.0000
  Cu  Cu30      1.0  0.96469  0.07886  0.76314  1.0000
  Cu  Cu31      1.0  0.25447  0.55250  0.42981  1.0000
  Cu  Cu32      1.0  0.44750  0.70198  0.42981  1.0000
  Cu  Cu33      1.0  0.29802  0.74553  0.42981  1.0000
  Cu  Cu34      1.0  0.58781  0.21916  0.09647  1.0000
  Cu  Cu35      1.0  0.78084  0.36864  0.09647  1.0000
  Cu  Cu36      1.0  0.63136  0.41219  0.09647  1.0000
  Cu  Cu37      1.0  0.00000  0.00000  0.12230  1.0000
  Cu  Cu38      1.0  0.66667  0.33333  0.45563  1.0000
  Cu  Cu39      1.0  0.33333  0.66667  0.78897  1.0000
  Cu  Cu40      1.0  0.00000  0.00000  0.87770  1.0000
  Cu  Cu41      1.0  0.33333  0.66667  0.54437  1.0000
  Cu  Cu42      1.0  0.66667  0.33333  0.21103  1.0000
  I   I1        1.0  0.00000  0.00000  0.36619  1.0000
  I   I2        1.0  0.66667  0.33333  0.69952  1.0000
  I   I3        1.0  0.33333  0.66667  0.03286  1.0000
  I   I4        1.0  0.00000  0.00000  0.63381  1.0000
  I   I5        1.0  0.33333  0.66667  0.30048  1.0000
  I   I6        1.0  0.66667  0.33333  0.96714  1.0000
  I   I7        1.0  0.96785  0.15438  0.15459  1.0000
  I   I8        1.0  0.84562  0.81347  0.15459  1.0000
  I   I9        1.0  0.18653  0.03215  0.15459  1.0000
  I   I10       1.0  0.63452  0.48771  0.48792  1.0000
  I   I11       1.0  0.51229  0.14680  0.48792  1.0000
  I   I12       1.0  0.85320  0.36548  0.48792  1.0000
  I   I13       1.0  0.30118  0.82105  0.82126  1.0000
  I   I14       1.0  0.17895  0.48014  0.82126  1.0000
  I   I15       1.0  0.51986  0.69882  0.82126  1.0000
  I   I16       1.0  0.03215  0.84562  0.84541  1.0000
  I   I17       1.0  0.15438  0.18653  0.84541  1.0000
  I   I18       1.0  0.81347  0.96785  0.84541  1.0000
  I   I19       1.0  0.36548  0.51229  0.51208  1.0000
  I   I20       1.0  0.48771  0.85320  0.51208  1.0000
  I   I21       1.0  0.14680  0.63452  0.51208  1.0000
  I   I22       1.0  0.69882  0.17895  0.17874  1.0000
  I   I23       1.0  0.82105  0.51986  0.17874  1.0000
  I   I24       1.0  0.48014  0.30118  0.17874  1.0000
  C   C1        1.0  0.24130  0.33190  0.26850  1.0000
  C   C2        1.0  0.66810  0.90940  0.26850  1.0000
  C   C3        1.0  0.09060  0.75870  0.26850  1.0000
  C   C4        1.0  0.90797  0.66523  0.60183  1.0000
  C   C5        1.0  0.33477  0.24273  0.60183  1.0000
  C   C6        1.0  0.75727  0.09203  0.60183  1.0000
  C   C7        1.0  0.57463  0.99857  0.93517  1.0000
  C   C8        1.0  0.00143  0.57607  0.93517  1.0000
  C   C9        1.0  0.42393  0.42537  0.93517  1.0000
  C   C10       1.0  0.75870  0.66810  0.73150  1.0000
  C   C11       1.0  0.33190  0.09060  0.73150  1.0000
  C   C12       1.0  0.90940  0.24130  0.73150  1.0000
  C   C13       1.0  0.09203  0.33477  0.39817  1.0000
  C   C14       1.0  0.66523  0.75727  0.39817  1.0000
  C   C15       1.0  0.24273  0.90797  0.39817  1.0000
  C   C16       1.0  0.42537  0.00143  0.06483  1.0000
  C   C17       1.0  0.99857  0.42393  0.06483  1.0000
  C   C18       1.0  0.57607  0.57463  0.06483  1.0000
  C   C19       1.0  0.33030  0.30320  0.34430  1.0000
  C   C20       1.0  0.69680  0.02710  0.34430  1.0000
  C   C21       1.0  0.97290  0.66970  0.34430  1.0000
  C   C22       1.0  0.99697  0.63653  0.67763  1.0000
  C   C23       1.0  0.36347  0.36043  0.67763  1.0000
  C   C24       1.0  0.63957  0.00303  0.67763  1.0000
  C   C25       1.0  0.66363  0.96987  0.01097  1.0000
  C   C26       1.0  0.03013  0.69377  0.01097  1.0000
  C   C27       1.0  0.30623  0.33637  0.01097  1.0000
  C   C28       1.0  0.66970  0.69680  0.65570  1.0000
  C   C29       1.0  0.30320  0.97290  0.65570  1.0000
  C   C30       1.0  0.02710  0.33030  0.65570  1.0000
  C   C31       1.0  0.00303  0.36347  0.32237  1.0000
  C   C32       1.0  0.63653  0.63957  0.32237  1.0000
  C   C33       1.0  0.36043  0.99697  0.32237  1.0000
  C   C34       1.0  0.33637  0.03013  0.98903  1.0000
  C   C35       1.0  0.96987  0.30623  0.98903  1.0000
  C   C36       1.0  0.69377  0.66363  0.98903  1.0000
  N   N1        1.0  0.40550  0.31630  0.39320  1.0000
  N   N2        1.0  0.68370  0.08920  0.39320  1.0000
  N   N3        1.0  0.91080  0.59450  0.39320  1.0000
  N   N4        1.0  0.07217  0.64963  0.72653  1.0000
  N   N5        1.0  0.35037  0.42253  0.72653  1.0000
  N   N6        1.0  0.57747  0.92783  0.72653  1.0000
  N   N7        1.0  0.73883  0.98297  0.05987  1.0000
  N   N8        1.0  0.01703  0.75587  0.05987  1.0000
  N   N9        1.0  0.24413  0.26117  0.05987  1.0000
  N   N10       1.0  0.59450  0.68370  0.60680  1.0000
  N   N11       1.0  0.31630  0.91080  0.60680  1.0000
  N   N12       1.0  0.08920  0.40550  0.60680  1.0000
  N   N13       1.0  0.92783  0.35037  0.27347  1.0000
  N   N14       1.0  0.64963  0.57747  0.27347  1.0000
  N   N15       1.0  0.42253  0.07217  0.27347  1.0000
  N   N16       1.0  0.26117  0.01703  0.94013  1.0000
  N   N17       1.0  0.98297  0.24413  0.94013  1.0000
  N   N18       1.0  0.75587  0.73883  0.94013  1.0000
  H   H1        1.0  0.40500  0.26510  0.41290  1.0000
  H   H2        1.0  0.73490  0.13990  0.41290  1.0000
  H   H3        1.0  0.86010  0.59500  0.41290  1.0000
  H   H4        1.0  0.07167  0.59843  0.74623  1.0000
  H   H5        1.0  0.40157  0.47323  0.74623  1.0000
  H   H6        1.0  0.52677  0.92833  0.74623  1.0000
  H   H7        1.0  0.73833  0.93177  0.07957  1.0000
  H   H8        1.0  0.06823  0.80657  0.07957  1.0000
  H   H9        1.0  0.19343  0.26167  0.07957  1.0000
  H   H10       1.0  0.59500  0.73490  0.58710  1.0000
  H   H11       1.0  0.26510  0.86010  0.58710  1.0000
  H   H12       1.0  0.13990  0.40500  0.58710  1.0000
  H   H13       1.0  0.92833  0.40157  0.25377  1.0000
  H   H14       1.0  0.59843  0.52677  0.25377  1.0000
  H   H15       1.0  0.47323  0.07167  0.25377  1.0000
  H   H16       1.0  0.26167  0.06823  0.92043  1.0000
  H   H17       1.0  0.93177  0.19343  0.92043  1.0000
  H   H18       1.0  0.80657  0.73833  0.92043  1.0000
  H   H19       1.0  0.45280  0.37560  0.40410  1.0000
  H   H20       1.0  0.62440  0.07720  0.40410  1.0000
  H   H21       1.0  0.92280  0.54720  0.40410  1.0000
  H   H22       1.0  0.11947  0.70893  0.73743  1.0000
  H   H23       1.0  0.29107  0.41053  0.73743  1.0000
  H   H24       1.0  0.58947  0.88053  0.73743  1.0000
  H   H25       1.0  0.78613  0.04227  0.07077  1.0000
  H   H26       1.0  0.95773  0.74387  0.07077  1.0000
  H   H27       1.0  0.25613  0.21387  0.07077  1.0000
  H   H28       1.0  0.54720  0.62440  0.59590  1.0000
  H   H29       1.0  0.37560  0.92280  0.59590  1.0000
  H   H30       1.0  0.07720  0.45280  0.59590  1.0000
  H   H31       1.0  0.88053  0.29107  0.26257  1.0000
  H   H32       1.0  0.70893  0.58947  0.26257  1.0000
  H   H33       1.0  0.41053  0.11947  0.26257  1.0000
  H   H34       1.0  0.21387  0.95773  0.92923  1.0000
  H   H35       1.0  0.04227  0.25613  0.92923  1.0000
  H   H36       1.0  0.74387  0.78613  0.92923  1.0000
  N   N19       1.0  0.32540  0.38090  0.31240  1.0000
  N   N20       1.0  0.61910  0.94450  0.31240  1.0000
  N   N21       1.0  0.05550  0.67460  0.31240  1.0000
  N   N22       1.0  0.99207  0.71423  0.64573  1.0000
  N   N23       1.0  0.28577  0.27783  0.64573  1.0000
  N   N24       1.0  0.72217  0.00793  0.64573  1.0000
  N   N25       1.0  0.65873  0.04757  0.97907  1.0000
  N   N26       1.0  0.95243  0.61117  0.97907  1.0000
  N   N27       1.0  0.38883  0.34127  0.97907  1.0000
  N   N28       1.0  0.67460  0.61910  0.68760  1.0000
  N   N29       1.0  0.38090  0.05550  0.68760  1.0000
  N   N30       1.0  0.94450  0.32540  0.68760  1.0000
  N   N31       1.0  0.00793  0.28577  0.35427  1.0000
  N   N32       1.0  0.71423  0.72217  0.35427  1.0000
  N   N33       1.0  0.27783  0.99207  0.35427  1.0000
  N   N34       1.0  0.34127  0.95243  0.02093  1.0000
  N   N35       1.0  0.04757  0.38883  0.02093  1.0000
  N   N36       1.0  0.61117  0.65873  0.02093  1.0000
  N   N37       1.0  0.25680  0.21600  0.32540  1.0000
  N   N38       1.0  0.78400  0.04080  0.32540  1.0000
  N   N39       1.0  0.95920  0.74320  0.32540  1.0000
  N   N40       1.0  0.92347  0.54933  0.65873  1.0000
  N   N41       1.0  0.45067  0.37413  0.65873  1.0000
  N   N42       1.0  0.62587  0.07653  0.65873  1.0000
  N   N43       1.0  0.59013  0.88267  0.99207  1.0000
  N   N44       1.0  0.11733  0.70747  0.99207  1.0000
  N   N45       1.0  0.29253  0.40987  0.99207  1.0000
  N   N46       1.0  0.74320  0.78400  0.67460  1.0000
  N   N47       1.0  0.21600  0.95920  0.67460  1.0000
  N   N48       1.0  0.04080  0.25680  0.67460  1.0000
  N   N49       1.0  0.07653  0.45067  0.34127  1.0000
  N   N50       1.0  0.54933  0.62587  0.34127  1.0000
  N   N51       1.0  0.37413  0.92347  0.34127  1.0000
  N   N52       1.0  0.40987  0.11733  0.00793  1.0000
  N   N53       1.0  0.88267  0.29253  0.00793  1.0000
  N   N54       1.0  0.70747  0.59013  0.00793  1.0000
  N   N55       1.0  0.20910  0.38020  0.22210  1.0000
  N   N56       1.0  0.61980  0.82890  0.22210  1.0000
  N   N57       1.0  0.17110  0.79090  0.22210  1.0000
  N   N58       1.0  0.87577  0.71353  0.55543  1.0000
  N   N59       1.0  0.28647  0.16223  0.55543  1.0000
  N   N60       1.0  0.83777  0.12423  0.55543  1.0000
  N   N61       1.0  0.54243  0.04687  0.88877  1.0000
  N   N62       1.0  0.95313  0.49557  0.88877  1.0000
  N   N63       1.0  0.50443  0.45757  0.88877  1.0000
  N   N64       1.0  0.79090  0.61980  0.77790  1.0000
  N   N65       1.0  0.38020  0.17110  0.77790  1.0000
  N   N66       1.0  0.82890  0.20910  0.77790  1.0000
  N   N67       1.0  0.12423  0.28647  0.44457  1.0000
  N   N68       1.0  0.71353  0.83777  0.44457  1.0000
  N   N69       1.0  0.16223  0.87577  0.44457  1.0000
  N   N70       1.0  0.45757  0.95313  0.11123  1.0000
  N   N71       1.0  0.04687  0.50443  0.11123  1.0000
  N   N72       1.0  0.49557  0.54243  0.11123  1.0000
  H   H37       1.0  0.15720  0.34640  0.19430  1.0000
  H   H38       1.0  0.65360  0.81080  0.19430  1.0000
  H   H39       1.0  0.18920  0.84280  0.19430  1.0000
  H   H40       1.0  0.82387  0.67973  0.52763  1.0000
  H   H41       1.0  0.32027  0.14413  0.52763  1.0000
  H   H42       1.0  0.85587  0.17613  0.52763  1.0000
  H   H43       1.0  0.49053  0.01307  0.86097  1.0000
  H   H44       1.0  0.98693  0.47747  0.86097  1.0000
  H   H45       1.0  0.52253  0.50947  0.86097  1.0000
  H   H46       1.0  0.84280  0.65360  0.80570  1.0000
  H   H47       1.0  0.34640  0.18920  0.80570  1.0000
  H   H48       1.0  0.81080  0.15720  0.80570  1.0000
  H   H49       1.0  0.17613  0.32027  0.47237  1.0000
  H   H50       1.0  0.67973  0.85587  0.47237  1.0000
  H   H51       1.0  0.14413  0.82387  0.47237  1.0000
  H   H52       1.0  0.50947  0.98693  0.13903  1.0000
  H   H53       1.0  0.01307  0.52253  0.13903  1.0000
  H   H54       1.0  0.47747  0.49053  0.13903  1.0000
  H   H55       1.0  0.24070  0.44450  0.22050  1.0000
  H   H56       1.0  0.55550  0.79620  0.22050  1.0000
  H   H57       1.0  0.20380  0.75930  0.22050  1.0000
  H   H58       1.0  0.90737  0.77783  0.55383  1.0000
  H   H59       1.0  0.22217  0.12953  0.55383  1.0000
  H   H60       1.0  0.87047  0.09263  0.55383  1.0000
  H   H61       1.0  0.57403  0.11117  0.88717  1.0000
  H   H62       1.0  0.88883  0.46287  0.88717  1.0000
  H   H63       1.0  0.53713  0.42597  0.88717  1.0000
  H   H64       1.0  0.75930  0.55550  0.77950  1.0000
  H   H65       1.0  0.44450  0.20380  0.77950  1.0000
  H   H66       1.0  0.79620  0.24070  0.77950  1.0000
  H   H67       1.0  0.09263  0.22217  0.44617  1.0000
  H   H68       1.0  0.77783  0.87047  0.44617  1.0000
  H   H69       1.0  0.12953  0.90737  0.44617  1.0000
  H   H70       1.0  0.42597  0.88883  0.11283  1.0000
  H   H71       1.0  0.11117  0.53713  0.11283  1.0000
  H   H72       1.0  0.46287  0.57403  0.11283  1.0000
  N   N73       1.0  0.19750  0.23320  0.27470  1.0000
  N   N74       1.0  0.76680  0.96430  0.27470  1.0000
  N   N75       1.0  0.03570  0.80250  0.27470  1.0000
  N   N76       1.0  0.86417  0.56653  0.60803  1.0000
  N   N77       1.0  0.43347  0.29763  0.60803  1.0000
  N   N78       1.0  0.70237  0.13583  0.60803  1.0000
  N   N79       1.0  0.53083  0.89987  0.94137  1.0000
  N   N80       1.0  0.10013  0.63097  0.94137  1.0000
  N   N81       1.0  0.36903  0.46917  0.94137  1.0000
  N   N82       1.0  0.80250  0.76680  0.72530  1.0000
  N   N83       1.0  0.23320  0.03570  0.72530  1.0000
  N   N84       1.0  0.96430  0.19750  0.72530  1.0000
  N   N85       1.0  0.13583  0.43347  0.39197  1.0000
  N   N86       1.0  0.56653  0.70237  0.39197  1.0000
  N   N87       1.0  0.29763  0.86417  0.39197  1.0000
  N   N88       1.0  0.46917  0.10013  0.05863  1.0000
  N   N89       1.0  0.89987  0.36903  0.05863  1.0000
  N   N90       1.0  0.63097  0.53083  0.05863  1.0000
  O   O1        1.0  0.00000  0.00000  0.00000  1.0000
  O   O2        1.0  0.66667  0.33333  0.33333  1.0000
  O   O3        1.0  0.33333  0.66667  0.66667  1.0000
