data_image0
_chemical_formula_structural       P4Na2H2Na2O14H2O4H4O2H4O2H2O18H4O2H4O2H4N8H2N2H4C2H4C2H2C2H2C2H2C2H2C2H2C8H2N8H2N2H4C2H4C2H2C2H2C2H2C2H2C2H2C8H4
_chemical_formula_sum              "P4 Na4 H72 O44 N20 C40"
_cell_length_a       13.7459
_cell_length_b       9.9617
_cell_length_c       20.5301
_cell_angle_alpha    90
_cell_angle_beta     96.623
_cell_angle_gamma    90

_space_group_name_H-M_alt    "P 1"
_space_group_IT_number       1

loop_
  _space_group_symop_operation_xyz
  'x, y, z'

loop_
  _atom_site_type_symbol
  _atom_site_label
  _atom_site_symmetry_multiplicity
  _atom_site_fract_x
  _atom_site_fract_y
  _atom_site_fract_z
  _atom_site_occupancy
  P   P1        1.0  0.08802  0.23550  0.41827  1.0000
  P   P2        1.0  0.91198  0.73550  0.58173  1.0000
  P   P3        1.0  0.27902  0.10960  0.03275  1.0000
  P   P4        1.0  0.72098  0.60960  0.96725  1.0000
  Na  Na1       1.0  0.47860  0.68990  0.16420  1.0000
  Na  Na2       1.0  0.52140  0.18990  0.83580  1.0000
  H   H1        1.0  0.51000  0.72600  0.28800  1.0000
  H   H2        1.0  0.49000  0.22600  0.71200  1.0000
  Na  Na3       1.0  0.30160  0.65230  0.52751  1.0000
  Na  Na4       1.0  0.69840  0.15230  0.47249  1.0000
  O   O1        1.0  0.08560  0.38490  0.38910  1.0000
  O   O2        1.0  0.91440  0.88490  0.61090  1.0000
  O   O3        1.0  0.13860  0.15810  0.36820  1.0000
  O   O4        1.0  0.86140  0.65810  0.63180  1.0000
  O   O5        1.0  0.98240  0.19000  0.41830  1.0000
  O   O6        1.0  0.01760  0.69000  0.58170  1.0000
  O   O7        1.0  0.14300  0.24020  0.48640  1.0000
  O   O8        1.0  0.85700  0.74020  0.51360  1.0000
  O   O9        1.0  0.06300  0.64510  0.33800  1.0000
  O   O10       1.0  0.93700  0.14510  0.66200  1.0000
  O   O11       1.0  0.13990  0.76420  0.50120  1.0000
  O   O12       1.0  0.86010  0.26420  0.49880  1.0000
  O   O13       1.0  0.16980  0.90570  0.38900  1.0000
  O   O14       1.0  0.83020  0.40570  0.61100  1.0000
  H   H3        1.0  0.16200  0.98500  0.38600  1.0000
  H   H4        1.0  0.83800  0.48500  0.61400  1.0000
  O   O15       1.0  0.63830  0.74010  0.18110  1.0000
  O   O16       1.0  0.36170  0.24010  0.81890  1.0000
  O   O17       1.0  0.35190  0.84210  0.15510  1.0000
  O   O18       1.0  0.64810  0.34210  0.84490  1.0000
  H   H5        1.0  0.33700  0.82100  0.19600  1.0000
  H   H6        1.0  0.66300  0.32100  0.80400  1.0000
  H   H7        1.0  0.39400  0.91200  0.16100  1.0000
  H   H8        1.0  0.60600  0.41200  0.83900  1.0000
  O   O19       1.0  0.47200  0.45760  0.14850  1.0000
  O   O20       1.0  0.52800  0.95760  0.85150  1.0000
  H   H9        1.0  0.48700  0.38200  0.12800  1.0000
  H   H10       1.0  0.51300  0.88200  0.87200  1.0000
  H   H11       1.0  0.41800  0.44000  0.16800  1.0000
  H   H12       1.0  0.58200  0.94000  0.83200  1.0000
  O   O21       1.0  0.45850  0.67300  0.27290  1.0000
  O   O22       1.0  0.54150  0.17300  0.72710  1.0000
  H   H13       1.0  0.41800  0.67600  0.30500  1.0000
  H   H14       1.0  0.58200  0.17600  0.69500  1.0000
  O   O23       1.0  0.26960  0.96290  0.99560  1.0000
  O   O24       1.0  0.73040  0.46290  0.00440  1.0000
  O   O25       1.0  0.32260  0.20400  0.98480  1.0000
  O   O26       1.0  0.67740  0.70400  0.01520  1.0000
  O   O27       1.0  0.17430  0.14280  0.04090  1.0000
  O   O28       1.0  0.82570  0.64280  0.95910  1.0000
  O   O29       1.0  0.34720  0.09050  0.09530  1.0000
  O   O30       1.0  0.65280  0.59050  0.90470  1.0000
  O   O31       1.0  0.27540  0.69610  0.94240  1.0000
  O   O32       1.0  0.72460  0.19610  0.05760  1.0000
  O   O33       1.0  0.49790  0.66760  0.04920  1.0000
  O   O34       1.0  0.50210  0.16760  0.95080  1.0000
  O   O35       1.0  0.37830  0.45530  0.01860  1.0000
  O   O36       1.0  0.62170  0.95530  0.98140  1.0000
  O   O37       1.0  0.26180  0.64980  0.63030  1.0000
  O   O38       1.0  0.73820  0.14980  0.36970  1.0000
  O   O39       1.0  0.33560  0.75130  0.42890  1.0000
  O   O40       1.0  0.66440  0.25130  0.57110  1.0000
  H   H15       1.0  0.35000  0.71900  0.39000  1.0000
  H   H16       1.0  0.65000  0.21900  0.61000  1.0000
  H   H17       1.0  0.29700  0.82300  0.41900  1.0000
  H   H18       1.0  0.70300  0.32300  0.58100  1.0000
  O   O41       1.0  0.47140  0.66050  0.56080  1.0000
  O   O42       1.0  0.52860  0.16050  0.43920  1.0000
  H   H19       1.0  0.51200  0.59700  0.54900  1.0000
  H   H20       1.0  0.48800  0.09700  0.45100  1.0000
  H   H21       1.0  0.48900  0.73800  0.54300  1.0000
  H   H22       1.0  0.51100  0.23800  0.45700  1.0000
  O   O43       1.0  0.29500  0.41950  0.50950  1.0000
  O   O44       1.0  0.70500  0.91950  0.49050  1.0000
  H   H23       1.0  0.33800  0.39400  0.54300  1.0000
  H   H24       1.0  0.66200  0.89400  0.45700  1.0000
  H   H25       1.0  0.25100  0.35300  0.50300  1.0000
  H   H26       1.0  0.74900  0.85300  0.49700  1.0000
  N   N1        1.0  0.93140  0.79000  0.30960  1.0000
  N   N2        1.0  0.06860  0.29000  0.69040  1.0000
  N   N3        1.0  0.76830  0.77360  0.31340  1.0000
  N   N4        1.0  0.23170  0.27360  0.68660  1.0000
  N   N5        1.0  0.93990  0.77720  0.19280  1.0000
  N   N6        1.0  0.06010  0.27720  0.80720  1.0000
  N   N7        1.0  0.78030  0.75160  0.13460  1.0000
  N   N8        1.0  0.21970  0.25160  0.86540  1.0000
  H   H27       1.0  0.74680  0.73920  0.09580  1.0000
  H   H28       1.0  0.25320  0.23920  0.90420  1.0000
  N   N9        1.0  0.91660  0.76840  0.07900  1.0000
  N   N10       1.0  0.08340  0.26840  0.92100  1.0000
  H   H29       1.0  0.98010  0.77620  0.07790  1.0000
  H   H30       1.0  0.01990  0.27620  0.92210  1.0000
  H   H31       1.0  0.87700  0.76150  0.04230  1.0000
  H   H32       1.0  0.12300  0.26150  0.95770  1.0000
  C   C1        1.0  0.05830  0.49450  0.42800  1.0000
  C   C2        1.0  0.94170  0.99450  0.57200  1.0000
  H   H33       1.0  0.08270  0.47890  0.47470  1.0000
  H   H34       1.0  0.91730  0.97890  0.52530  1.0000
  H   H35       1.0  0.98610  0.50230  0.42410  1.0000
  H   H36       1.0  0.01390  0.00230  0.57590  1.0000
  C   C3        1.0  0.10150  0.62090  0.40470  1.0000
  C   C4        1.0  0.89850  0.12090  0.59530  1.0000
  H   H37       1.0  0.17440  0.61240  0.40810  1.0000
  H   H38       1.0  0.82560  0.11240  0.59190  1.0000
  C   C5        1.0  0.07400  0.74360  0.44320  1.0000
  C   C6        1.0  0.92600  0.24360  0.55680  1.0000
  H   H39       1.0  0.00630  0.73140  0.45550  1.0000
  H   H40       1.0  0.99370  0.23140  0.54450  1.0000
  C   C7        1.0  0.07330  0.85760  0.39310  1.0000
  C   C8        1.0  0.92670  0.35760  0.60690  1.0000
  H   H41       1.0  0.02790  0.93160  0.40270  1.0000
  H   H42       1.0  0.97210  0.43160  0.59730  1.0000
  C   C9        1.0  0.03620  0.78240  0.32820  1.0000
  C   C10       1.0  0.96380  0.28240  0.67180  1.0000
  H   H43       1.0  0.07050  0.81960  0.29180  1.0000
  H   H44       1.0  0.92950  0.31960  0.70820  1.0000
  C   C11       1.0  0.85490  0.78590  0.34810  1.0000
  C   C12       1.0  0.14510  0.28590  0.65190  1.0000
  H   H45       1.0  0.86390  0.79130  0.39460  1.0000
  H   H46       1.0  0.13610  0.29130  0.60540  1.0000
  C   C13       1.0  0.78900  0.77040  0.24700  1.0000
  C   C14       1.0  0.21100  0.27040  0.75300  1.0000
  C   C15       1.0  0.89060  0.77900  0.24540  1.0000
  C   C16       1.0  0.10940  0.27900  0.75460  1.0000
  C   C17       1.0  0.88010  0.76680  0.13670  1.0000
  C   C18       1.0  0.11990  0.26680  0.86330  1.0000
  C   C19       1.0  0.72780  0.75430  0.18880  1.0000
  C   C20       1.0  0.27220  0.25430  0.81120  1.0000
  H   H47       1.0  0.36400  0.38260  0.00760  1.0000
  H   H48       1.0  0.63600  0.88260  0.99240  1.0000
  N   N11       1.0  0.32127  0.58109  0.85102  1.0000
  N   N12       1.0  0.67873  0.08109  0.14898  1.0000
  N   N13       1.0  0.39294  0.61163  0.75977  1.0000
  N   N14       1.0  0.60706  0.11163  0.24023  1.0000
  N   N15       1.0  0.15047  0.58418  0.80661  1.0000
  N   N16       1.0  0.84953  0.08418  0.19339  1.0000
  N   N17       1.0  0.13446  0.61537  0.69107  1.0000
  N   N18       1.0  0.86554  0.11537  0.30893  1.0000
  H   H49       1.0  0.09250  0.62190  0.65550  1.0000
  H   H50       1.0  0.90750  0.12190  0.34450  1.0000
  N   N19       1.0  0.99856  0.59360  0.74520  1.0000
  N   N20       1.0  0.00144  0.09360  0.25480  1.0000
  H   H51       1.0  0.96960  0.58270  0.78090  1.0000
  H   H52       1.0  0.03040  0.08270  0.21910  1.0000
  H   H53       1.0  0.96320  0.60220  0.70690  1.0000
  H   H54       1.0  0.03680  0.10220  0.29310  1.0000
  C   C21       1.0  0.35758  0.89260  0.98734  1.0000
  C   C22       1.0  0.64242  0.39260  0.01266  1.0000
  H   H55       1.0  0.41090  0.92450  0.02020  1.0000
  H   H56       1.0  0.58910  0.42450  0.97980  1.0000
  H   H57       1.0  0.37660  0.91140  0.94320  1.0000
  H   H58       1.0  0.62340  0.41140  0.05680  1.0000
  C   C23       1.0  0.34466  0.74660  0.99502  1.0000
  C   C24       1.0  0.65534  0.24660  0.00498  1.0000
  H   H59       1.0  0.32120  0.72690  0.03830  1.0000
  H   H60       1.0  0.67880  0.22690  0.96170  1.0000
  C   C25       1.0  0.43847  0.66780  0.98802  1.0000
  C   C26       1.0  0.56153  0.16780  0.01198  1.0000
  H   H61       1.0  0.47460  0.71060  0.95390  1.0000
  H   H62       1.0  0.52540  0.21060  0.04610  1.0000
  C   C27       1.0  0.40119  0.52890  0.96442  1.0000
  C   C28       1.0  0.59881  0.02890  0.03558  1.0000
  H   H63       1.0  0.44890  0.48090  0.93940  1.0000
  H   H64       1.0  0.55110  0.98090  0.06060  1.0000
  C   C29       1.0  0.30585  0.57028  0.91973  1.0000
  C   C30       1.0  0.69415  0.07028  0.08027  1.0000
  H   H65       1.0  0.25360  0.50210  0.92430  1.0000
  H   H66       1.0  0.74640  0.00210  0.07570  1.0000
  C   C31       1.0  0.40765  0.59510  0.82369  1.0000
  C   C32       1.0  0.59235  0.09510  0.17631  1.0000
  H   H67       1.0  0.47060  0.59300  0.84820  1.0000
  H   H68       1.0  0.52940  0.09300  0.15180  1.0000
  C   C33       1.0  0.29400  0.60535  0.74481  1.0000
  C   C34       1.0  0.70600  0.10535  0.25519  1.0000
  C   C35       1.0  0.24796  0.58895  0.79963  1.0000
  C   C36       1.0  0.75204  0.08895  0.20037  1.0000
  C   C37       1.0  0.09657  0.59704  0.74926  1.0000
  C   C38       1.0  0.90343  0.09704  0.25074  1.0000
  C   C39       1.0  0.23406  0.62462  0.68319  1.0000
  C   C40       1.0  0.76594  0.12462  0.31681  1.0000
  H   H69       1.0  0.10490  0.73720  0.53040  1.0000
  H   H70       1.0  0.89510  0.23720  0.46960  1.0000
  H   H71       1.0  0.54790  0.67440  0.04540  1.0000
  H   H72       1.0  0.45210  0.17440  0.95460  1.0000
