data_image0
_chemical_formula_structural       Tb4O8H8O44C12H4C4H4C8H4C20H4C4H4C8H4C8N8
_chemical_formula_sum              "Tb4 O52 H32 C64 N8"
_cell_length_a       11.7024
_cell_length_b       14.5744
_cell_length_c       15.8996
_cell_angle_alpha    90
_cell_angle_beta     105.519
_cell_angle_gamma    90

_space_group_name_H-M_alt    "P 1"
_space_group_IT_number       1

loop_
  _space_group_symop_operation_xyz
  'x, y, z'

loop_
  _atom_site_type_symbol
  _atom_site_label
  _atom_site_symmetry_multiplicity
  _atom_site_fract_x
  _atom_site_fract_y
  _atom_site_fract_z
  _atom_site_occupancy
  Tb  Tb1       1.0  0.83389  0.44500  0.50565  1.0000
  Tb  Tb2       1.0  0.66611  0.94500  0.99435  1.0000
  Tb  Tb3       1.0  0.16611  0.55500  0.49435  1.0000
  Tb  Tb4       1.0  0.33389  0.05500  0.00565  1.0000
  O   O1        1.0  0.86045  0.59473  0.57231  1.0000
  O   O2        1.0  0.63955  0.09473  0.92769  1.0000
  O   O3        1.0  0.13955  0.40527  0.42769  1.0000
  O   O4        1.0  0.36045  0.90527  0.07231  1.0000
  O   O5        1.0  0.92202  0.34242  0.42319  1.0000
  O   O6        1.0  0.57798  0.84242  0.07681  1.0000
  O   O7        1.0  0.07798  0.65758  0.57681  1.0000
  O   O8        1.0  0.42202  0.15758  0.92319  1.0000
  H   H1        1.0  0.98960  0.35900  0.41900  1.0000
  H   H2        1.0  0.51040  0.85900  0.08100  1.0000
  H   H3        1.0  0.01040  0.64100  0.58100  1.0000
  H   H4        1.0  0.48960  0.14100  0.91900  1.0000
  H   H5        1.0  0.92000  0.28470  0.41780  1.0000
  H   H6        1.0  0.58000  0.78470  0.08220  1.0000
  H   H7        1.0  0.08000  0.71530  0.58220  1.0000
  H   H8        1.0  0.42000  0.21530  0.91780  1.0000
  O   O9        1.0  0.67422  0.55099  0.53271  1.0000
  O   O10       1.0  0.82578  0.05099  0.96729  1.0000
  O   O11       1.0  0.32578  0.44901  0.46729  1.0000
  O   O12       1.0  0.17422  0.94901  0.03271  1.0000
  O   O13       1.0  0.72160  0.75766  0.49115  1.0000
  O   O14       1.0  0.77840  0.25766  0.00885  1.0000
  O   O15       1.0  0.27840  0.24234  0.50885  1.0000
  O   O16       1.0  0.22160  0.74234  0.99115  1.0000
  O   O17       1.0  0.68080  0.88528  0.54231  1.0000
  O   O18       1.0  0.81920  0.38528  0.95769  1.0000
  O   O19       1.0  0.31920  0.11472  0.45769  1.0000
  O   O20       1.0  0.18080  0.61472  0.04231  1.0000
  O   O21       1.0  0.64732  0.79819  0.91550  1.0000
  O   O22       1.0  0.85268  0.29819  0.58450  1.0000
  O   O23       1.0  0.35268  0.20181  0.08450  1.0000
  O   O24       1.0  0.14732  0.70181  0.41550  1.0000
  O   O25       1.0  0.68630  0.91964  0.84696  1.0000
  O   O26       1.0  0.81370  0.41964  0.65304  1.0000
  O   O27       1.0  0.31370  0.08036  0.15304  1.0000
  O   O28       1.0  0.18630  0.58036  0.34696  1.0000
  O   O29       1.0  0.77073  0.52782  0.36712  1.0000
  O   O30       1.0  0.72927  0.02782  0.13288  1.0000
  O   O31       1.0  0.22927  0.47218  0.63288  1.0000
  O   O32       1.0  0.27073  0.97218  0.86712  1.0000
  O   O33       1.0  0.96198  0.54130  0.42049  1.0000
  O   O34       1.0  0.53802  0.04130  0.07951  1.0000
  O   O35       1.0  0.03802  0.45870  0.57951  1.0000
  O   O36       1.0  0.46198  0.95870  0.92049  1.0000
  O   O37       1.0  0.91270  0.43144  0.25212  1.0000
  O   O38       1.0  0.58730  0.93144  0.24788  1.0000
  O   O39       1.0  0.08730  0.56856  0.74788  1.0000
  O   O40       1.0  0.41270  0.06856  0.75212  1.0000
  O   O41       1.0  0.01600  0.46966  0.16448  1.0000
  O   O42       1.0  0.48400  0.96966  0.33552  1.0000
  O   O43       1.0  0.98400  0.53034  0.83552  1.0000
  O   O44       1.0  0.51600  0.03034  0.66448  1.0000
  O   O45       1.0  0.93876  0.75949  0.01684  1.0000
  O   O46       1.0  0.56124  0.25949  0.48316  1.0000
  O   O47       1.0  0.06124  0.24051  0.98316  1.0000
  O   O48       1.0  0.43876  0.74051  0.51684  1.0000
  O   O49       1.0  0.83497  0.86770  0.06169  1.0000
  O   O50       1.0  0.66503  0.36770  0.43831  1.0000
  O   O51       1.0  0.16503  0.13230  0.93831  1.0000
  O   O52       1.0  0.33497  0.63230  0.56169  1.0000
  C   C1        1.0  0.75430  0.60172  0.57603  1.0000
  C   C2        1.0  0.74570  0.10172  0.92397  1.0000
  C   C3        1.0  0.24570  0.39828  0.42397  1.0000
  C   C4        1.0  0.25430  0.89828  0.07603  1.0000
  C   C5        1.0  0.72880  0.66546  0.64385  1.0000
  C   C6        1.0  0.77120  0.16546  0.85615  1.0000
  C   C7        1.0  0.27120  0.33454  0.35615  1.0000
  C   C8        1.0  0.22880  0.83454  0.14385  1.0000
  C   C9        1.0  0.72620  0.62727  0.72296  1.0000
  C   C10       1.0  0.77380  0.12727  0.77704  1.0000
  C   C11       1.0  0.27380  0.37273  0.27704  1.0000
  C   C12       1.0  0.22620  0.87273  0.22296  1.0000
  H   H9        1.0  0.73710  0.56440  0.73140  1.0000
  H   H10       1.0  0.76290  0.06440  0.76860  1.0000
  H   H11       1.0  0.26290  0.43560  0.26860  1.0000
  H   H12       1.0  0.23710  0.93560  0.23140  1.0000
  C   C13       1.0  0.70770  0.68116  0.78968  1.0000
  C   C14       1.0  0.79230  0.18116  0.71032  1.0000
  C   C15       1.0  0.29230  0.31884  0.21032  1.0000
  C   C16       1.0  0.20770  0.81884  0.28968  1.0000
  H   H13       1.0  0.70620  0.65410  0.84230  1.0000
  H   H14       1.0  0.79380  0.15410  0.65770  1.0000
  H   H15       1.0  0.29380  0.34590  0.15770  1.0000
  H   H16       1.0  0.20620  0.84590  0.34230  1.0000
  C   C17       1.0  0.69150  0.77454  0.77900  1.0000
  C   C18       1.0  0.80850  0.27454  0.72100  1.0000
  C   C19       1.0  0.30850  0.22546  0.22100  1.0000
  C   C20       1.0  0.19150  0.72546  0.27900  1.0000
  C   C21       1.0  0.69460  0.81449  0.70068  1.0000
  C   C22       1.0  0.80540  0.31449  0.79932  1.0000
  C   C23       1.0  0.30540  0.18551  0.29932  1.0000
  C   C24       1.0  0.19460  0.68551  0.20068  1.0000
  H   H17       1.0  0.68560  0.87760  0.69290  1.0000
  H   H18       1.0  0.81440  0.37760  0.80710  1.0000
  H   H19       1.0  0.31440  0.12240  0.30710  1.0000
  H   H20       1.0  0.18560  0.62240  0.19290  1.0000
  C   C25       1.0  0.71120  0.75969  0.63437  1.0000
  C   C26       1.0  0.78880  0.25969  0.86563  1.0000
  C   C27       1.0  0.28880  0.24031  0.36563  1.0000
  C   C28       1.0  0.21120  0.74031  0.13437  1.0000
  C   C29       1.0  0.67330  0.83430  0.85162  1.0000
  C   C30       1.0  0.82670  0.33430  0.64838  1.0000
  C   C31       1.0  0.32670  0.16570  0.14838  1.0000
  C   C32       1.0  0.17330  0.66570  0.35162  1.0000
  C   C33       1.0  0.86800  0.55664  0.36166  1.0000
  C   C34       1.0  0.63200  0.05664  0.13834  1.0000
  C   C35       1.0  0.13200  0.44336  0.63834  1.0000
  C   C36       1.0  0.36800  0.94336  0.86166  1.0000
  C   C37       1.0  0.87320  0.61525  0.28445  1.0000
  C   C38       1.0  0.62680  0.11525  0.21555  1.0000
  C   C39       1.0  0.12680  0.38475  0.71555  1.0000
  C   C40       1.0  0.37320  0.88475  0.78445  1.0000
  C   C41       1.0  0.83590  0.70563  0.28221  1.0000
  C   C42       1.0  0.66410  0.20563  0.21779  1.0000
  C   C43       1.0  0.16410  0.29437  0.71779  1.0000
  C   C44       1.0  0.33590  0.79437  0.78221  1.0000
  H   H21       1.0  0.80900  0.72860  0.32800  1.0000
  H   H22       1.0  0.69100  0.22860  0.17200  1.0000
  H   H23       1.0  0.19100  0.27140  0.67200  1.0000
  H   H24       1.0  0.30900  0.77140  0.82800  1.0000
  C   C45       1.0  0.83810  0.76243  0.21258  1.0000
  C   C46       1.0  0.66190  0.26243  0.28742  1.0000
  C   C47       1.0  0.16190  0.23757  0.78742  1.0000
  C   C48       1.0  0.33810  0.73757  0.71258  1.0000
  H   H25       1.0  0.81090  0.82250  0.21160  1.0000
  H   H26       1.0  0.68910  0.32250  0.28840  1.0000
  H   H27       1.0  0.18910  0.17750  0.78840  1.0000
  H   H28       1.0  0.31090  0.67750  0.71160  1.0000
  C   C49       1.0  0.88040  0.73057  0.14446  1.0000
  C   C50       1.0  0.61960  0.23057  0.35554  1.0000
  C   C51       1.0  0.11960  0.26943  0.85554  1.0000
  C   C52       1.0  0.38040  0.76943  0.64446  1.0000
  C   C53       1.0  0.91910  0.64024  0.14598  1.0000
  C   C54       1.0  0.58090  0.14024  0.35402  1.0000
  C   C55       1.0  0.08090  0.35976  0.85402  1.0000
  C   C56       1.0  0.41910  0.85976  0.64598  1.0000
  H   H29       1.0  0.94760  0.61760  0.10080  1.0000
  H   H30       1.0  0.55240  0.11760  0.39920  1.0000
  H   H31       1.0  0.05240  0.38240  0.89920  1.0000
  H   H32       1.0  0.44760  0.88240  0.60080  1.0000
  C   C57       1.0  0.91470  0.58471  0.21487  1.0000
  C   C58       1.0  0.58530  0.08471  0.28513  1.0000
  C   C59       1.0  0.08530  0.41529  0.78513  1.0000
  C   C60       1.0  0.41470  0.91529  0.71487  1.0000
  C   C61       1.0  0.88500  0.79029  0.06802  1.0000
  C   C62       1.0  0.61500  0.29029  0.43198  1.0000
  C   C63       1.0  0.11500  0.20971  0.93198  1.0000
  C   C64       1.0  0.38500  0.70971  0.56802  1.0000
  N   N1        1.0  0.70580  0.80359  0.55031  1.0000
  N   N2        1.0  0.79420  0.30359  0.94969  1.0000
  N   N3        1.0  0.29420  0.19641  0.44969  1.0000
  N   N4        1.0  0.20580  0.69641  0.05031  1.0000
  N   N5        1.0  0.95090  0.48843  0.21040  1.0000
  N   N6        1.0  0.54910  0.98843  0.28960  1.0000
  N   N7        1.0  0.04910  0.51157  0.78960  1.0000
  N   N8        1.0  0.45090  0.01157  0.71040  1.0000
