data_image0
_chemical_formula_structural       Zn16O96C16O8C32O24C16
_chemical_formula_sum              "Zn16 O128 C64"
_cell_length_a       15.2706
_cell_length_b       9.0584
_cell_length_c       38.2638
_cell_angle_alpha    90
_cell_angle_beta     90.4
_cell_angle_gamma    90

_space_group_name_H-M_alt    "P 1"
_space_group_IT_number       1

loop_
  _space_group_symop_operation_xyz
  'x, y, z'

loop_
  _atom_site_type_symbol
  _atom_site_label
  _atom_site_symmetry_multiplicity
  _atom_site_fract_x
  _atom_site_fract_y
  _atom_site_fract_z
  _atom_site_occupancy
  Zn  Zn1       1.0  0.61099  0.08860  0.55291  1.0000
  Zn  Zn2       1.0  0.11099  0.58860  0.55291  1.0000
  Zn  Zn3       1.0  0.38901  0.08860  0.94709  1.0000
  Zn  Zn4       1.0  0.88901  0.58860  0.94709  1.0000
  Zn  Zn5       1.0  0.38901  0.91140  0.44709  1.0000
  Zn  Zn6       1.0  0.88901  0.41140  0.44709  1.0000
  Zn  Zn7       1.0  0.61099  0.91140  0.05291  1.0000
  Zn  Zn8       1.0  0.11099  0.41140  0.05291  1.0000
  Zn  Zn9       1.0  0.56944  0.24631  0.68618  1.0000
  Zn  Zn10      1.0  0.06944  0.74631  0.68618  1.0000
  Zn  Zn11      1.0  0.43056  0.24631  0.81382  1.0000
  Zn  Zn12      1.0  0.93056  0.74631  0.81382  1.0000
  Zn  Zn13      1.0  0.43056  0.75369  0.31382  1.0000
  Zn  Zn14      1.0  0.93056  0.25369  0.31382  1.0000
  Zn  Zn15      1.0  0.56944  0.75369  0.18618  1.0000
  Zn  Zn16      1.0  0.06944  0.25369  0.18618  1.0000
  O   O1        1.0  0.56090  0.16250  0.50477  1.0000
  O   O2        1.0  0.06090  0.66250  0.50477  1.0000
  O   O3        1.0  0.43910  0.16250  0.99523  1.0000
  O   O4        1.0  0.93910  0.66250  0.99523  1.0000
  O   O5        1.0  0.43910  0.83750  0.49523  1.0000
  O   O6        1.0  0.93910  0.33750  0.49523  1.0000
  O   O7        1.0  0.56090  0.83750  0.00477  1.0000
  O   O8        1.0  0.06090  0.33750  0.00477  1.0000
  O   O9        1.0  0.59850  0.05300  0.65970  1.0000
  O   O10       1.0  0.09850  0.55300  0.65970  1.0000
  O   O11       1.0  0.40150  0.05300  0.84030  1.0000
  O   O12       1.0  0.90150  0.55300  0.84030  1.0000
  O   O13       1.0  0.40150  0.94700  0.34030  1.0000
  O   O14       1.0  0.90150  0.44700  0.34030  1.0000
  O   O15       1.0  0.59850  0.94700  0.15970  1.0000
  O   O16       1.0  0.09850  0.44700  0.15970  1.0000
  O   O17       1.0  0.51280  0.29560  0.63754  1.0000
  O   O18       1.0  0.01280  0.79560  0.63754  1.0000
  O   O19       1.0  0.48720  0.29560  0.86246  1.0000
  O   O20       1.0  0.98720  0.79560  0.86246  1.0000
  O   O21       1.0  0.48720  0.70440  0.36246  1.0000
  O   O22       1.0  0.98720  0.20440  0.36246  1.0000
  O   O23       1.0  0.51280  0.70440  0.13754  1.0000
  O   O24       1.0  0.01280  0.20440  0.13754  1.0000
  O   O25       1.0  0.56020  0.47100  0.69954  1.0000
  O   O26       1.0  0.06020  0.97100  0.69954  1.0000
  O   O27       1.0  0.43980  0.47100  0.80046  1.0000
  O   O28       1.0  0.93980  0.97100  0.80046  1.0000
  O   O29       1.0  0.43980  0.52900  0.30046  1.0000
  O   O30       1.0  0.93980  0.02900  0.30046  1.0000
  O   O31       1.0  0.56020  0.52900  0.19954  1.0000
  O   O32       1.0  0.06020  0.02900  0.19954  1.0000
  O   O33       1.0  0.60990  0.18740  0.73786  1.0000
  O   O34       1.0  0.10990  0.68740  0.73786  1.0000
  O   O35       1.0  0.39010  0.18740  0.76214  1.0000
  O   O36       1.0  0.89010  0.68740  0.76214  1.0000
  O   O37       1.0  0.39010  0.81260  0.26214  1.0000
  O   O38       1.0  0.89010  0.31260  0.26214  1.0000
  O   O39       1.0  0.60990  0.81260  0.23786  1.0000
  O   O40       1.0  0.10990  0.31260  0.23786  1.0000
  O   O41       1.0  0.47190  0.08770  0.46127  1.0000
  O   O42       1.0  0.97190  0.58770  0.46127  1.0000
  O   O43       1.0  0.52810  0.08770  0.03873  1.0000
  O   O44       1.0  0.02810  0.58770  0.03873  1.0000
  O   O45       1.0  0.52810  0.91230  0.53873  1.0000
  O   O46       1.0  0.02810  0.41230  0.53873  1.0000
  O   O47       1.0  0.47190  0.91230  0.96127  1.0000
  O   O48       1.0  0.97190  0.41230  0.96127  1.0000
  O   O49       1.0  0.55050  0.20120  0.79091  1.0000
  O   O50       1.0  0.05050  0.70120  0.79091  1.0000
  O   O51       1.0  0.44950  0.20120  0.70909  1.0000
  O   O52       1.0  0.94950  0.70120  0.70909  1.0000
  O   O53       1.0  0.44950  0.79880  0.20909  1.0000
  O   O54       1.0  0.94950  0.29880  0.20909  1.0000
  O   O55       1.0  0.55050  0.79880  0.29091  1.0000
  O   O56       1.0  0.05050  0.29880  0.29091  1.0000
  O   O57       1.0  0.62160  0.98840  0.60440  1.0000
  O   O58       1.0  0.12160  0.48840  0.60440  1.0000
  O   O59       1.0  0.37840  0.98840  0.89560  1.0000
  O   O60       1.0  0.87840  0.48840  0.89560  1.0000
  O   O61       1.0  0.37840  0.01160  0.39560  1.0000
  O   O62       1.0  0.87840  0.51160  0.39560  1.0000
  O   O63       1.0  0.62160  0.01160  0.10440  1.0000
  O   O64       1.0  0.12160  0.51160  0.10440  1.0000
  O   O65       1.0  0.70660  0.25460  0.56387  1.0000
  O   O66       1.0  0.20660  0.75460  0.56387  1.0000
  O   O67       1.0  0.29340  0.25460  0.93613  1.0000
  O   O68       1.0  0.79340  0.75460  0.93613  1.0000
  O   O69       1.0  0.29340  0.74540  0.43613  1.0000
  O   O70       1.0  0.79340  0.24540  0.43613  1.0000
  O   O71       1.0  0.70660  0.74540  0.06387  1.0000
  O   O72       1.0  0.20660  0.24540  0.06387  1.0000
  O   O73       1.0  0.69640  0.31660  0.67535  1.0000
  O   O74       1.0  0.19640  0.81660  0.67535  1.0000
  O   O75       1.0  0.30360  0.31660  0.82465  1.0000
  O   O76       1.0  0.80360  0.81660  0.82465  1.0000
  O   O77       1.0  0.30360  0.68340  0.32465  1.0000
  O   O78       1.0  0.80360  0.18340  0.32465  1.0000
  O   O79       1.0  0.69640  0.68340  0.17535  1.0000
  O   O80       1.0  0.19640  0.18340  0.17535  1.0000
  O   O81       1.0  0.52830  0.22210  0.58224  1.0000
  O   O82       1.0  0.02830  0.72210  0.58224  1.0000
  O   O83       1.0  0.47170  0.22210  0.91776  1.0000
  O   O84       1.0  0.97170  0.72210  0.91776  1.0000
  O   O85       1.0  0.47170  0.77790  0.41776  1.0000
  O   O86       1.0  0.97170  0.27790  0.41776  1.0000
  O   O87       1.0  0.52830  0.77790  0.08224  1.0000
  O   O88       1.0  0.02830  0.27790  0.08224  1.0000
  O   O89       1.0  0.72440  0.97820  0.54161  1.0000
  O   O90       1.0  0.22440  0.47820  0.54161  1.0000
  O   O91       1.0  0.27560  0.97820  0.95839  1.0000
  O   O92       1.0  0.77560  0.47820  0.95839  1.0000
  O   O93       1.0  0.27560  0.02180  0.45839  1.0000
  O   O94       1.0  0.77560  0.52180  0.45839  1.0000
  O   O95       1.0  0.72440  0.02180  0.04161  1.0000
  O   O96       1.0  0.22440  0.52180  0.04161  1.0000
  C   C1        1.0  0.54680  0.19210  0.75808  1.0000
  C   C2        1.0  0.04680  0.69210  0.75808  1.0000
  C   C3        1.0  0.45320  0.19210  0.74192  1.0000
  C   C4        1.0  0.95320  0.69210  0.74192  1.0000
  C   C5        1.0  0.45320  0.80790  0.24192  1.0000
  C   C6        1.0  0.95320  0.30790  0.24192  1.0000
  C   C7        1.0  0.54680  0.80790  0.25808  1.0000
  C   C8        1.0  0.04680  0.30790  0.25808  1.0000
  C   C9        1.0  0.59060  0.07010  0.62721  1.0000
  C   C10       1.0  0.09060  0.57010  0.62721  1.0000
  C   C11       1.0  0.40940  0.07010  0.87279  1.0000
  C   C12       1.0  0.90940  0.57010  0.87279  1.0000
  C   C13       1.0  0.40940  0.92990  0.37279  1.0000
  C   C14       1.0  0.90940  0.42990  0.37279  1.0000
  C   C15       1.0  0.59060  0.92990  0.12721  1.0000
  C   C16       1.0  0.09060  0.42990  0.12721  1.0000
  O   O97       1.0  0.63690  0.67870  0.69564  1.0000
  O   O98       1.0  0.13690  0.17870  0.69564  1.0000
  O   O99       1.0  0.36310  0.67870  0.80436  1.0000
  O   O100      1.0  0.86310  0.17870  0.80436  1.0000
  O   O101      1.0  0.36310  0.32130  0.30436  1.0000
  O   O102      1.0  0.86310  0.82130  0.30436  1.0000
  O   O103      1.0  0.63690  0.32130  0.19564  1.0000
  O   O104      1.0  0.13690  0.82130  0.19564  1.0000
  C   C17       1.0  0.70840  0.45390  0.67990  1.0000
  C   C18       1.0  0.20840  0.95390  0.67990  1.0000
  C   C19       1.0  0.29160  0.45390  0.82010  1.0000
  C   C20       1.0  0.79160  0.95390  0.82010  1.0000
  C   C21       1.0  0.29160  0.54610  0.32010  1.0000
  C   C22       1.0  0.79160  0.04610  0.32010  1.0000
  C   C23       1.0  0.70840  0.54610  0.17990  1.0000
  C   C24       1.0  0.20840  0.04610  0.17990  1.0000
  C   C25       1.0  0.53910  0.20740  0.61464  1.0000
  C   C26       1.0  0.03910  0.70740  0.61464  1.0000
  C   C27       1.0  0.46090  0.20740  0.88536  1.0000
  C   C28       1.0  0.96090  0.70740  0.88536  1.0000
  C   C29       1.0  0.46090  0.79260  0.38536  1.0000
  C   C30       1.0  0.96090  0.29260  0.38536  1.0000
  C   C31       1.0  0.53910  0.79260  0.11464  1.0000
  C   C32       1.0  0.03910  0.29260  0.11464  1.0000
  C   C33       1.0  0.51000  0.07220  0.49023  1.0000
  C   C34       1.0  0.01000  0.57220  0.49023  1.0000
  C   C35       1.0  0.49000  0.07220  0.00977  1.0000
  C   C36       1.0  0.99000  0.57220  0.00977  1.0000
  C   C37       1.0  0.49000  0.92780  0.50977  1.0000
  C   C38       1.0  0.99000  0.42780  0.50977  1.0000
  C   C39       1.0  0.51000  0.92780  0.99023  1.0000
  C   C40       1.0  0.01000  0.42780  0.99023  1.0000
  C   C41       1.0  0.62850  0.54320  0.69306  1.0000
  C   C42       1.0  0.12850  0.04320  0.69306  1.0000
  C   C43       1.0  0.37150  0.54320  0.80694  1.0000
  C   C44       1.0  0.87150  0.04320  0.80694  1.0000
  C   C45       1.0  0.37150  0.45680  0.30694  1.0000
  C   C46       1.0  0.87150  0.95680  0.30694  1.0000
  C   C47       1.0  0.62850  0.45680  0.19306  1.0000
  C   C48       1.0  0.12850  0.95680  0.19306  1.0000
  O   O105      1.0  0.77690  0.52160  0.67456  1.0000
  O   O106      1.0  0.27690  0.02160  0.67456  1.0000
  O   O107      1.0  0.22310  0.52160  0.82544  1.0000
  O   O108      1.0  0.72310  0.02160  0.82544  1.0000
  O   O109      1.0  0.22310  0.47840  0.32544  1.0000
  O   O110      1.0  0.72310  0.97840  0.32544  1.0000
  O   O111      1.0  0.77690  0.47840  0.17456  1.0000
  O   O112      1.0  0.27690  0.97840  0.17456  1.0000
  O   O113      1.0  0.84740  0.25670  0.58095  1.0000
  O   O114      1.0  0.34740  0.75670  0.58095  1.0000
  O   O115      1.0  0.15260  0.25670  0.91905  1.0000
  O   O116      1.0  0.65260  0.75670  0.91905  1.0000
  O   O117      1.0  0.15260  0.74330  0.41905  1.0000
  O   O118      1.0  0.65260  0.24330  0.41905  1.0000
  O   O119      1.0  0.84740  0.74330  0.08095  1.0000
  O   O120      1.0  0.34740  0.24330  0.08095  1.0000
  O   O121      1.0  0.86680  0.98300  0.55367  1.0000
  O   O122      1.0  0.36680  0.48300  0.55367  1.0000
  O   O123      1.0  0.13320  0.98300  0.94633  1.0000
  O   O124      1.0  0.63320  0.48300  0.94633  1.0000
  O   O125      1.0  0.13320  0.01700  0.44633  1.0000
  O   O126      1.0  0.63320  0.51700  0.44633  1.0000
  O   O127      1.0  0.86680  0.01700  0.05367  1.0000
  O   O128      1.0  0.36680  0.51700  0.05367  1.0000
  C   C49       1.0  0.78280  0.19820  0.56745  1.0000
  C   C50       1.0  0.28280  0.69820  0.56745  1.0000
  C   C51       1.0  0.21720  0.19820  0.93255  1.0000
  C   C52       1.0  0.71720  0.69820  0.93255  1.0000
  C   C53       1.0  0.21720  0.80180  0.43255  1.0000
  C   C54       1.0  0.71720  0.30180  0.43255  1.0000
  C   C55       1.0  0.78280  0.80180  0.06745  1.0000
  C   C56       1.0  0.28280  0.30180  0.06745  1.0000
  C   C57       1.0  0.79240  0.03990  0.55310  1.0000
  C   C58       1.0  0.29240  0.53990  0.55310  1.0000
  C   C59       1.0  0.20760  0.03990  0.94690  1.0000
  C   C60       1.0  0.70760  0.53990  0.94690  1.0000
  C   C61       1.0  0.20760  0.96010  0.44690  1.0000
  C   C62       1.0  0.70760  0.46010  0.44690  1.0000
  C   C63       1.0  0.79240  0.96010  0.05310  1.0000
  C   C64       1.0  0.29240  0.46010  0.05310  1.0000
