data_image0
_chemical_formula_structural       Zn8O48C6O4C18O4C4
_chemical_formula_sum              "Zn8 O56 C28"
_cell_length_a       8.7924
_cell_length_b       35.595
_cell_length_c       9.2583
_cell_angle_alpha    90
_cell_angle_beta     96.602
_cell_angle_gamma    90

_space_group_name_H-M_alt    "P 1"
_space_group_IT_number       1

loop_
  _space_group_symop_operation_xyz
  'x, y, z'

loop_
  _atom_site_type_symbol
  _atom_site_label
  _atom_site_symmetry_multiplicity
  _atom_site_fract_x
  _atom_site_fract_y
  _atom_site_fract_z
  _atom_site_occupancy
  Zn  Zn1       1.0  0.21120  0.40684  0.45580  1.0000
  Zn  Zn2       1.0  0.78880  0.90684  0.54420  1.0000
  Zn  Zn3       1.0  0.78880  0.59316  0.54420  1.0000
  Zn  Zn4       1.0  0.21120  0.09316  0.45580  1.0000
  Zn  Zn5       1.0  0.22090  0.32637  0.95980  1.0000
  Zn  Zn6       1.0  0.77910  0.82637  0.04020  1.0000
  Zn  Zn7       1.0  0.77910  0.67363  0.04020  1.0000
  Zn  Zn8       1.0  0.22090  0.17363  0.95980  1.0000
  O   O1        1.0  0.09430  0.28150  0.86760  1.0000
  O   O2        1.0  0.90570  0.78150  0.13240  1.0000
  O   O3        1.0  0.90570  0.71850  0.13240  1.0000
  O   O4        1.0  0.09430  0.21850  0.86760  1.0000
  O   O5        1.0  0.35340  0.28130  0.04800  1.0000
  O   O6        1.0  0.64660  0.78130  0.95200  1.0000
  O   O7        1.0  0.64660  0.71870  0.95200  1.0000
  O   O8        1.0  0.35340  0.21870  0.04800  1.0000
  O   O9        1.0  0.34370  0.36740  0.58350  1.0000
  O   O10       1.0  0.65630  0.86740  0.41650  1.0000
  O   O11       1.0  0.65630  0.63260  0.41650  1.0000
  O   O12       1.0  0.34370  0.13260  0.58350  1.0000
  O   O13       1.0  0.07830  0.39880  0.62730  1.0000
  O   O14       1.0  0.92170  0.89880  0.37270  1.0000
  O   O15       1.0  0.92170  0.60120  0.37270  1.0000
  O   O16       1.0  0.07830  0.10120  0.62730  1.0000
  O   O17       1.0  0.07850  0.45040  0.36210  1.0000
  O   O18       1.0  0.92150  0.95040  0.63790  1.0000
  O   O19       1.0  0.92150  0.54960  0.63790  1.0000
  O   O20       1.0  0.07850  0.04960  0.36210  1.0000
  O   O21       1.0  0.34800  0.39980  0.28550  1.0000
  O   O22       1.0  0.65200  0.89980  0.71450  1.0000
  O   O23       1.0  0.65200  0.60020  0.71450  1.0000
  O   O24       1.0  0.34800  0.10020  0.28550  1.0000
  O   O25       1.0  0.33060  0.45200  0.56280  1.0000
  O   O26       1.0  0.66940  0.95200  0.43720  1.0000
  O   O27       1.0  0.66940  0.54800  0.43720  1.0000
  O   O28       1.0  0.33060  0.04800  0.56280  1.0000
  O   O29       1.0  0.07920  0.36620  0.32850  1.0000
  O   O30       1.0  0.92080  0.86620  0.67150  1.0000
  O   O31       1.0  0.92080  0.63380  0.67150  1.0000
  O   O32       1.0  0.07920  0.13380  0.32850  1.0000
  O   O33       1.0  0.08580  0.36630  0.83550  1.0000
  O   O34       1.0  0.91420  0.86630  0.16450  1.0000
  O   O35       1.0  0.91420  0.63370  0.16450  1.0000
  O   O36       1.0  0.08580  0.13370  0.83550  1.0000
  O   O37       1.0  0.35590  0.36430  0.08160  1.0000
  O   O38       1.0  0.64410  0.86430  0.91840  1.0000
  O   O39       1.0  0.64410  0.63570  0.91840  1.0000
  O   O40       1.0  0.35590  0.13570  0.08160  1.0000
  O   O41       1.0  0.08950  0.33250  0.13270  1.0000
  O   O42       1.0  0.91050  0.83250  0.86730  1.0000
  O   O43       1.0  0.91050  0.66750  0.86730  1.0000
  O   O44       1.0  0.08950  0.16750  0.13270  1.0000
  O   O45       1.0  0.34870  0.33330  0.78760  1.0000
  O   O46       1.0  0.65130  0.83330  0.21240  1.0000
  O   O47       1.0  0.65130  0.66670  0.21240  1.0000
  O   O48       1.0  0.34870  0.16670  0.78760  1.0000
  C   C1        1.0  0.29210  0.25000  0.01470  1.0000
  C   C2        1.0  0.70790  0.75000  0.98530  1.0000
  C   C3        1.0  0.13640  0.37670  0.72160  1.0000
  C   C4        1.0  0.86360  0.87670  0.27840  1.0000
  C   C5        1.0  0.86360  0.62330  0.27840  1.0000
  C   C6        1.0  0.13640  0.12330  0.72160  1.0000
  O   O49       1.0  0.08650  0.51280  0.35150  1.0000
  O   O50       1.0  0.91350  0.01280  0.64850  1.0000
  O   O51       1.0  0.91350  0.48720  0.64850  1.0000
  O   O52       1.0  0.08650  0.98720  0.35150  1.0000
  C   C7        1.0  0.29090  0.35920  0.69480  1.0000
  C   C8        1.0  0.70910  0.85920  0.30520  1.0000
  C   C9        1.0  0.70910  0.64080  0.30520  1.0000
  C   C10       1.0  0.29090  0.14080  0.69480  1.0000
  C   C11       1.0  0.14650  0.25000  0.91290  1.0000
  C   C12       1.0  0.85350  0.75000  0.08710  1.0000
  C   C13       1.0  0.14330  0.35660  0.22270  1.0000
  C   C14       1.0  0.85670  0.85660  0.77730  1.0000
  C   C15       1.0  0.85670  0.64340  0.77730  1.0000
  C   C16       1.0  0.14330  0.14340  0.22270  1.0000
  C   C17       1.0  0.27230  0.48350  0.51630  1.0000
  C   C18       1.0  0.72770  0.98350  0.48370  1.0000
  C   C19       1.0  0.72770  0.51650  0.48370  1.0000
  C   C20       1.0  0.27230  0.01650  0.51630  1.0000
  C   C21       1.0  0.29370  0.37540  0.18820  1.0000
  C   C22       1.0  0.70630  0.87540  0.81180  1.0000
  C   C23       1.0  0.70630  0.62460  0.81180  1.0000
  C   C24       1.0  0.29370  0.12460  0.18820  1.0000
  O   O53       1.0  0.30840  0.51270  0.58410  1.0000
  O   O54       1.0  0.69160  0.01270  0.41590  1.0000
  O   O55       1.0  0.69160  0.48730  0.41590  1.0000
  O   O56       1.0  0.30840  0.98730  0.58410  1.0000
  C   C25       1.0  0.13570  0.48200  0.40060  1.0000
  C   C26       1.0  0.86430  0.98200  0.59940  1.0000
  C   C27       1.0  0.86430  0.51800  0.59940  1.0000
  C   C28       1.0  0.13570  0.01800  0.40060  1.0000
