data_image0
_chemical_formula_structural       Mn2C6Br6C12O12
_chemical_formula_sum              "Mn2 C18 Br6 O12"
_cell_length_a       13.9147
_cell_length_b       13.9147
_cell_length_c       9.1747
_cell_angle_alpha    90
_cell_angle_beta     90
_cell_angle_gamma    120

_space_group_name_H-M_alt    "P 1"
_space_group_IT_number       1

loop_
  _space_group_symop_operation_xyz
  'x, y, z'

loop_
  _atom_site_type_symbol
  _atom_site_label
  _atom_site_symmetry_multiplicity
  _atom_site_fract_x
  _atom_site_fract_y
  _atom_site_fract_z
  _atom_site_occupancy
  Mn  Mn1       1.0  0.66670  0.33330  0.00000  1.0000
  Mn  Mn2       1.0  0.33330  0.66670  0.00000  1.0000
  C   C1        1.0  0.42490  0.00000  0.10910  1.0000
  C   C2        1.0  0.00000  0.42490  0.10910  1.0000
  C   C3        1.0  0.57510  0.57510  0.10910  1.0000
  C   C4        1.0  0.00000  0.57510  0.89090  1.0000
  C   C5        1.0  0.57510  0.00000  0.89090  1.0000
  C   C6        1.0  0.42490  0.42490  0.89090  1.0000
  Br  Br1       1.0  0.32500  0.00000  0.24856  1.0000
  Br  Br2       1.0  0.00000  0.32500  0.24856  1.0000
  Br  Br3       1.0  0.67500  0.67500  0.24856  1.0000
  Br  Br4       1.0  0.00000  0.67500  0.75144  1.0000
  Br  Br5       1.0  0.67500  0.00000  0.75144  1.0000
  Br  Br6       1.0  0.32500  0.32500  0.75144  1.0000
  C   C7        1.0  0.51260  0.10100  0.06160  1.0000
  C   C8        1.0  0.89900  0.41160  0.06160  1.0000
  C   C9        1.0  0.58840  0.48740  0.06160  1.0000
  C   C10       1.0  0.89900  0.48740  0.93840  1.0000
  C   C11       1.0  0.58840  0.10100  0.93840  1.0000
  C   C12       1.0  0.51260  0.41160  0.93840  1.0000
  C   C13       1.0  0.48740  0.89900  0.93840  1.0000
  C   C14       1.0  0.10100  0.58840  0.93840  1.0000
  C   C15       1.0  0.41160  0.51260  0.93840  1.0000
  C   C16       1.0  0.10100  0.51260  0.06160  1.0000
  C   C17       1.0  0.41160  0.89900  0.06160  1.0000
  C   C18       1.0  0.48740  0.58840  0.06160  1.0000
  O   O1        1.0  0.53720  0.19500  0.10950  1.0000
  O   O2        1.0  0.80500  0.34220  0.10950  1.0000
  O   O3        1.0  0.65780  0.46280  0.10950  1.0000
  O   O4        1.0  0.80500  0.46280  0.89050  1.0000
  O   O5        1.0  0.65780  0.19500  0.89050  1.0000
  O   O6        1.0  0.53720  0.34220  0.89050  1.0000
  O   O7        1.0  0.46280  0.80500  0.89050  1.0000
  O   O8        1.0  0.19500  0.65780  0.89050  1.0000
  O   O9        1.0  0.34220  0.53720  0.89050  1.0000
  O   O10       1.0  0.19500  0.53720  0.10950  1.0000
  O   O11       1.0  0.34220  0.80500  0.10950  1.0000
  O   O12       1.0  0.46280  0.65780  0.10950  1.0000
