data_image0
_chemical_formula_structural       Cd8O80H16O16C48H16C32H16C32H16C32
_chemical_formula_sum              "Cd8 O96 H64 C144"
_cell_length_a       15.8227
_cell_length_b       45.308
_cell_length_c       12.7105
_cell_angle_alpha    90
_cell_angle_beta     90
_cell_angle_gamma    90

_space_group_name_H-M_alt    "P 1"
_space_group_IT_number       1

loop_
  _space_group_symop_operation_xyz
  'x, y, z'

loop_
  _atom_site_type_symbol
  _atom_site_label
  _atom_site_symmetry_multiplicity
  _atom_site_fract_x
  _atom_site_fract_y
  _atom_site_fract_z
  _atom_site_occupancy
  Cd  Cd1       1.0  0.00000  0.00000  0.42221  1.0000
  Cd  Cd2       1.0  0.25000  0.25000  0.67221  1.0000
  Cd  Cd3       1.0  0.00000  0.50000  0.92221  1.0000
  Cd  Cd4       1.0  0.25000  0.75000  0.17221  1.0000
  Cd  Cd5       1.0  0.50000  0.00000  0.92221  1.0000
  Cd  Cd6       1.0  0.75000  0.25000  0.17221  1.0000
  Cd  Cd7       1.0  0.50000  0.50000  0.42221  1.0000
  Cd  Cd8       1.0  0.75000  0.75000  0.67221  1.0000
  O   O1        1.0  0.06977  0.03782  0.50490  1.0000
  O   O2        1.0  0.93023  0.96218  0.50490  1.0000
  O   O3        1.0  0.31977  0.21218  0.75490  1.0000
  O   O4        1.0  0.18023  0.28782  0.75490  1.0000
  O   O5        1.0  0.06977  0.53782  0.00490  1.0000
  O   O6        1.0  0.93023  0.46218  0.00490  1.0000
  O   O7        1.0  0.31977  0.71218  0.25490  1.0000
  O   O8        1.0  0.18023  0.78782  0.25490  1.0000
  O   O9        1.0  0.56977  0.03782  0.00490  1.0000
  O   O10       1.0  0.43023  0.96218  0.00490  1.0000
  O   O11       1.0  0.81977  0.21218  0.25490  1.0000
  O   O12       1.0  0.68023  0.28782  0.25490  1.0000
  O   O13       1.0  0.56977  0.53782  0.50490  1.0000
  O   O14       1.0  0.43023  0.46218  0.50490  1.0000
  O   O15       1.0  0.81977  0.71218  0.75490  1.0000
  O   O16       1.0  0.68023  0.78782  0.75490  1.0000
  O   O17       1.0  0.12218  0.99595  0.55760  1.0000
  O   O18       1.0  0.87782  0.00405  0.55760  1.0000
  O   O19       1.0  0.37218  0.25405  0.80760  1.0000
  O   O20       1.0  0.12782  0.24595  0.80760  1.0000
  O   O21       1.0  0.12218  0.49595  0.05760  1.0000
  O   O22       1.0  0.87782  0.50405  0.05760  1.0000
  O   O23       1.0  0.37218  0.75405  0.30760  1.0000
  O   O24       1.0  0.12782  0.74595  0.30760  1.0000
  O   O25       1.0  0.62218  0.99595  0.05760  1.0000
  O   O26       1.0  0.37782  0.00405  0.05760  1.0000
  O   O27       1.0  0.87218  0.25405  0.30760  1.0000
  O   O28       1.0  0.62782  0.24595  0.30760  1.0000
  O   O29       1.0  0.62218  0.49595  0.55760  1.0000
  O   O30       1.0  0.37782  0.50405  0.55760  1.0000
  O   O31       1.0  0.87218  0.75405  0.80760  1.0000
  O   O32       1.0  0.62782  0.74595  0.80760  1.0000
  O   O33       1.0  0.43238  0.03830  0.83900  1.0000
  O   O34       1.0  0.56762  0.96170  0.83900  1.0000
  O   O35       1.0  0.68238  0.21170  0.08900  1.0000
  O   O36       1.0  0.81762  0.28830  0.08900  1.0000
  O   O37       1.0  0.43238  0.53830  0.33900  1.0000
  O   O38       1.0  0.56762  0.46170  0.33900  1.0000
  O   O39       1.0  0.68238  0.71170  0.58900  1.0000
  O   O40       1.0  0.81762  0.78830  0.58900  1.0000
  O   O41       1.0  0.93238  0.03830  0.33900  1.0000
  O   O42       1.0  0.06762  0.96170  0.33900  1.0000
  O   O43       1.0  0.18238  0.21170  0.58900  1.0000
  O   O44       1.0  0.31762  0.28830  0.58900  1.0000
  O   O45       1.0  0.93238  0.53830  0.83900  1.0000
  O   O46       1.0  0.06762  0.46170  0.83900  1.0000
  O   O47       1.0  0.18238  0.71170  0.08900  1.0000
  O   O48       1.0  0.31762  0.78830  0.08900  1.0000
  O   O49       1.0  0.37910  0.99482  0.79050  1.0000
  O   O50       1.0  0.62090  0.00518  0.79050  1.0000
  O   O51       1.0  0.62910  0.25518  0.04050  1.0000
  O   O52       1.0  0.87090  0.24482  0.04050  1.0000
  O   O53       1.0  0.37910  0.49482  0.29050  1.0000
  O   O54       1.0  0.62090  0.50518  0.29050  1.0000
  O   O55       1.0  0.62910  0.75518  0.54050  1.0000
  O   O56       1.0  0.87090  0.74482  0.54050  1.0000
  O   O57       1.0  0.87910  0.99482  0.29050  1.0000
  O   O58       1.0  0.12090  0.00518  0.29050  1.0000
  O   O59       1.0  0.12910  0.25518  0.54050  1.0000
  O   O60       1.0  0.37090  0.24482  0.54050  1.0000
  O   O61       1.0  0.87910  0.49482  0.79050  1.0000
  O   O62       1.0  0.12090  0.50518  0.79050  1.0000
  O   O63       1.0  0.12910  0.75518  0.04050  1.0000
  O   O64       1.0  0.37090  0.74482  0.04050  1.0000
  O   O65       1.0  0.26968  0.13301  0.74680  1.0000
  O   O66       1.0  0.73032  0.86699  0.74680  1.0000
  O   O67       1.0  0.51968  0.11699  0.99680  1.0000
  O   O68       1.0  0.98032  0.38301  0.99680  1.0000
  O   O69       1.0  0.26968  0.63301  0.24680  1.0000
  O   O70       1.0  0.73032  0.36699  0.24680  1.0000
  O   O71       1.0  0.51968  0.61699  0.49680  1.0000
  O   O72       1.0  0.98032  0.88301  0.49680  1.0000
  O   O73       1.0  0.76968  0.13301  0.24680  1.0000
  O   O74       1.0  0.23032  0.86699  0.24680  1.0000
  O   O75       1.0  0.01968  0.11699  0.49680  1.0000
  O   O76       1.0  0.48032  0.38301  0.49680  1.0000
  O   O77       1.0  0.76968  0.63301  0.74680  1.0000
  O   O78       1.0  0.23032  0.36699  0.74680  1.0000
  O   O79       1.0  0.01968  0.61699  0.99680  1.0000
  O   O80       1.0  0.48032  0.88301  0.99680  1.0000
  H   H1        1.0  0.27600  0.12110  0.79470  1.0000
  H   H2        1.0  0.72400  0.87890  0.79470  1.0000
  H   H3        1.0  0.52600  0.12890  0.04470  1.0000
  H   H4        1.0  0.97400  0.37110  0.04470  1.0000
  H   H5        1.0  0.27600  0.62110  0.29470  1.0000
  H   H6        1.0  0.72400  0.37890  0.29470  1.0000
  H   H7        1.0  0.52600  0.62890  0.54470  1.0000
  H   H8        1.0  0.97400  0.87110  0.54470  1.0000
  H   H9        1.0  0.77600  0.12110  0.29470  1.0000
  H   H10       1.0  0.22400  0.87890  0.29470  1.0000
  H   H11       1.0  0.02600  0.12890  0.54470  1.0000
  H   H12       1.0  0.47400  0.37110  0.54470  1.0000
  H   H13       1.0  0.77600  0.62110  0.79470  1.0000
  H   H14       1.0  0.22400  0.37890  0.79470  1.0000
  H   H15       1.0  0.02600  0.62890  0.04470  1.0000
  H   H16       1.0  0.47400  0.87110  0.04470  1.0000
  O   O81       1.0  0.22988  0.13080  0.57910  1.0000
  O   O82       1.0  0.77012  0.86920  0.57910  1.0000
  O   O83       1.0  0.47988  0.11920  0.82910  1.0000
  O   O84       1.0  0.02012  0.38080  0.82910  1.0000
  O   O85       1.0  0.22988  0.63080  0.07910  1.0000
  O   O86       1.0  0.77012  0.36920  0.07910  1.0000
  O   O87       1.0  0.47988  0.61920  0.32910  1.0000
  O   O88       1.0  0.02012  0.88080  0.32910  1.0000
  O   O89       1.0  0.72988  0.13080  0.07910  1.0000
  O   O90       1.0  0.27012  0.86920  0.07910  1.0000
  O   O91       1.0  0.97988  0.11920  0.32910  1.0000
  O   O92       1.0  0.52012  0.38080  0.32910  1.0000
  O   O93       1.0  0.72988  0.63080  0.57910  1.0000
  O   O94       1.0  0.27012  0.36920  0.57910  1.0000
  O   O95       1.0  0.97988  0.61920  0.82910  1.0000
  O   O96       1.0  0.52012  0.88080  0.82910  1.0000
  C   C1        1.0  0.12470  0.02243  0.55420  1.0000
  C   C2        1.0  0.87530  0.97757  0.55420  1.0000
  C   C3        1.0  0.37470  0.22757  0.80420  1.0000
  C   C4        1.0  0.12530  0.27243  0.80420  1.0000
  C   C5        1.0  0.12470  0.52243  0.05420  1.0000
  C   C6        1.0  0.87530  0.47757  0.05420  1.0000
  C   C7        1.0  0.37470  0.72757  0.30420  1.0000
  C   C8        1.0  0.12530  0.77243  0.30420  1.0000
  C   C9        1.0  0.62470  0.02243  0.05420  1.0000
  C   C10       1.0  0.37530  0.97757  0.05420  1.0000
  C   C11       1.0  0.87470  0.22757  0.30420  1.0000
  C   C12       1.0  0.62530  0.27243  0.30420  1.0000
  C   C13       1.0  0.62470  0.52243  0.55420  1.0000
  C   C14       1.0  0.37530  0.47757  0.55420  1.0000
  C   C15       1.0  0.87470  0.72757  0.80420  1.0000
  C   C16       1.0  0.62530  0.77243  0.80420  1.0000
  C   C17       1.0  0.19220  0.03808  0.61290  1.0000
  C   C18       1.0  0.80780  0.96192  0.61290  1.0000
  C   C19       1.0  0.44220  0.21192  0.86290  1.0000
  C   C20       1.0  0.05780  0.28808  0.86290  1.0000
  C   C21       1.0  0.19220  0.53808  0.11290  1.0000
  C   C22       1.0  0.80780  0.46192  0.11290  1.0000
  C   C23       1.0  0.44220  0.71192  0.36290  1.0000
  C   C24       1.0  0.05780  0.78808  0.36290  1.0000
  C   C25       1.0  0.69220  0.03808  0.11290  1.0000
  C   C26       1.0  0.30780  0.96192  0.11290  1.0000
  C   C27       1.0  0.94220  0.21192  0.36290  1.0000
  C   C28       1.0  0.55780  0.28808  0.36290  1.0000
  C   C29       1.0  0.69220  0.53808  0.61290  1.0000
  C   C30       1.0  0.30780  0.46192  0.61290  1.0000
  C   C31       1.0  0.94220  0.71192  0.86290  1.0000
  C   C32       1.0  0.55780  0.78808  0.86290  1.0000
  C   C33       1.0  0.25080  0.02420  0.66340  1.0000
  C   C34       1.0  0.74920  0.97580  0.66340  1.0000
  C   C35       1.0  0.50080  0.22580  0.91340  1.0000
  C   C36       1.0  0.99920  0.27420  0.91340  1.0000
  C   C37       1.0  0.25080  0.52420  0.16340  1.0000
  C   C38       1.0  0.74920  0.47580  0.16340  1.0000
  C   C39       1.0  0.50080  0.72580  0.41340  1.0000
  C   C40       1.0  0.99920  0.77420  0.41340  1.0000
  C   C41       1.0  0.75080  0.02420  0.16340  1.0000
  C   C42       1.0  0.24920  0.97580  0.16340  1.0000
  C   C43       1.0  0.00080  0.22580  0.41340  1.0000
  C   C44       1.0  0.49920  0.27420  0.41340  1.0000
  C   C45       1.0  0.75080  0.52420  0.66340  1.0000
  C   C46       1.0  0.24920  0.47580  0.66340  1.0000
  C   C47       1.0  0.00080  0.72580  0.91340  1.0000
  C   C48       1.0  0.49920  0.77420  0.91340  1.0000
  H   H17       1.0  0.25270  0.00370  0.66180  1.0000
  H   H18       1.0  0.74730  0.99630  0.66180  1.0000
  H   H19       1.0  0.50270  0.24630  0.91180  1.0000
  H   H20       1.0  0.99730  0.25370  0.91180  1.0000
  H   H21       1.0  0.25270  0.50370  0.16180  1.0000
  H   H22       1.0  0.74730  0.49630  0.16180  1.0000
  H   H23       1.0  0.50270  0.74630  0.41180  1.0000
  H   H24       1.0  0.99730  0.75370  0.41180  1.0000
  H   H25       1.0  0.75270  0.00370  0.16180  1.0000
  H   H26       1.0  0.24730  0.99630  0.16180  1.0000
  H   H27       1.0  0.00270  0.24630  0.41180  1.0000
  H   H28       1.0  0.49730  0.25370  0.41180  1.0000
  H   H29       1.0  0.75270  0.50370  0.66180  1.0000
  H   H30       1.0  0.24730  0.49630  0.66180  1.0000
  H   H31       1.0  0.00270  0.74630  0.91180  1.0000
  H   H32       1.0  0.49730  0.75370  0.91180  1.0000
  C   C49       1.0  0.31510  0.04091  0.72400  1.0000
  C   C50       1.0  0.68490  0.95909  0.72400  1.0000
  C   C51       1.0  0.56510  0.20909  0.97400  1.0000
  C   C52       1.0  0.93490  0.29091  0.97400  1.0000
  C   C53       1.0  0.31510  0.54091  0.22400  1.0000
  C   C54       1.0  0.68490  0.45909  0.22400  1.0000
  C   C55       1.0  0.56510  0.70909  0.47400  1.0000
  C   C56       1.0  0.93490  0.79091  0.47400  1.0000
  C   C57       1.0  0.81510  0.04091  0.22400  1.0000
  C   C58       1.0  0.18490  0.95909  0.22400  1.0000
  C   C59       1.0  0.06510  0.20909  0.47400  1.0000
  C   C60       1.0  0.43490  0.29091  0.47400  1.0000
  C   C61       1.0  0.81510  0.54091  0.72400  1.0000
  C   C62       1.0  0.18490  0.45909  0.72400  1.0000
  C   C63       1.0  0.06510  0.70909  0.97400  1.0000
  C   C64       1.0  0.43490  0.79091  0.97400  1.0000
  C   C65       1.0  0.31514  0.06976  0.72280  1.0000
  C   C66       1.0  0.68486  0.93024  0.72280  1.0000
  C   C67       1.0  0.56514  0.18024  0.97280  1.0000
  C   C68       1.0  0.93486  0.31976  0.97280  1.0000
  C   C69       1.0  0.31514  0.56976  0.22280  1.0000
  C   C70       1.0  0.68486  0.43024  0.22280  1.0000
  C   C71       1.0  0.56514  0.68024  0.47280  1.0000
  C   C72       1.0  0.93486  0.81976  0.47280  1.0000
  C   C73       1.0  0.81514  0.06976  0.22280  1.0000
  C   C74       1.0  0.18486  0.93024  0.22280  1.0000
  C   C75       1.0  0.06514  0.18024  0.47280  1.0000
  C   C76       1.0  0.43486  0.31976  0.47280  1.0000
  C   C77       1.0  0.81514  0.56976  0.72280  1.0000
  C   C78       1.0  0.18486  0.43024  0.72280  1.0000
  C   C79       1.0  0.06514  0.68024  0.97280  1.0000
  C   C80       1.0  0.43486  0.81976  0.97280  1.0000
  H   H33       1.0  0.35870  0.07990  0.75630  1.0000
  H   H34       1.0  0.64130  0.92010  0.75630  1.0000
  H   H35       1.0  0.60870  0.17010  0.00630  1.0000
  H   H36       1.0  0.89130  0.32990  0.00630  1.0000
  H   H37       1.0  0.35870  0.57990  0.25630  1.0000
  H   H38       1.0  0.64130  0.42010  0.25630  1.0000
  H   H39       1.0  0.60870  0.67010  0.50630  1.0000
  H   H40       1.0  0.89130  0.82990  0.50630  1.0000
  H   H41       1.0  0.85870  0.07990  0.25630  1.0000
  H   H42       1.0  0.14130  0.92010  0.25630  1.0000
  H   H43       1.0  0.10870  0.17010  0.50630  1.0000
  H   H44       1.0  0.39130  0.32990  0.50630  1.0000
  H   H45       1.0  0.85870  0.57990  0.75630  1.0000
  H   H46       1.0  0.14130  0.42010  0.75630  1.0000
  H   H47       1.0  0.10870  0.67010  0.00630  1.0000
  H   H48       1.0  0.39130  0.82990  0.00630  1.0000
  C   C81       1.0  0.25210  0.08570  0.67300  1.0000
  C   C82       1.0  0.74790  0.91430  0.67300  1.0000
  C   C83       1.0  0.50210  0.16430  0.92300  1.0000
  C   C84       1.0  0.99790  0.33570  0.92300  1.0000
  C   C85       1.0  0.25210  0.58570  0.17300  1.0000
  C   C86       1.0  0.74790  0.41430  0.17300  1.0000
  C   C87       1.0  0.50210  0.66430  0.42300  1.0000
  C   C88       1.0  0.99790  0.83570  0.42300  1.0000
  C   C89       1.0  0.75210  0.08570  0.17300  1.0000
  C   C90       1.0  0.24790  0.91430  0.17300  1.0000
  C   C91       1.0  0.00210  0.16430  0.42300  1.0000
  C   C92       1.0  0.49790  0.33570  0.42300  1.0000
  C   C93       1.0  0.75210  0.58570  0.67300  1.0000
  C   C94       1.0  0.24790  0.41430  0.67300  1.0000
  C   C95       1.0  0.00210  0.66430  0.92300  1.0000
  C   C96       1.0  0.49790  0.83570  0.92300  1.0000
  C   C97       1.0  0.19310  0.07093  0.61150  1.0000
  C   C98       1.0  0.80690  0.92907  0.61150  1.0000
  C   C99       1.0  0.44310  0.17907  0.86150  1.0000
  C   C100      1.0  0.05690  0.32093  0.86150  1.0000
  C   C101      1.0  0.19310  0.57093  0.11150  1.0000
  C   C102      1.0  0.80690  0.42907  0.11150  1.0000
  C   C103      1.0  0.44310  0.67907  0.36150  1.0000
  C   C104      1.0  0.05690  0.82093  0.36150  1.0000
  C   C105      1.0  0.69310  0.07093  0.11150  1.0000
  C   C106      1.0  0.30690  0.92907  0.11150  1.0000
  C   C107      1.0  0.94310  0.17907  0.36150  1.0000
  C   C108      1.0  0.55690  0.32093  0.36150  1.0000
  C   C109      1.0  0.69310  0.57093  0.61150  1.0000
  C   C110      1.0  0.30690  0.42907  0.61150  1.0000
  C   C111      1.0  0.94310  0.67907  0.86150  1.0000
  C   C112      1.0  0.55690  0.82093  0.86150  1.0000
  H   H49       1.0  0.15490  0.08140  0.57020  1.0000
  H   H50       1.0  0.84510  0.91860  0.57020  1.0000
  H   H51       1.0  0.40490  0.16860  0.82020  1.0000
  H   H52       1.0  0.09510  0.33140  0.82020  1.0000
  H   H53       1.0  0.15490  0.58140  0.07020  1.0000
  H   H54       1.0  0.84510  0.41860  0.07020  1.0000
  H   H55       1.0  0.40490  0.66860  0.32020  1.0000
  H   H56       1.0  0.09510  0.83140  0.32020  1.0000
  H   H57       1.0  0.65490  0.08140  0.07020  1.0000
  H   H58       1.0  0.34510  0.91860  0.07020  1.0000
  H   H59       1.0  0.90490  0.16860  0.32020  1.0000
  H   H60       1.0  0.59510  0.33140  0.32020  1.0000
  H   H61       1.0  0.65490  0.58140  0.57020  1.0000
  H   H62       1.0  0.34510  0.41860  0.57020  1.0000
  H   H63       1.0  0.90490  0.66860  0.82020  1.0000
  H   H64       1.0  0.59510  0.83140  0.82020  1.0000
  C   C113      1.0  0.38040  0.02348  0.78730  1.0000
  C   C114      1.0  0.61960  0.97652  0.78730  1.0000
  C   C115      1.0  0.63040  0.22652  0.03730  1.0000
  C   C116      1.0  0.86960  0.27348  0.03730  1.0000
  C   C117      1.0  0.38040  0.52348  0.28730  1.0000
  C   C118      1.0  0.61960  0.47652  0.28730  1.0000
  C   C119      1.0  0.63040  0.72652  0.53730  1.0000
  C   C120      1.0  0.86960  0.77348  0.53730  1.0000
  C   C121      1.0  0.88040  0.02348  0.28730  1.0000
  C   C122      1.0  0.11960  0.97652  0.28730  1.0000
  C   C123      1.0  0.13040  0.22652  0.53730  1.0000
  C   C124      1.0  0.36960  0.27348  0.53730  1.0000
  C   C125      1.0  0.88040  0.52348  0.78730  1.0000
  C   C126      1.0  0.11960  0.47652  0.78730  1.0000
  C   C127      1.0  0.13040  0.72652  0.03730  1.0000
  C   C128      1.0  0.36960  0.77348  0.03730  1.0000
  C   C129      1.0  0.25340  0.11889  0.65910  1.0000
  C   C130      1.0  0.74660  0.88111  0.65910  1.0000
  C   C131      1.0  0.50340  0.13111  0.90910  1.0000
  C   C132      1.0  0.99660  0.36889  0.90910  1.0000
  C   C133      1.0  0.25340  0.61889  0.15910  1.0000
  C   C134      1.0  0.74660  0.38111  0.15910  1.0000
  C   C135      1.0  0.50340  0.63111  0.40910  1.0000
  C   C136      1.0  0.99660  0.86889  0.40910  1.0000
  C   C137      1.0  0.75340  0.11889  0.15910  1.0000
  C   C138      1.0  0.24660  0.88111  0.15910  1.0000
  C   C139      1.0  0.00340  0.13111  0.40910  1.0000
  C   C140      1.0  0.49660  0.36889  0.40910  1.0000
  C   C141      1.0  0.75340  0.61889  0.65910  1.0000
  C   C142      1.0  0.24660  0.38111  0.65910  1.0000
  C   C143      1.0  0.00340  0.63111  0.90910  1.0000
  C   C144      1.0  0.49660  0.86889  0.90910  1.0000
