data_image0
_chemical_formula_structural       Pt2Sn12K4Na8B4H4B4H4B4H4B4H4B4H4B4H4B4H4B4H4O4B4H4B4H4B4H4O8B4H4B4H4B4H4B4H4B4H4B4H4B4H4B4H4B4H4B4H4B4H4B4H4B4H4B4H4B4H4B4H4B4H4B4H4B4H4O4B4H4O4B4H4B4H4C4H8C4H8C4H8C4H8C4H8C4H8C4H8C4H8C4H8C4H8C4H8C4H8C4H8C4H8C4H8C4H8C4H8C4H8C4H8C4H8
_chemical_formula_sum              "Pt2 Sn12 K4 Na8 B132 H292 O20 C80"
_cell_length_a       14.9048
_cell_length_b       29.0561
_cell_length_c       16.6484
_cell_angle_alpha    90
_cell_angle_beta     96.765
_cell_angle_gamma    90

_space_group_name_H-M_alt    "P 1"
_space_group_IT_number       1

loop_
  _space_group_symop_operation_xyz
  'x, y, z'

loop_
  _atom_site_type_symbol
  _atom_site_label
  _atom_site_symmetry_multiplicity
  _atom_site_fract_x
  _atom_site_fract_y
  _atom_site_fract_z
  _atom_site_occupancy
  Pt  Pt1       1.0  0.00000  0.50000  0.50000  1.0000
  Pt  Pt2       1.0  0.50000  0.00000  0.00000  1.0000
  Sn  Sn1       1.0  0.96223  0.52905  0.35106  1.0000
  Sn  Sn2       1.0  0.53777  0.02905  0.14894  1.0000
  Sn  Sn3       1.0  0.03777  0.47095  0.64894  1.0000
  Sn  Sn4       1.0  0.46223  0.97095  0.85106  1.0000
  Sn  Sn5       1.0  0.84421  0.53035  0.53558  1.0000
  Sn  Sn6       1.0  0.65579  0.03035  0.96442  1.0000
  Sn  Sn7       1.0  0.15579  0.46965  0.46442  1.0000
  Sn  Sn8       1.0  0.34421  0.96965  0.03558  1.0000
  Sn  Sn9       1.0  0.92553  0.42085  0.45646  1.0000
  Sn  Sn10      1.0  0.57447  0.92085  0.04354  1.0000
  Sn  Sn11      1.0  0.07447  0.57915  0.54354  1.0000
  Sn  Sn12      1.0  0.42553  0.07915  0.95646  1.0000
  K   K1        1.0  0.58233  0.45231  0.40258  1.0000
  K   K2        1.0  0.91767  0.95231  0.09742  1.0000
  K   K3        1.0  0.41767  0.54769  0.59742  1.0000
  K   K4        1.0  0.08233  0.04769  0.90258  1.0000
  Na  Na1       1.0  0.75270  0.63884  0.33190  1.0000
  Na  Na2       1.0  0.74730  0.13884  0.16810  1.0000
  Na  Na3       1.0  0.24730  0.36116  0.66810  1.0000
  Na  Na4       1.0  0.25270  0.86116  0.83190  1.0000
  Na  Na5       1.0  0.83790  0.34012  0.65890  1.0000
  Na  Na6       1.0  0.66210  0.84012  0.84110  1.0000
  Na  Na7       1.0  0.16210  0.65988  0.34110  1.0000
  Na  Na8       1.0  0.33790  0.15988  0.15890  1.0000
  B   B1        1.0  0.71040  0.55030  0.45730  1.0000
  B   B2        1.0  0.78960  0.05030  0.04270  1.0000
  B   B3        1.0  0.28960  0.44970  0.54270  1.0000
  B   B4        1.0  0.21040  0.94970  0.95730  1.0000
  H   H1        1.0  0.71020  0.53810  0.39470  1.0000
  H   H2        1.0  0.78980  0.03810  0.10530  1.0000
  H   H3        1.0  0.28980  0.46190  0.60530  1.0000
  H   H4        1.0  0.21020  0.96190  0.89470  1.0000
  B   B5        1.0  0.80560  0.59250  0.61190  1.0000
  B   B6        1.0  0.69440  0.09250  0.88810  1.0000
  B   B7        1.0  0.19440  0.40750  0.38810  1.0000
  B   B8        1.0  0.30560  0.90750  0.11190  1.0000
  H   H5        1.0  0.86550  0.60720  0.64780  1.0000
  H   H6        1.0  0.63450  0.10720  0.85220  1.0000
  H   H7        1.0  0.13450  0.39280  0.35220  1.0000
  H   H8        1.0  0.36550  0.89280  0.14780  1.0000
  B   B9        1.0  0.75370  0.53700  0.63910  1.0000
  B   B10       1.0  0.74630  0.03700  0.86090  1.0000
  B   B11       1.0  0.24630  0.46300  0.36090  1.0000
  B   B12       1.0  0.25370  0.96300  0.13910  1.0000
  H   H9        1.0  0.78110  0.51660  0.69200  1.0000
  H   H10       1.0  0.71890  0.01660  0.80800  1.0000
  H   H11       1.0  0.21890  0.48340  0.30800  1.0000
  H   H12       1.0  0.28110  0.98340  0.19200  1.0000
  B   B13       1.0  0.78440  0.41140  0.38240  1.0000
  B   B14       1.0  0.71560  0.91140  0.11760  1.0000
  B   B15       1.0  0.21560  0.58860  0.61760  1.0000
  B   B16       1.0  0.28440  0.08860  0.88240  1.0000
  H   H13       1.0  0.75190  0.44470  0.36650  1.0000
  H   H14       1.0  0.74810  0.94470  0.13350  1.0000
  H   H15       1.0  0.24810  0.55530  0.63350  1.0000
  H   H16       1.0  0.25190  0.05530  0.86650  1.0000
  B   B17       1.0  0.89580  0.34710  0.50160  1.0000
  B   B18       1.0  0.60420  0.84710  0.99840  1.0000
  B   B19       1.0  0.10420  0.65290  0.49840  1.0000
  B   B20       1.0  0.39580  0.15290  0.00160  1.0000
  H   H17       1.0  0.93390  0.33990  0.56090  1.0000
  H   H18       1.0  0.56610  0.83990  0.93910  1.0000
  H   H19       1.0  0.06610  0.66010  0.43910  1.0000
  H   H20       1.0  0.43390  0.16010  0.06090  1.0000
  B   B21       1.0  0.69360  0.51070  0.54320  1.0000
  B   B22       1.0  0.80640  0.01070  0.95680  1.0000
  B   B23       1.0  0.30640  0.48930  0.45680  1.0000
  B   B24       1.0  0.19360  0.98930  0.04320  1.0000
  H   H21       1.0  0.68210  0.47350  0.53520  1.0000
  H   H22       1.0  0.81790  0.97350  0.96480  1.0000
  H   H23       1.0  0.31790  0.52650  0.46480  1.0000
  H   H24       1.0  0.18210  0.02650  0.03520  1.0000
  B   B25       1.0  0.89910  0.51370  0.21980  1.0000
  B   B26       1.0  0.60090  0.01370  0.28020  1.0000
  B   B27       1.0  0.10090  0.48630  0.78020  1.0000
  B   B28       1.0  0.39910  0.98630  0.71980  1.0000
  H   H25       1.0  0.86240  0.48080  0.21580  1.0000
  H   H26       1.0  0.63760  0.98080  0.28420  1.0000
  H   H27       1.0  0.13760  0.51920  0.78420  1.0000
  H   H28       1.0  0.36240  0.01920  0.71580  1.0000
  B   B29       1.0  0.05830  0.57400  0.28500  1.0000
  B   B30       1.0  0.44170  0.07400  0.21500  1.0000
  B   B31       1.0  0.94170  0.42600  0.71500  1.0000
  B   B32       1.0  0.55830  0.92600  0.78500  1.0000
  H   H29       1.0  0.12320  0.57900  0.32280  1.0000
  H   H30       1.0  0.37680  0.07900  0.17720  1.0000
  H   H31       1.0  0.87680  0.42100  0.67720  1.0000
  H   H32       1.0  0.62320  0.92100  0.82280  1.0000
  O   O1        1.0  0.57190  0.46510  0.24740  1.0000
  O   O2        1.0  0.92810  0.96510  0.25260  1.0000
  O   O3        1.0  0.42810  0.53490  0.75260  1.0000
  O   O4        1.0  0.07190  0.03490  0.74740  1.0000
  B   B33       1.0  0.95030  0.34860  0.40380  1.0000
  B   B34       1.0  0.54970  0.84860  0.09620  1.0000
  B   B35       1.0  0.04970  0.65140  0.59620  1.0000
  B   B36       1.0  0.45030  0.15140  0.90380  1.0000
  H   H33       1.0  0.02270  0.34240  0.40140  1.0000
  H   H34       1.0  0.47730  0.84240  0.09860  1.0000
  H   H35       1.0  0.97730  0.65760  0.59860  1.0000
  H   H36       1.0  0.52270  0.15760  0.90140  1.0000
  B   B37       1.0  0.85370  0.56700  0.26430  1.0000
  B   B38       1.0  0.64630  0.06700  0.23570  1.0000
  B   B39       1.0  0.14630  0.43300  0.73570  1.0000
  B   B40       1.0  0.35370  0.93300  0.76430  1.0000
  H   H37       1.0  0.78820  0.56760  0.28860  1.0000
  H   H38       1.0  0.71180  0.06760  0.21140  1.0000
  H   H39       1.0  0.21180  0.43240  0.71140  1.0000
  H   H40       1.0  0.28820  0.93240  0.78860  1.0000
  B   B41       1.0  0.77130  0.36400  0.31490  1.0000
  B   B42       1.0  0.72870  0.86400  0.18510  1.0000
  B   B43       1.0  0.22870  0.63600  0.68510  1.0000
  B   B44       1.0  0.27130  0.13600  0.81490  1.0000
  H   H41       1.0  0.73080  0.36830  0.25570  1.0000
  H   H42       1.0  0.76920  0.86830  0.24430  1.0000
  H   H43       1.0  0.26920  0.63170  0.74430  1.0000
  H   H44       1.0  0.23080  0.13170  0.75570  1.0000
  O   O5        1.0  0.64040  0.64860  0.22630  1.0000
  O   O6        1.0  0.85960  0.14860  0.27370  1.0000
  O   O7        1.0  0.35960  0.35140  0.77370  1.0000
  O   O8        1.0  0.14040  0.85140  0.72630  1.0000
  O   O9        1.0  0.70340  0.36030  0.69440  1.0000
  O   O10       1.0  0.79660  0.86030  0.80560  1.0000
  O   O11       1.0  0.29660  0.63970  0.30560  1.0000
  O   O12       1.0  0.20340  0.13970  0.19440  1.0000
  B   B45       1.0  0.61100  0.55060  0.50450  1.0000
  B   B46       1.0  0.88900  0.05060  0.99550  1.0000
  B   B47       1.0  0.38900  0.44940  0.49550  1.0000
  B   B48       1.0  0.11100  0.94940  0.00450  1.0000
  H   H45       1.0  0.54800  0.53790  0.47080  1.0000
  H   H46       1.0  0.95200  0.03790  0.02920  1.0000
  H   H47       1.0  0.45200  0.46210  0.52920  1.0000
  H   H48       1.0  0.04800  0.96210  0.97080  1.0000
  B   B49       1.0  0.78030  0.60100  0.49950  1.0000
  B   B50       1.0  0.71970  0.10100  0.00050  1.0000
  B   B51       1.0  0.21970  0.39900  0.50050  1.0000
  B   B52       1.0  0.28030  0.89900  0.99950  1.0000
  H   H49       1.0  0.82450  0.62080  0.46390  1.0000
  H   H50       1.0  0.67550  0.12080  0.03610  1.0000
  H   H51       1.0  0.17550  0.37920  0.53610  1.0000
  H   H52       1.0  0.32450  0.87920  0.96390  1.0000
  B   B53       1.0  0.86080  0.56170  0.15890  1.0000
  B   B54       1.0  0.63920  0.06170  0.34110  1.0000
  B   B55       1.0  0.13920  0.43830  0.84110  1.0000
  B   B56       1.0  0.36080  0.93830  0.65890  1.0000
  H   H53       1.0  0.79850  0.55830  0.11690  1.0000
  H   H54       1.0  0.70150  0.05830  0.38310  1.0000
  H   H55       1.0  0.20150  0.44170  0.88310  1.0000
  H   H56       1.0  0.29850  0.94170  0.61690  1.0000
  B   B57       1.0  0.79470  0.38550  0.48790  1.0000
  B   B58       1.0  0.70530  0.88550  0.01210  1.0000
  B   B59       1.0  0.20530  0.61450  0.51210  1.0000
  B   B60       1.0  0.29470  0.11450  0.98790  1.0000
  H   H57       1.0  0.76880  0.40300  0.53900  1.0000
  H   H58       1.0  0.73120  0.90300  0.96100  1.0000
  H   H59       1.0  0.23120  0.59700  0.46100  1.0000
  H   H60       1.0  0.26880  0.09700  0.03900  1.0000
  B   B61       1.0  0.96250  0.53320  0.14050  1.0000
  B   B62       1.0  0.53750  0.03320  0.35950  1.0000
  B   B63       1.0  0.03750  0.46680  0.85950  1.0000
  B   B64       1.0  0.46250  0.96680  0.64050  1.0000
  H   H61       1.0  0.96660  0.51130  0.08710  1.0000
  H   H62       1.0  0.53340  0.01130  0.41290  1.0000
  H   H63       1.0  0.03340  0.48870  0.91290  1.0000
  H   H64       1.0  0.46660  0.98870  0.58710  1.0000
  B   B65       1.0  0.70020  0.59000  0.64960  1.0000
  B   B66       1.0  0.79980  0.09000  0.85040  1.0000
  B   B67       1.0  0.29980  0.41000  0.35040  1.0000
  B   B68       1.0  0.20020  0.91000  0.14960  1.0000
  H   H65       1.0  0.69470  0.60310  0.71080  1.0000
  H   H66       1.0  0.80530  0.10310  0.78920  1.0000
  H   H67       1.0  0.30530  0.39690  0.28920  1.0000
  H   H68       1.0  0.19470  0.89690  0.21080  1.0000
  B   B69       1.0  0.63660  0.54250  0.61150  1.0000
  B   B70       1.0  0.86340  0.04250  0.88850  1.0000
  B   B71       1.0  0.36340  0.45750  0.38850  1.0000
  B   B72       1.0  0.13660  0.95750  0.11150  1.0000
  H   H69       1.0  0.59040  0.52450  0.64780  1.0000
  H   H70       1.0  0.90960  0.02450  0.85220  1.0000
  H   H71       1.0  0.40960  0.47550  0.35220  1.0000
  H   H72       1.0  0.09040  0.97550  0.14780  1.0000
  B   B73       1.0  0.71540  0.62910  0.56890  1.0000
  B   B74       1.0  0.78460  0.12910  0.93110  1.0000
  B   B75       1.0  0.28460  0.37090  0.43110  1.0000
  B   B76       1.0  0.21540  0.87090  0.06890  1.0000
  H   H73       1.0  0.72000  0.66660  0.57710  1.0000
  H   H74       1.0  0.78000  0.16660  0.92290  1.0000
  H   H75       1.0  0.28000  0.33340  0.42290  1.0000
  H   H76       1.0  0.22000  0.83340  0.07710  1.0000
  B   B77       1.0  0.65940  0.60390  0.47810  1.0000
  B   B78       1.0  0.84060  0.10390  0.02190  1.0000
  B   B79       1.0  0.34060  0.39610  0.52190  1.0000
  B   B80       1.0  0.15940  0.89610  0.97810  1.0000
  H   H77       1.0  0.62830  0.62550  0.42810  1.0000
  H   H78       1.0  0.87170  0.12550  0.07190  1.0000
  H   H79       1.0  0.37170  0.37450  0.57190  1.0000
  H   H80       1.0  0.12830  0.87450  0.92810  1.0000
  B   B81       1.0  0.86840  0.32790  0.32820  1.0000
  B   B82       1.0  0.63160  0.82790  0.17180  1.0000
  B   B83       1.0  0.13160  0.67210  0.67180  1.0000
  B   B84       1.0  0.36840  0.17210  0.82820  1.0000
  H   H81       1.0  0.89100  0.30880  0.27720  1.0000
  H   H82       1.0  0.60900  0.80880  0.22280  1.0000
  H   H83       1.0  0.10900  0.69120  0.72280  1.0000
  H   H84       1.0  0.39100  0.19120  0.77720  1.0000
  B   B85       1.0  0.72070  0.36230  0.40830  1.0000
  B   B86       1.0  0.77930  0.86230  0.09170  1.0000
  B   B87       1.0  0.27930  0.63770  0.59170  1.0000
  B   B88       1.0  0.22070  0.13770  0.90830  1.0000
  H   H85       1.0  0.64730  0.36580  0.40960  1.0000
  H   H86       1.0  0.85270  0.86580  0.09040  1.0000
  H   H87       1.0  0.35270  0.63420  0.59040  1.0000
  H   H88       1.0  0.14730  0.13420  0.90960  1.0000
  B   B89       1.0  0.78550  0.32580  0.47590  1.0000
  B   B90       1.0  0.71450  0.82580  0.02410  1.0000
  B   B91       1.0  0.21450  0.67420  0.52410  1.0000
  B   B92       1.0  0.28550  0.17420  0.97590  1.0000
  H   H89       1.0  0.75400  0.30540  0.52070  1.0000
  H   H90       1.0  0.74600  0.80540  0.97930  1.0000
  H   H91       1.0  0.24600  0.69460  0.47930  1.0000
  H   H92       1.0  0.25400  0.19460  0.02070  1.0000
  B   B93       1.0  0.02650  0.51870  0.23290  1.0000
  B   B94       1.0  0.47350  0.01870  0.26710  1.0000
  B   B95       1.0  0.97350  0.48130  0.76710  1.0000
  B   B96       1.0  0.52650  0.98130  0.73290  1.0000
  H   H93       1.0  0.07070  0.48830  0.23740  1.0000
  H   H94       1.0  0.42930  0.98830  0.26260  1.0000
  H   H95       1.0  0.92930  0.51170  0.76260  1.0000
  H   H96       1.0  0.57070  0.01170  0.73740  1.0000
  B   B97       1.0  0.87660  0.30370  0.42730  1.0000
  B   B98       1.0  0.62340  0.80370  0.07270  1.0000
  B   B99       1.0  0.12340  0.69630  0.57270  1.0000
  B   B100      1.0  0.37660  0.19630  0.92730  1.0000
  H   H97       1.0  0.90420  0.26900  0.44050  1.0000
  H   H98       1.0  0.59580  0.76900  0.05950  1.0000
  H   H99       1.0  0.09580  0.73100  0.55950  1.0000
  H   H100      1.0  0.40420  0.23100  0.94050  1.0000
  B   B101      1.0  0.05440  0.56860  0.18050  1.0000
  B   B102      1.0  0.44560  0.06860  0.31950  1.0000
  B   B103      1.0  0.94560  0.43140  0.81950  1.0000
  B   B104      1.0  0.55440  0.93140  0.68050  1.0000
  H   H101      1.0  0.11790  0.56970  0.15290  1.0000
  H   H102      1.0  0.38210  0.06970  0.34710  1.0000
  H   H103      1.0  0.88210  0.43030  0.84710  1.0000
  H   H104      1.0  0.61790  0.93030  0.65290  1.0000
  B   B105      1.0  0.95080  0.60410  0.30520  1.0000
  B   B106      1.0  0.54920  0.10410  0.19480  1.0000
  B   B107      1.0  0.04920  0.39590  0.69480  1.0000
  B   B108      1.0  0.45080  0.89590  0.80520  1.0000
  H   H105      1.0  0.94670  0.62820  0.35560  1.0000
  H   H106      1.0  0.55330  0.12820  0.14440  1.0000
  H   H107      1.0  0.05330  0.37180  0.64440  1.0000
  H   H108      1.0  0.44670  0.87180  0.85560  1.0000
  B   B109      1.0  0.88060  0.38800  0.33120  1.0000
  B   B110      1.0  0.61940  0.88800  0.16880  1.0000
  B   B111      1.0  0.11940  0.61200  0.66880  1.0000
  B   B112      1.0  0.38060  0.11200  0.83120  1.0000
  H   H109      1.0  0.90900  0.40670  0.28260  1.0000
  H   H110      1.0  0.59100  0.90670  0.21740  1.0000
  H   H111      1.0  0.09100  0.59330  0.71740  1.0000
  H   H112      1.0  0.40900  0.09330  0.78260  1.0000
  B   B113      1.0  0.89060  0.61400  0.20920  1.0000
  B   B114      1.0  0.60940  0.11400  0.29080  1.0000
  B   B115      1.0  0.10940  0.38600  0.79080  1.0000
  B   B116      1.0  0.39060  0.88600  0.70920  1.0000
  H   H113      1.0  0.84770  0.64480  0.20000  1.0000
  H   H114      1.0  0.65230  0.14480  0.30000  1.0000
  H   H115      1.0  0.15230  0.35520  0.80000  1.0000
  H   H116      1.0  0.34770  0.85520  0.70000  1.0000
  B   B117      1.0  0.76860  0.31210  0.37170  1.0000
  B   B118      1.0  0.73140  0.81210  0.12830  1.0000
  B   B119      1.0  0.23140  0.68790  0.62830  1.0000
  B   B120      1.0  0.26860  0.18790  0.87170  1.0000
  H   H117      1.0  0.72620  0.28290  0.34860  1.0000
  H   H118      1.0  0.77380  0.78290  0.15140  1.0000
  H   H119      1.0  0.27380  0.71710  0.65140  1.0000
  H   H120      1.0  0.22620  0.21710  0.84860  1.0000
  O   O13       1.0  0.87360  0.26260  0.68160  1.0000
  O   O14       1.0  0.62640  0.76260  0.81840  1.0000
  O   O15       1.0  0.12640  0.73740  0.31840  1.0000
  O   O16       1.0  0.37360  0.23740  0.18160  1.0000
  B   B121      1.0  0.95300  0.59380  0.13280  1.0000
  B   B122      1.0  0.54700  0.09380  0.36720  1.0000
  B   B123      1.0  0.04700  0.40620  0.86720  1.0000
  B   B124      1.0  0.45300  0.90620  0.63280  1.0000
  H   H121      1.0  0.95020  0.61120  0.07390  1.0000
  H   H122      1.0  0.54980  0.11120  0.42610  1.0000
  H   H123      1.0  0.04980  0.38880  0.92610  1.0000
  H   H124      1.0  0.45020  0.88880  0.57390  1.0000
  O   O17       1.0  0.78450  0.71150  0.37080  1.0000
  O   O18       1.0  0.71550  0.21150  0.12920  1.0000
  O   O19       1.0  0.21550  0.28850  0.62920  1.0000
  O   O20       1.0  0.28450  0.78850  0.87080  1.0000
  B   B125      1.0  0.61190  0.59810  0.57070  1.0000
  B   B126      1.0  0.88810  0.09810  0.92930  1.0000
  B   B127      1.0  0.38810  0.40190  0.42930  1.0000
  B   B128      1.0  0.11190  0.90190  0.07070  1.0000
  H   H125      1.0  0.54910  0.61600  0.58040  1.0000
  H   H126      1.0  0.95090  0.11600  0.91960  1.0000
  H   H127      1.0  0.45090  0.38400  0.41960  1.0000
  H   H128      1.0  0.04910  0.88400  0.08040  1.0000
  B   B129      1.0  0.01040  0.61820  0.22210  1.0000
  B   B130      1.0  0.48960  0.11820  0.27790  1.0000
  B   B131      1.0  0.98960  0.38180  0.77790  1.0000
  B   B132      1.0  0.51040  0.88180  0.72210  1.0000
  H   H129      1.0  0.04530  0.65150  0.22160  1.0000
  H   H130      1.0  0.45470  0.15150  0.27840  1.0000
  H   H131      1.0  0.95470  0.34850  0.77840  1.0000
  H   H132      1.0  0.54530  0.84850  0.72160  1.0000
  C   C1        1.0  0.64320  0.47820  0.20000  1.0000
  C   C2        1.0  0.85680  0.97820  0.30000  1.0000
  C   C3        1.0  0.35680  0.52180  0.80000  1.0000
  C   C4        1.0  0.14320  0.02180  0.70000  1.0000
  H   H133      1.0  0.69400  0.45730  0.21040  1.0000
  H   H134      1.0  0.80600  0.95730  0.28960  1.0000
  H   H135      1.0  0.30600  0.54270  0.78960  1.0000
  H   H136      1.0  0.19400  0.04270  0.71040  1.0000
  H   H137      1.0  0.66400  0.50910  0.21410  1.0000
  H   H138      1.0  0.83600  0.00910  0.28590  1.0000
  H   H139      1.0  0.33600  0.49090  0.78590  1.0000
  H   H140      1.0  0.16400  0.99090  0.71410  1.0000
  C   C5        1.0  0.69760  0.39020  0.76180  1.0000
  C   C6        1.0  0.80240  0.89020  0.73820  1.0000
  C   C7        1.0  0.30240  0.60980  0.23820  1.0000
  C   C8        1.0  0.19760  0.10980  0.26180  1.0000
  H   H141      1.0  0.75640  0.40370  0.77810  1.0000
  H   H142      1.0  0.74360  0.90370  0.72190  1.0000
  H   H143      1.0  0.24360  0.59630  0.22190  1.0000
  H   H144      1.0  0.25640  0.09630  0.27810  1.0000
  H   H145      1.0  0.68080  0.37230  0.80690  1.0000
  H   H146      1.0  0.81920  0.87230  0.69310  1.0000
  H   H147      1.0  0.31920  0.62770  0.19310  1.0000
  H   H148      1.0  0.18080  0.12770  0.30690  1.0000
  C   C9        1.0  0.90580  0.18420  0.65910  1.0000
  C   C10       1.0  0.59420  0.68420  0.84090  1.0000
  C   C11       1.0  0.09420  0.81580  0.34090  1.0000
  C   C12       1.0  0.40580  0.31580  0.15910  1.0000
  H   H149      1.0  0.95810  0.17630  0.63240  1.0000
  H   H150      1.0  0.54190  0.67630  0.86760  1.0000
  H   H151      1.0  0.04190  0.82370  0.36760  1.0000
  H   H152      1.0  0.45810  0.32370  0.13240  1.0000
  H   H153      1.0  0.86460  0.15820  0.65520  1.0000
  H   H154      1.0  0.63540  0.65820  0.84480  1.0000
  H   H155      1.0  0.13540  0.84180  0.34480  1.0000
  H   H156      1.0  0.36460  0.34180  0.15520  1.0000
  C   C13       1.0  0.86010  0.22580  0.62120  1.0000
  C   C14       1.0  0.63990  0.72580  0.87880  1.0000
  C   C15       1.0  0.13990  0.77420  0.37880  1.0000
  C   C16       1.0  0.36010  0.27420  0.12120  1.0000
  H   H157      1.0  0.88640  0.23430  0.57270  1.0000
  H   H158      1.0  0.61360  0.73430  0.92730  1.0000
  H   H159      1.0  0.11360  0.76570  0.42730  1.0000
  H   H160      1.0  0.38640  0.26570  0.07270  1.0000
  H   H161      1.0  0.79620  0.22000  0.60670  1.0000
  H   H162      1.0  0.70380  0.72000  0.89330  1.0000
  H   H163      1.0  0.20380  0.78000  0.39330  1.0000
  H   H164      1.0  0.29620  0.28000  0.10670  1.0000
  C   C17       1.0  0.93360  0.19640  0.74540  1.0000
  C   C18       1.0  0.56640  0.69640  0.75460  1.0000
  C   C19       1.0  0.06640  0.80360  0.25460  1.0000
  C   C20       1.0  0.43360  0.30360  0.24540  1.0000
  H   H165      1.0  0.89380  0.18130  0.77930  1.0000
  H   H166      1.0  0.60620  0.68130  0.72070  1.0000
  H   H167      1.0  0.10620  0.81870  0.22070  1.0000
  H   H168      1.0  0.39380  0.31870  0.27930  1.0000
  H   H169      1.0  0.99460  0.18550  0.76150  1.0000
  H   H170      1.0  0.50540  0.68550  0.73850  1.0000
  H   H171      1.0  0.00540  0.81450  0.23850  1.0000
  H   H172      1.0  0.49460  0.31450  0.26150  1.0000
  C   C21       1.0  0.63250  0.42640  0.74310  1.0000
  C   C22       1.0  0.86750  0.92640  0.75690  1.0000
  C   C23       1.0  0.36750  0.57360  0.25690  1.0000
  C   C24       1.0  0.13250  0.07360  0.24310  1.0000
  H   H173      1.0  0.66130  0.45520  0.73170  1.0000
  H   H174      1.0  0.83870  0.95520  0.76830  1.0000
  H   H175      1.0  0.33870  0.54480  0.26830  1.0000
  H   H176      1.0  0.16130  0.04480  0.23170  1.0000
  H   H177      1.0  0.59520  0.43090  0.78640  1.0000
  H   H178      1.0  0.90480  0.93090  0.71360  1.0000
  H   H179      1.0  0.40480  0.56910  0.21360  1.0000
  H   H180      1.0  0.09520  0.06910  0.28640  1.0000
  C   C25       1.0  0.60620  0.47620  0.11490  1.0000
  C   C26       1.0  0.89380  0.97620  0.38510  1.0000
  C   C27       1.0  0.39380  0.52380  0.88510  1.0000
  C   C28       1.0  0.10620  0.02380  0.61490  1.0000
  H   H181      1.0  0.65300  0.47000  0.08040  1.0000
  H   H182      1.0  0.84700  0.97000  0.41960  1.0000
  H   H183      1.0  0.34700  0.53000  0.91960  1.0000
  H   H184      1.0  0.15300  0.03000  0.58040  1.0000
  H   H185      1.0  0.57530  0.50450  0.09760  1.0000
  H   H186      1.0  0.92470  0.00450  0.40240  1.0000
  H   H187      1.0  0.42470  0.49550  0.90240  1.0000
  H   H188      1.0  0.07530  0.99550  0.59760  1.0000
  C   C29       1.0  0.57270  0.64580  0.09780  1.0000
  C   C30       1.0  0.92730  0.14580  0.40220  1.0000
  C   C31       1.0  0.42730  0.35420  0.90220  1.0000
  C   C32       1.0  0.07270  0.85420  0.59780  1.0000
  H   H189      1.0  0.62110  0.66040  0.07290  1.0000
  H   H190      1.0  0.87890  0.16040  0.42710  1.0000
  H   H191      1.0  0.37890  0.33960  0.92710  1.0000
  H   H192      1.0  0.12110  0.83960  0.57290  1.0000
  H   H193      1.0  0.53440  0.62930  0.05630  1.0000
  H   H194      1.0  0.96560  0.12930  0.44370  1.0000
  H   H195      1.0  0.46560  0.37070  0.94370  1.0000
  H   H196      1.0  0.03440  0.87070  0.55630  1.0000
  C   C33       1.0  0.52230  0.42860  0.20000  1.0000
  C   C34       1.0  0.97770  0.92860  0.30000  1.0000
  C   C35       1.0  0.47770  0.57140  0.80000  1.0000
  C   C36       1.0  0.02230  0.07140  0.70000  1.0000
  H   H197      1.0  0.45810  0.43080  0.20410  1.0000
  H   H198      1.0  0.04190  0.93080  0.29590  1.0000
  H   H199      1.0  0.54190  0.56920  0.79590  1.0000
  H   H200      1.0  0.95810  0.06920  0.70410  1.0000
  H   H201      1.0  0.54360  0.39850  0.21880  1.0000
  H   H202      1.0  0.95640  0.89850  0.28120  1.0000
  H   H203      1.0  0.45640  0.60150  0.78120  1.0000
  H   H204      1.0  0.04360  0.10150  0.71880  1.0000
  C   C37       1.0  0.61540  0.36250  0.64620  1.0000
  C   C38       1.0  0.88460  0.86250  0.85380  1.0000
  C   C39       1.0  0.38460  0.63750  0.35380  1.0000
  C   C40       1.0  0.11540  0.13750  0.14620  1.0000
  H   H205      1.0  0.57700  0.33730  0.65940  1.0000
  H   H206      1.0  0.92300  0.83730  0.84060  1.0000
  H   H207      1.0  0.42300  0.66270  0.34060  1.0000
  H   H208      1.0  0.07700  0.16270  0.15940  1.0000
  H   H209      1.0  0.62150  0.36150  0.58880  1.0000
  H   H210      1.0  0.87850  0.86150  0.91120  1.0000
  H   H211      1.0  0.37850  0.63850  0.41120  1.0000
  H   H212      1.0  0.12150  0.13850  0.08880  1.0000
  C   C41       1.0  0.51980  0.68080  0.13530  1.0000
  C   C42       1.0  0.98020  0.18080  0.36470  1.0000
  C   C43       1.0  0.48020  0.31920  0.86470  1.0000
  C   C44       1.0  0.01980  0.81920  0.63530  1.0000
  H   H213      1.0  0.46440  0.66850  0.15200  1.0000
  H   H214      1.0  0.03560  0.16850  0.34800  1.0000
  H   H215      1.0  0.53560  0.33150  0.84800  1.0000
  H   H216      1.0  0.96440  0.83150  0.65200  1.0000
  H   H217      1.0  0.50650  0.70750  0.10090  1.0000
  H   H218      1.0  0.99350  0.20750  0.39910  1.0000
  H   H219      1.0  0.49350  0.29250  0.89910  1.0000
  H   H220      1.0  0.00650  0.79250  0.60090  1.0000
  C   C45       1.0  0.57910  0.40670  0.66860  1.0000
  C   C46       1.0  0.92090  0.90670  0.83140  1.0000
  C   C47       1.0  0.42090  0.59330  0.33140  1.0000
  C   C48       1.0  0.07910  0.09330  0.16860  1.0000
  H   H221      1.0  0.51670  0.40270  0.67850  1.0000
  H   H222      1.0  0.98330  0.90270  0.82150  1.0000
  H   H223      1.0  0.48330  0.59730  0.32150  1.0000
  H   H224      1.0  0.01670  0.09730  0.17850  1.0000
  H   H225      1.0  0.58010  0.42820  0.62410  1.0000
  H   H226      1.0  0.91990  0.92820  0.87590  1.0000
  H   H227      1.0  0.41990  0.57180  0.37590  1.0000
  H   H228      1.0  0.08010  0.07180  0.12410  1.0000
  C   C49       1.0  0.54130  0.43660  0.11480  1.0000
  C   C50       1.0  0.95870  0.93660  0.38520  1.0000
  C   C51       1.0  0.45870  0.56340  0.88520  1.0000
  C   C52       1.0  0.04130  0.06340  0.61480  1.0000
  H   H229      1.0  0.48570  0.44380  0.08080  1.0000
  H   H230      1.0  0.01430  0.94380  0.41920  1.0000
  H   H231      1.0  0.51430  0.55620  0.91920  1.0000
  H   H232      1.0  0.98570  0.05620  0.58080  1.0000
  H   H233      1.0  0.56740  0.40920  0.09380  1.0000
  H   H234      1.0  0.93260  0.90920  0.40620  1.0000
  H   H235      1.0  0.43260  0.59080  0.90620  1.0000
  H   H236      1.0  0.06740  0.09080  0.59380  1.0000
  C   C53       1.0  0.58970  0.69060  0.20560  1.0000
  C   C54       1.0  0.91030  0.19060  0.29440  1.0000
  C   C55       1.0  0.41030  0.30940  0.79440  1.0000
  C   C56       1.0  0.08970  0.80940  0.70560  1.0000
  H   H237      1.0  0.63010  0.71470  0.19150  1.0000
  H   H238      1.0  0.86990  0.21470  0.30850  1.0000
  H   H239      1.0  0.36990  0.28530  0.80850  1.0000
  H   H240      1.0  0.13010  0.78530  0.69150  1.0000
  H   H241      1.0  0.56060  0.70100  0.25160  1.0000
  H   H242      1.0  0.93940  0.20100  0.24840  1.0000
  H   H243      1.0  0.43940  0.29900  0.74840  1.0000
  H   H244      1.0  0.06060  0.79900  0.75160  1.0000
  C   C57       1.0  0.84340  0.72750  0.44900  1.0000
  C   C58       1.0  0.65660  0.22750  0.05100  1.0000
  C   C59       1.0  0.15660  0.27250  0.55100  1.0000
  C   C60       1.0  0.34340  0.77250  0.94900  1.0000
  H   H245      1.0  0.80540  0.72990  0.49230  1.0000
  H   H246      1.0  0.69460  0.22990  0.00770  1.0000
  H   H247      1.0  0.19460  0.27010  0.50770  1.0000
  H   H248      1.0  0.30540  0.77010  0.99230  1.0000
  H   H249      1.0  0.88890  0.70420  0.46450  1.0000
  H   H250      1.0  0.61110  0.20420  0.03550  1.0000
  H   H251      1.0  0.11110  0.29580  0.53550  1.0000
  H   H252      1.0  0.38890  0.79580  0.96450  1.0000
  C   C61       1.0  0.61270  0.61190  0.16560  1.0000
  C   C62       1.0  0.88730  0.11190  0.33440  1.0000
  C   C63       1.0  0.38730  0.38810  0.83440  1.0000
  C   C64       1.0  0.11270  0.88810  0.66560  1.0000
  H   H253      1.0  0.56760  0.59120  0.18290  1.0000
  H   H254      1.0  0.93240  0.09120  0.31710  1.0000
  H   H255      1.0  0.43240  0.40880  0.81710  1.0000
  H   H256      1.0  0.06760  0.90880  0.68290  1.0000
  H   H257      1.0  0.66360  0.59440  0.15050  1.0000
  H   H258      1.0  0.83640  0.09440  0.34950  1.0000
  H   H259      1.0  0.33640  0.40560  0.84950  1.0000
  H   H260      1.0  0.16360  0.90560  0.65050  1.0000
  C   C65       1.0  0.92970  0.24710  0.75710  1.0000
  C   C66       1.0  0.57030  0.74710  0.74290  1.0000
  C   C67       1.0  0.07030  0.75290  0.24290  1.0000
  C   C68       1.0  0.42970  0.25290  0.25710  1.0000
  H   H261      1.0  0.98960  0.26070  0.76180  1.0000
  H   H262      1.0  0.51040  0.76070  0.73820  1.0000
  H   H263      1.0  0.01040  0.73930  0.23820  1.0000
  H   H264      1.0  0.48960  0.23930  0.26180  1.0000
  H   H265      1.0  0.90120  0.25480  0.80480  1.0000
  H   H266      1.0  0.59880  0.75480  0.69520  1.0000
  H   H267      1.0  0.09880  0.74520  0.19520  1.0000
  H   H268      1.0  0.40120  0.24520  0.30480  1.0000
  C   C69       1.0  0.88750  0.77070  0.44060  1.0000
  C   C70       1.0  0.61250  0.27070  0.05940  1.0000
  C   C71       1.0  0.11250  0.22930  0.55940  1.0000
  C   C72       1.0  0.38750  0.72930  0.94060  1.0000
  H   H269      1.0  0.95060  0.76640  0.43360  1.0000
  H   H270      1.0  0.54940  0.26640  0.06640  1.0000
  H   H271      1.0  0.04940  0.23360  0.56640  1.0000
  H   H272      1.0  0.45060  0.73360  0.93360  1.0000
  H   H273      1.0  0.88330  0.79020  0.48740  1.0000
  H   H274      1.0  0.61670  0.29020  0.01260  1.0000
  H   H275      1.0  0.11670  0.20980  0.51260  1.0000
  H   H276      1.0  0.38330  0.70980  0.98740  1.0000
  C   C73       1.0  0.82420  0.74590  0.32450  1.0000
  C   C74       1.0  0.67580  0.24590  0.17550  1.0000
  C   C75       1.0  0.17580  0.25410  0.67550  1.0000
  C   C76       1.0  0.32420  0.75410  0.82450  1.0000
  H   H277      1.0  0.78670  0.74980  0.27320  1.0000
  H   H278      1.0  0.71330  0.24980  0.22680  1.0000
  H   H279      1.0  0.21330  0.25020  0.72680  1.0000
  H   H280      1.0  0.28670  0.75020  0.77320  1.0000
  H   H281      1.0  0.88300  0.73520  0.31300  1.0000
  H   H282      1.0  0.61700  0.23520  0.18700  1.0000
  H   H283      1.0  0.11700  0.26480  0.68700  1.0000
  H   H284      1.0  0.38300  0.76480  0.81300  1.0000
  C   C77       1.0  0.83520  0.79110  0.36530  1.0000
  C   C78       1.0  0.66480  0.29110  0.13470  1.0000
  C   C79       1.0  0.16480  0.20890  0.63470  1.0000
  C   C80       1.0  0.33520  0.70890  0.86530  1.0000
  H   H285      1.0  0.77830  0.80480  0.37530  1.0000
  H   H286      1.0  0.72170  0.30480  0.12470  1.0000
  H   H287      1.0  0.22170  0.19520  0.62470  1.0000
  H   H288      1.0  0.27830  0.69520  0.87530  1.0000
  H   H289      1.0  0.87050  0.81270  0.33750  1.0000
  H   H290      1.0  0.62950  0.31270  0.16250  1.0000
  H   H291      1.0  0.12950  0.18730  0.66250  1.0000
  H   H292      1.0  0.37050  0.68730  0.83750  1.0000
