data_image0
_chemical_formula_structural       La4O32C16
_chemical_formula_sum              "La4 O32 C16"
_cell_length_a       5.7574
_cell_length_b       15.634
_cell_length_c       8.8312
_cell_angle_alpha    90
_cell_angle_beta     91.105
_cell_angle_gamma    90

_space_group_name_H-M_alt    "P 1"
_space_group_IT_number       1

loop_
  _space_group_symop_operation_xyz
  'x, y, z'

loop_
  _atom_site_type_symbol
  _atom_site_label
  _atom_site_symmetry_multiplicity
  _atom_site_fract_x
  _atom_site_fract_y
  _atom_site_fract_z
  _atom_site_occupancy
  La  La1       1.0  0.07225  0.59813  0.81876  1.0000
  La  La2       1.0  0.92775  0.09813  0.68124  1.0000
  La  La3       1.0  0.92775  0.40187  0.18124  1.0000
  La  La4       1.0  0.07225  0.90187  0.31876  1.0000
  O   O1        1.0  0.88990  0.47280  0.67620  1.0000
  O   O2        1.0  0.11010  0.97280  0.82380  1.0000
  O   O3        1.0  0.11010  0.52720  0.32380  1.0000
  O   O4        1.0  0.88990  0.02720  0.17620  1.0000
  O   O5        1.0  0.75350  0.44290  0.44290  1.0000
  O   O6        1.0  0.24650  0.94290  0.05710  1.0000
  O   O7        1.0  0.24650  0.55710  0.55710  1.0000
  O   O8        1.0  0.75350  0.05710  0.94290  1.0000
  O   O9        1.0  0.25510  0.73390  0.72690  1.0000
  O   O10       1.0  0.74490  0.23390  0.77310  1.0000
  O   O11       1.0  0.74490  0.26610  0.27310  1.0000
  O   O12       1.0  0.25510  0.76610  0.22690  1.0000
  O   O13       1.0  0.24430  0.84170  0.56230  1.0000
  O   O14       1.0  0.75570  0.34170  0.93770  1.0000
  O   O15       1.0  0.75570  0.15830  0.43770  1.0000
  O   O16       1.0  0.24430  0.65830  0.06230  1.0000
  O   O17       1.0  0.85510  0.77730  0.43400  1.0000
  O   O18       1.0  0.14490  0.27730  0.06600  1.0000
  O   O19       1.0  0.14490  0.22270  0.56600  1.0000
  O   O20       1.0  0.85510  0.72270  0.93400  1.0000
  O   O21       1.0  0.85690  0.67140  0.60260  1.0000
  O   O22       1.0  0.14310  0.17140  0.89740  1.0000
  O   O23       1.0  0.14310  0.32860  0.39740  1.0000
  O   O24       1.0  0.85690  0.82860  0.10260  1.0000
  O   O25       1.0  0.78930  0.53251  0.01470  1.0000
  O   O26       1.0  0.21070  0.03251  0.48530  1.0000
  O   O27       1.0  0.21070  0.46749  0.98530  1.0000
  O   O28       1.0  0.78930  0.96749  0.51470  1.0000
  O   O29       1.0  0.51630  0.56730  0.84260  1.0000
  O   O30       1.0  0.48370  0.06730  0.65740  1.0000
  O   O31       1.0  0.48370  0.43270  0.15740  1.0000
  O   O32       1.0  0.51630  0.93270  0.34260  1.0000
  C   C1        1.0  0.89540  0.47570  0.53380  1.0000
  C   C2        1.0  0.10460  0.97570  0.96620  1.0000
  C   C3        1.0  0.10460  0.52430  0.46620  1.0000
  C   C4        1.0  0.89540  0.02430  0.03380  1.0000
  C   C5        1.0  0.16580  0.77440  0.61800  1.0000
  C   C6        1.0  0.83420  0.27440  0.88200  1.0000
  C   C7        1.0  0.83420  0.22560  0.38200  1.0000
  C   C8        1.0  0.16580  0.72560  0.11800  1.0000
  C   C9        1.0  0.93900  0.73800  0.54550  1.0000
  C   C10       1.0  0.06100  0.23800  0.95450  1.0000
  C   C11       1.0  0.06100  0.26200  0.45450  1.0000
  C   C12       1.0  0.93900  0.76200  0.04550  1.0000
  C   C13       1.0  0.58600  0.52930  0.95790  1.0000
  C   C14       1.0  0.41400  0.02930  0.54210  1.0000
  C   C15       1.0  0.41400  0.47070  0.04210  1.0000
  C   C16       1.0  0.58600  0.97070  0.45790  1.0000
