data_image0
_chemical_formula_structural       Mn4O28H4O4H8C8H8C8H8C8
_chemical_formula_sum              "Mn4 O32 H28 C24"
_cell_length_a       9.1726
_cell_length_b       6.7358
_cell_length_c       20.47
_cell_angle_alpha    90
_cell_angle_beta     96.572
_cell_angle_gamma    90

_space_group_name_H-M_alt    "P 1"
_space_group_IT_number       1

loop_
  _space_group_symop_operation_xyz
  'x, y, z'

loop_
  _atom_site_type_symbol
  _atom_site_label
  _atom_site_symmetry_multiplicity
  _atom_site_fract_x
  _atom_site_fract_y
  _atom_site_fract_z
  _atom_site_occupancy
  Mn  Mn1       1.0  0.54060  0.98856  0.71781  1.0000
  Mn  Mn2       1.0  0.95940  0.48856  0.78219  1.0000
  Mn  Mn3       1.0  0.45940  0.01144  0.28219  1.0000
  Mn  Mn4       1.0  0.04060  0.51144  0.21781  1.0000
  O   O1        1.0  0.66557  0.00560  0.81379  1.0000
  O   O2        1.0  0.83443  0.50560  0.68621  1.0000
  O   O3        1.0  0.33443  0.99440  0.18621  1.0000
  O   O4        1.0  0.16557  0.49440  0.31379  1.0000
  O   O5        1.0  0.81684  0.24620  0.79322  1.0000
  O   O6        1.0  0.68316  0.74620  0.70678  1.0000
  O   O7        1.0  0.18316  0.75380  0.20678  1.0000
  O   O8        1.0  0.31684  0.25380  0.29322  1.0000
  O   O9        1.0  0.20890  0.50570  0.97521  1.0000
  O   O10       1.0  0.29110  0.00570  0.52479  1.0000
  O   O11       1.0  0.79110  0.49430  0.02479  1.0000
  O   O12       1.0  0.70890  0.99430  0.47521  1.0000
  O   O13       1.0  0.11381  0.47490  0.87145  1.0000
  O   O14       1.0  0.38619  0.97490  0.62855  1.0000
  O   O15       1.0  0.88619  0.52510  0.12855  1.0000
  O   O16       1.0  0.61381  0.02510  0.37145  1.0000
  O   O17       1.0  0.04642  0.78470  0.76618  1.0000
  O   O18       1.0  0.45358  0.28470  0.73382  1.0000
  O   O19       1.0  0.95358  0.21530  0.23382  1.0000
  O   O20       1.0  0.54642  0.71530  0.26618  1.0000
  O   O21       1.0  0.16919  0.99990  0.83386  1.0000
  O   O22       1.0  0.33081  0.49990  0.66614  1.0000
  O   O23       1.0  0.83081  0.00010  0.16614  1.0000
  O   O24       1.0  0.66919  0.50010  0.33386  1.0000
  O   O25       1.0  0.85173  0.69410  0.84618  1.0000
  O   O26       1.0  0.64827  0.19410  0.65382  1.0000
  O   O27       1.0  0.14827  0.30590  0.15382  1.0000
  O   O28       1.0  0.35173  0.80590  0.34618  1.0000
  H   H1        1.0  0.78600  0.75400  0.82530  1.0000
  H   H2        1.0  0.71400  0.25400  0.67470  1.0000
  H   H3        1.0  0.21400  0.24600  0.17470  1.0000
  H   H4        1.0  0.28600  0.74600  0.32530  1.0000
  O   O29       1.0  0.37905  0.81880  0.76064  1.0000
  O   O30       1.0  0.12095  0.31880  0.73936  1.0000
  O   O31       1.0  0.62095  0.18120  0.23936  1.0000
  O   O32       1.0  0.87905  0.68120  0.26064  1.0000
  H   H5        1.0  0.32200  0.86300  0.78330  1.0000
  H   H6        1.0  0.17800  0.36300  0.71670  1.0000
  H   H7        1.0  0.67800  0.13700  0.21670  1.0000
  H   H8        1.0  0.82200  0.63700  0.28330  1.0000
  H   H9        1.0  0.33500  0.73700  0.73780  1.0000
  H   H10       1.0  0.16500  0.23700  0.76220  1.0000
  H   H11       1.0  0.66500  0.26300  0.26220  1.0000
  H   H12       1.0  0.83500  0.76300  0.23780  1.0000
  C   C1        1.0  0.78180  0.10690  0.82774  1.0000
  C   C2        1.0  0.71820  0.60690  0.67226  1.0000
  C   C3        1.0  0.21820  0.89310  0.17226  1.0000
  C   C4        1.0  0.28180  0.39310  0.32774  1.0000
  C   C5        1.0  0.88330  0.03640  0.88698  1.0000
  C   C6        1.0  0.61670  0.53640  0.61302  1.0000
  C   C7        1.0  0.11670  0.96360  0.11302  1.0000
  C   C8        1.0  0.38330  0.46360  0.38698  1.0000
  H   H13       1.0  0.82630  0.01660  0.92470  1.0000
  H   H14       1.0  0.67370  0.51660  0.57530  1.0000
  H   H15       1.0  0.17370  0.98340  0.07530  1.0000
  H   H16       1.0  0.32630  0.48340  0.42470  1.0000
  H   H17       1.0  0.95890  0.13860  0.89940  1.0000
  H   H18       1.0  0.54110  0.63860  0.60060  1.0000
  H   H19       1.0  0.04110  0.86140  0.10060  1.0000
  H   H20       1.0  0.45890  0.36140  0.39940  1.0000
  C   C9        1.0  0.95810  0.84000  0.87130  1.0000
  C   C10       1.0  0.54190  0.34000  0.62870  1.0000
  C   C11       1.0  0.04190  0.16000  0.12870  1.0000
  C   C12       1.0  0.45810  0.66000  0.37130  1.0000
  C   C13       1.0  0.03820  0.75160  0.93446  1.0000
  C   C14       1.0  0.46180  0.25160  0.56554  1.0000
  C   C15       1.0  0.96180  0.24840  0.06554  1.0000
  C   C16       1.0  0.53820  0.74840  0.43446  1.0000
  H   H21       1.0  0.10550  0.85360  0.95560  1.0000
  H   H22       1.0  0.39450  0.35360  0.54440  1.0000
  H   H23       1.0  0.89450  0.14640  0.04440  1.0000
  H   H24       1.0  0.60550  0.64640  0.45560  1.0000
  H   H25       1.0  0.96460  0.72230  0.96500  1.0000
  H   H26       1.0  0.53540  0.22230  0.53500  1.0000
  H   H27       1.0  0.03540  0.27770  0.03500  1.0000
  H   H28       1.0  0.46460  0.77770  0.46500  1.0000
  C   C17       1.0  0.12490  0.56650  0.92621  1.0000
  C   C18       1.0  0.37510  0.06650  0.57379  1.0000
  C   C19       1.0  0.87510  0.43350  0.07379  1.0000
  C   C20       1.0  0.62490  0.93350  0.42621  1.0000
  C   C21       1.0  0.06700  0.87950  0.81982  1.0000
  C   C22       1.0  0.43300  0.37950  0.68018  1.0000
  C   C23       1.0  0.93300  0.12050  0.18018  1.0000
  C   C24       1.0  0.56700  0.62050  0.31982  1.0000
