data_image0
_chemical_formula_structural       Mn4N8H8N4H8N4H8C4H8C4H8C4H8C4H8C4H8C4H8Sb4S16
_chemical_formula_sum              "Mn4 N16 H72 C24 Sb4 S16"
_cell_length_a       15.529
_cell_length_b       7.9238
_cell_length_c       28.524
_cell_angle_alpha    90
_cell_angle_beta     119.779
_cell_angle_gamma    90

_space_group_name_H-M_alt    "P 1"
_space_group_IT_number       1

loop_
  _space_group_symop_operation_xyz
  'x, y, z'

loop_
  _atom_site_type_symbol
  _atom_site_label
  _atom_site_symmetry_multiplicity
  _atom_site_fract_x
  _atom_site_fract_y
  _atom_site_fract_z
  _atom_site_occupancy
  Mn  Mn1       1.0  0.13812  0.11575  0.26394  1.0000
  Mn  Mn2       1.0  0.86188  0.11575  0.23606  1.0000
  Mn  Mn3       1.0  0.86188  0.88425  0.73606  1.0000
  Mn  Mn4       1.0  0.13812  0.88425  0.76394  1.0000
  N   N1        1.0  0.21560  0.84490  0.27500  1.0000
  N   N2        1.0  0.78440  0.84490  0.22500  1.0000
  N   N3        1.0  0.78440  0.15510  0.72500  1.0000
  N   N4        1.0  0.21560  0.15510  0.77500  1.0000
  N   N5        1.0  0.17660  0.11190  0.19790  1.0000
  N   N6        1.0  0.82340  0.11190  0.30210  1.0000
  N   N7        1.0  0.82340  0.88810  0.80210  1.0000
  N   N8        1.0  0.17660  0.88810  0.69790  1.0000
  H   H1        1.0  0.12850  0.16320  0.16830  1.0000
  H   H2        1.0  0.87150  0.16320  0.33170  1.0000
  H   H3        1.0  0.87150  0.83680  0.83170  1.0000
  H   H4        1.0  0.12850  0.83680  0.66830  1.0000
  H   H5        1.0  0.23380  0.16780  0.20850  1.0000
  H   H6        1.0  0.76620  0.16780  0.29150  1.0000
  H   H7        1.0  0.76620  0.83220  0.79150  1.0000
  H   H8        1.0  0.23380  0.83220  0.70850  1.0000
  N   N9        1.0  0.11390  0.39600  0.26139  1.0000
  N   N10       1.0  0.88610  0.39600  0.23861  1.0000
  N   N11       1.0  0.88610  0.60400  0.73861  1.0000
  N   N12       1.0  0.11390  0.60400  0.76139  1.0000
  H   H9        1.0  0.06390  0.41840  0.22790  1.0000
  H   H10       1.0  0.93610  0.41840  0.27210  1.0000
  H   H11       1.0  0.93610  0.58160  0.77210  1.0000
  H   H12       1.0  0.06390  0.58160  0.72790  1.0000
  H   H13       1.0  0.09020  0.41590  0.28390  1.0000
  H   H14       1.0  0.90980  0.41590  0.21610  1.0000
  H   H15       1.0  0.90980  0.58410  0.71610  1.0000
  H   H16       1.0  0.09020  0.58410  0.78390  1.0000
  N   N13       1.0  0.29450  0.15420  0.33435  1.0000
  N   N14       1.0  0.70550  0.15420  0.16565  1.0000
  N   N15       1.0  0.70550  0.84580  0.66565  1.0000
  N   N16       1.0  0.29450  0.84580  0.83435  1.0000
  H   H17       1.0  0.32430  0.23540  0.32540  1.0000
  H   H18       1.0  0.67570  0.23540  0.17460  1.0000
  H   H19       1.0  0.67570  0.76460  0.67460  1.0000
  H   H20       1.0  0.32430  0.76460  0.82540  1.0000
  H   H21       1.0  0.29040  0.19120  0.36300  1.0000
  H   H22       1.0  0.70960  0.19120  0.13700  1.0000
  H   H23       1.0  0.70960  0.80880  0.63700  1.0000
  H   H24       1.0  0.29040  0.80880  0.86300  1.0000
  C   C1        1.0  0.25660  0.84380  0.23780  1.0000
  C   C2        1.0  0.74340  0.84380  0.26220  1.0000
  C   C3        1.0  0.74340  0.15620  0.76220  1.0000
  C   C4        1.0  0.25660  0.15620  0.73780  1.0000
  H   H25       1.0  0.26560  0.72820  0.22990  1.0000
  H   H26       1.0  0.73440  0.72820  0.27010  1.0000
  H   H27       1.0  0.73440  0.27180  0.77010  1.0000
  H   H28       1.0  0.26560  0.27180  0.72990  1.0000
  H   H29       1.0  0.32090  0.89870  0.25510  1.0000
  H   H30       1.0  0.67910  0.89870  0.24490  1.0000
  H   H31       1.0  0.67910  0.10130  0.74490  1.0000
  H   H32       1.0  0.32090  0.10130  0.75510  1.0000
  C   C5        1.0  0.29390  0.84250  0.33221  1.0000
  C   C6        1.0  0.70610  0.84250  0.16779  1.0000
  C   C7        1.0  0.70610  0.15750  0.66779  1.0000
  C   C8        1.0  0.29390  0.15750  0.83221  1.0000
  H   H33       1.0  0.33690  0.74650  0.33820  1.0000
  H   H34       1.0  0.66310  0.74650  0.16180  1.0000
  H   H35       1.0  0.66310  0.25350  0.66180  1.0000
  H   H36       1.0  0.33690  0.25350  0.83820  1.0000
  H   H37       1.0  0.26330  0.82720  0.35440  1.0000
  H   H38       1.0  0.73670  0.82720  0.14560  1.0000
  H   H39       1.0  0.73670  0.17280  0.64560  1.0000
  H   H40       1.0  0.26330  0.17280  0.85440  1.0000
  C   C9        1.0  0.35690  0.00280  0.35030  1.0000
  C   C10       1.0  0.64310  0.00280  0.14970  1.0000
  C   C11       1.0  0.64310  0.99720  0.64970  1.0000
  C   C12       1.0  0.35690  0.99720  0.85030  1.0000
  H   H41       1.0  0.39910  0.00130  0.38930  1.0000
  H   H42       1.0  0.60090  0.00130  0.11070  1.0000
  H   H43       1.0  0.60090  0.99870  0.61070  1.0000
  H   H44       1.0  0.39910  0.99870  0.88930  1.0000
  H   H45       1.0  0.39930  0.00590  0.33430  1.0000
  H   H46       1.0  0.60070  0.00590  0.16570  1.0000
  H   H47       1.0  0.60070  0.99410  0.66570  1.0000
  H   H48       1.0  0.39930  0.99410  0.83430  1.0000
  C   C13       1.0  0.18700  0.93520  0.18534  1.0000
  C   C14       1.0  0.81300  0.93520  0.31466  1.0000
  C   C15       1.0  0.81300  0.06480  0.81466  1.0000
  C   C16       1.0  0.18700  0.06480  0.68534  1.0000
  H   H49       1.0  0.21370  0.93140  0.16100  1.0000
  H   H50       1.0  0.78630  0.93140  0.33900  1.0000
  H   H51       1.0  0.78630  0.06860  0.83900  1.0000
  H   H52       1.0  0.21370  0.06860  0.66100  1.0000
  H   H53       1.0  0.12260  0.88060  0.16780  1.0000
  H   H54       1.0  0.87740  0.88060  0.33220  1.0000
  H   H55       1.0  0.87740  0.11940  0.83220  1.0000
  H   H56       1.0  0.12260  0.11940  0.66780  1.0000
  C   C17       1.0  0.18870  0.52690  0.27320  1.0000
  C   C18       1.0  0.81130  0.52690  0.22680  1.0000
  C   C19       1.0  0.81130  0.47310  0.72680  1.0000
  C   C20       1.0  0.18870  0.47310  0.77320  1.0000
  H   H57       1.0  0.21800  0.50930  0.25040  1.0000
  H   H58       1.0  0.78200  0.50930  0.24960  1.0000
  H   H59       1.0  0.78200  0.49070  0.74960  1.0000
  H   H60       1.0  0.21800  0.49070  0.75040  1.0000
  H   H61       1.0  0.24100  0.51640  0.31050  1.0000
  H   H62       1.0  0.75900  0.51640  0.18950  1.0000
  H   H63       1.0  0.75900  0.48360  0.68950  1.0000
  H   H64       1.0  0.24100  0.48360  0.81050  1.0000
  C   C21       1.0  0.14520  0.70570  0.26371  1.0000
  C   C22       1.0  0.85480  0.70570  0.23629  1.0000
  C   C23       1.0  0.85480  0.29430  0.73629  1.0000
  C   C24       1.0  0.14520  0.29430  0.76371  1.0000
  H   H65       1.0  0.09280  0.71430  0.22640  1.0000
  H   H66       1.0  0.90720  0.71430  0.27360  1.0000
  H   H67       1.0  0.90720  0.28570  0.77360  1.0000
  H   H68       1.0  0.09280  0.28570  0.72640  1.0000
  H   H69       1.0  0.11500  0.72080  0.28610  1.0000
  H   H70       1.0  0.88500  0.72080  0.21390  1.0000
  H   H71       1.0  0.88500  0.27920  0.71390  1.0000
  H   H72       1.0  0.11500  0.27920  0.78610  1.0000
  Sb  Sb1       1.0  0.10653  0.22242  0.39478  1.0000
  Sb  Sb2       1.0  0.89347  0.22242  0.10522  1.0000
  Sb  Sb3       1.0  0.89347  0.77758  0.60522  1.0000
  Sb  Sb4       1.0  0.10653  0.77758  0.89478  1.0000
  S   S1        1.0  0.05260  0.03897  0.31905  1.0000
  S   S2        1.0  0.94740  0.03897  0.18095  1.0000
  S   S3        1.0  0.94740  0.96103  0.68095  1.0000
  S   S4        1.0  0.05260  0.96103  0.81905  1.0000
  S   S5        1.0  0.02334  0.14650  0.44029  1.0000
  S   S6        1.0  0.97666  0.14650  0.05971  1.0000
  S   S7        1.0  0.97666  0.85350  0.55971  1.0000
  S   S8        1.0  0.02334  0.85350  0.94029  1.0000
  S   S9        1.0  0.27719  0.19225  0.44937  1.0000
  S   S10       1.0  0.72281  0.19225  0.05063  1.0000
  S   S11       1.0  0.72281  0.80775  0.55063  1.0000
  S   S12       1.0  0.27719  0.80775  0.94937  1.0000
  S   S13       1.0  0.06708  0.49690  0.36357  1.0000
  S   S14       1.0  0.93292  0.49690  0.13643  1.0000
  S   S15       1.0  0.93292  0.50310  0.63643  1.0000
  S   S16       1.0  0.06708  0.50310  0.86357  1.0000
