data_image0
_chemical_formula_structural       Cd2Cl2O10H4Br2C6H2C4H2C4H2C2
_chemical_formula_sum              "Cd2 Cl2 O10 H10 Br2 C16"
_cell_length_a       8.803
_cell_length_b       9.512
_cell_length_c       10.099
_cell_angle_alpha    115.283
_cell_angle_beta     96.272
_cell_angle_gamma    91.594

_space_group_name_H-M_alt    "P 1"
_space_group_IT_number       1

loop_
  _space_group_symop_operation_xyz
  'x, y, z'

loop_
  _atom_site_type_symbol
  _atom_site_label
  _atom_site_symmetry_multiplicity
  _atom_site_fract_x
  _atom_site_fract_y
  _atom_site_fract_z
  _atom_site_occupancy
  Cd  Cd1       1.0  0.79018  0.01542  0.00243  1.0000
  Cd  Cd2       1.0  0.20982  0.98458  0.99757  1.0000
  Cl  Cl1       1.0  0.02591  0.20835  0.09425  1.0000
  Cl  Cl2       1.0  0.97409  0.79165  0.90575  1.0000
  O   O1        1.0  0.61430  0.88920  0.78880  1.0000
  O   O2        1.0  0.38570  0.11080  0.21120  1.0000
  O   O3        1.0  0.79260  0.03320  0.75830  1.0000
  O   O4        1.0  0.20740  0.96680  0.24170  1.0000
  O   O5        1.0  0.64740  0.86290  0.07620  1.0000
  O   O6        1.0  0.35260  0.13710  0.92380  1.0000
  O   O7        1.0  0.78490  0.04380  0.27150  1.0000
  O   O8        1.0  0.21510  0.95620  0.72850  1.0000
  O   O9        1.0  0.62740  0.21570  0.10040  1.0000
  O   O10       1.0  0.37260  0.78430  0.89960  1.0000
  H   H1        1.0  0.58540  0.20730  0.16880  1.0000
  H   H2        1.0  0.41460  0.79270  0.83120  1.0000
  H   H3        1.0  0.57540  0.18690  0.01570  1.0000
  H   H4        1.0  0.42460  0.81310  0.98430  1.0000
  Br  Br1       1.0  0.32694  0.48805  0.24477  1.0000
  Br  Br2       1.0  0.67306  0.51195  0.75523  1.0000
  C   C1        1.0  0.68030  0.93160  0.70730  1.0000
  C   C2        1.0  0.31970  0.06840  0.29270  1.0000
  C   C3        1.0  0.62530  0.86060  0.54640  1.0000
  C   C4        1.0  0.37470  0.13940  0.45360  1.0000
  C   C5        1.0  0.51990  0.73170  0.48330  1.0000
  C   C6        1.0  0.48010  0.26830  0.51670  1.0000
  H   H5        1.0  0.48340  0.68830  0.54180  1.0000
  H   H6        1.0  0.51660  0.31170  0.45820  1.0000
  C   C7        1.0  0.46830  0.66650  0.33250  1.0000
  C   C8        1.0  0.53170  0.33350  0.66750  1.0000
  C   C9        1.0  0.52130  0.72880  0.24380  1.0000
  C   C10       1.0  0.47870  0.27120  0.75620  1.0000
  H   H7        1.0  0.48530  0.68460  0.14330  1.0000
  H   H8        1.0  0.51470  0.31540  0.85670  1.0000
  C   C11       1.0  0.63010  0.85920  0.30500  1.0000
  C   C12       1.0  0.36990  0.14080  0.69500  1.0000
  C   C13       1.0  0.67900  0.92110  0.45420  1.0000
  C   C14       1.0  0.32100  0.07890  0.54580  1.0000
  H   H9        1.0  0.75090  0.00700  0.49580  1.0000
  H   H10       1.0  0.24910  0.99300  0.50420  1.0000
  C   C15       1.0  0.69080  0.92750  0.21260  1.0000
  C   C16       1.0  0.30920  0.07250  0.78740  1.0000
