data_image0
_chemical_formula_structural       Cd16Cl32O16C16N16C16H16C8H8
_chemical_formula_sum              "Cd16 Cl32 O16 C40 N16 H24"
_cell_length_a       15.1749
_cell_length_b       6.909
_cell_length_c       27.353
_cell_angle_alpha    90
_cell_angle_beta     90
_cell_angle_gamma    90

_space_group_name_H-M_alt    "P 1"
_space_group_IT_number       1

loop_
  _space_group_symop_operation_xyz
  'x, y, z'

loop_
  _atom_site_type_symbol
  _atom_site_label
  _atom_site_symmetry_multiplicity
  _atom_site_fract_x
  _atom_site_fract_y
  _atom_site_fract_z
  _atom_site_occupancy
  Cd  Cd1       1.0  0.29795  0.04274  0.37943  1.0000
  Cd  Cd2       1.0  0.70205  0.95726  0.87942  1.0000
  Cd  Cd3       1.0  0.70205  0.04274  0.12057  1.0000
  Cd  Cd4       1.0  0.29795  0.95726  0.62057  1.0000
  Cd  Cd5       1.0  0.79795  0.54274  0.37943  1.0000
  Cd  Cd6       1.0  0.20205  0.45726  0.87942  1.0000
  Cd  Cd7       1.0  0.20205  0.54274  0.12057  1.0000
  Cd  Cd8       1.0  0.79795  0.45726  0.62057  1.0000
  Cd  Cd9       1.0  0.70205  0.95726  0.62057  1.0000
  Cd  Cd10      1.0  0.29795  0.04274  0.12057  1.0000
  Cd  Cd11      1.0  0.29795  0.95726  0.87942  1.0000
  Cd  Cd12      1.0  0.70205  0.04274  0.37943  1.0000
  Cd  Cd13      1.0  0.20205  0.45726  0.62057  1.0000
  Cd  Cd14      1.0  0.79795  0.54274  0.12057  1.0000
  Cd  Cd15      1.0  0.79795  0.45726  0.87942  1.0000
  Cd  Cd16      1.0  0.20205  0.54274  0.37943  1.0000
  Cl  Cl1       1.0  0.18921  0.85749  0.43320  1.0000
  Cl  Cl2       1.0  0.81079  0.14251  0.93320  1.0000
  Cl  Cl3       1.0  0.81079  0.85749  0.06680  1.0000
  Cl  Cl4       1.0  0.18921  0.14251  0.56680  1.0000
  Cl  Cl5       1.0  0.68921  0.35749  0.43320  1.0000
  Cl  Cl6       1.0  0.31079  0.64251  0.93320  1.0000
  Cl  Cl7       1.0  0.31079  0.35749  0.06680  1.0000
  Cl  Cl8       1.0  0.68921  0.64251  0.56680  1.0000
  Cl  Cl9       1.0  0.81079  0.14251  0.56680  1.0000
  Cl  Cl10      1.0  0.18921  0.85749  0.06680  1.0000
  Cl  Cl11      1.0  0.18921  0.14251  0.93320  1.0000
  Cl  Cl12      1.0  0.81079  0.85749  0.43320  1.0000
  Cl  Cl13      1.0  0.31079  0.64251  0.56680  1.0000
  Cl  Cl14      1.0  0.68921  0.35749  0.06680  1.0000
  Cl  Cl15      1.0  0.68921  0.64251  0.93320  1.0000
  Cl  Cl16      1.0  0.31079  0.35749  0.43320  1.0000
  Cl  Cl17      1.0  0.19960  0.22990  0.32135  1.0000
  Cl  Cl18      1.0  0.80040  0.77010  0.82135  1.0000
  Cl  Cl19      1.0  0.80040  0.22990  0.17865  1.0000
  Cl  Cl20      1.0  0.19960  0.77010  0.67865  1.0000
  Cl  Cl21      1.0  0.69960  0.72990  0.32135  1.0000
  Cl  Cl22      1.0  0.30040  0.27010  0.82135  1.0000
  Cl  Cl23      1.0  0.30040  0.72990  0.17865  1.0000
  Cl  Cl24      1.0  0.69960  0.27010  0.67865  1.0000
  Cl  Cl25      1.0  0.80040  0.77010  0.67865  1.0000
  Cl  Cl26      1.0  0.19960  0.22990  0.17865  1.0000
  Cl  Cl27      1.0  0.19960  0.77010  0.82135  1.0000
  Cl  Cl28      1.0  0.80040  0.22990  0.32135  1.0000
  Cl  Cl29      1.0  0.30040  0.27010  0.67865  1.0000
  Cl  Cl30      1.0  0.69960  0.72990  0.17865  1.0000
  Cl  Cl31      1.0  0.69960  0.27010  0.82135  1.0000
  Cl  Cl32      1.0  0.30040  0.72990  0.32135  1.0000
  O   O1        1.0  0.42707  0.13880  0.33776  1.0000
  O   O2        1.0  0.57293  0.86120  0.83776  1.0000
  O   O3        1.0  0.57293  0.13880  0.16224  1.0000
  O   O4        1.0  0.42707  0.86120  0.66224  1.0000
  O   O5        1.0  0.92707  0.63880  0.33776  1.0000
  O   O6        1.0  0.07293  0.36120  0.83776  1.0000
  O   O7        1.0  0.07293  0.63880  0.16224  1.0000
  O   O8        1.0  0.92707  0.36120  0.66224  1.0000
  O   O9        1.0  0.57293  0.86120  0.66224  1.0000
  O   O10       1.0  0.42707  0.13880  0.16224  1.0000
  O   O11       1.0  0.42707  0.86120  0.83776  1.0000
  O   O12       1.0  0.57293  0.13880  0.33776  1.0000
  O   O13       1.0  0.07293  0.36120  0.66224  1.0000
  O   O14       1.0  0.92707  0.63880  0.16224  1.0000
  O   O15       1.0  0.92707  0.36120  0.83776  1.0000
  O   O16       1.0  0.07293  0.63880  0.33776  1.0000
  C   C1        1.0  0.50000  0.09310  0.35470  1.0000
  C   C2        1.0  0.50000  0.90690  0.85470  1.0000
  C   C3        1.0  0.50000  0.09310  0.14530  1.0000
  C   C4        1.0  0.50000  0.90690  0.64530  1.0000
  C   C5        1.0  0.00000  0.59310  0.35470  1.0000
  C   C6        1.0  0.00000  0.40690  0.85470  1.0000
  C   C7        1.0  0.00000  0.59310  0.14530  1.0000
  C   C8        1.0  0.00000  0.40690  0.64530  1.0000
  C   C9        1.0  0.50000  0.97010  0.40190  1.0000
  C   C10       1.0  0.50000  0.02990  0.90190  1.0000
  C   C11       1.0  0.50000  0.97010  0.09810  1.0000
  C   C12       1.0  0.50000  0.02990  0.59810  1.0000
  C   C13       1.0  0.00000  0.47010  0.40190  1.0000
  C   C14       1.0  0.00000  0.52990  0.90190  1.0000
  C   C15       1.0  0.00000  0.47010  0.09810  1.0000
  C   C16       1.0  0.00000  0.52990  0.59810  1.0000
  N   N1        1.0  0.42230  0.91980  0.42036  1.0000
  N   N2        1.0  0.57770  0.08020  0.92036  1.0000
  N   N3        1.0  0.57770  0.91980  0.07964  1.0000
  N   N4        1.0  0.42230  0.08020  0.57964  1.0000
  N   N5        1.0  0.92230  0.41980  0.42036  1.0000
  N   N6        1.0  0.07770  0.58020  0.92036  1.0000
  N   N7        1.0  0.07770  0.41980  0.07964  1.0000
  N   N8        1.0  0.92230  0.58020  0.57964  1.0000
  N   N9        1.0  0.57770  0.08020  0.57964  1.0000
  N   N10       1.0  0.42230  0.91980  0.07964  1.0000
  N   N11       1.0  0.42230  0.08020  0.92036  1.0000
  N   N12       1.0  0.57770  0.91980  0.42036  1.0000
  N   N13       1.0  0.07770  0.58020  0.57964  1.0000
  N   N14       1.0  0.92230  0.41980  0.07964  1.0000
  N   N15       1.0  0.92230  0.58020  0.92036  1.0000
  N   N16       1.0  0.07770  0.41980  0.42036  1.0000
  C   C17       1.0  0.42210  0.80890  0.46027  1.0000
  C   C18       1.0  0.57790  0.19110  0.96027  1.0000
  C   C19       1.0  0.57790  0.80890  0.03973  1.0000
  C   C20       1.0  0.42210  0.19110  0.53973  1.0000
  C   C21       1.0  0.92210  0.30890  0.46027  1.0000
  C   C22       1.0  0.07790  0.69110  0.96027  1.0000
  C   C23       1.0  0.07790  0.30890  0.03973  1.0000
  C   C24       1.0  0.92210  0.69110  0.53973  1.0000
  C   C25       1.0  0.57790  0.19110  0.53973  1.0000
  C   C26       1.0  0.42210  0.80890  0.03973  1.0000
  C   C27       1.0  0.42210  0.19110  0.96027  1.0000
  C   C28       1.0  0.57790  0.80890  0.46027  1.0000
  C   C29       1.0  0.07790  0.69110  0.53973  1.0000
  C   C30       1.0  0.92210  0.30890  0.03973  1.0000
  C   C31       1.0  0.92210  0.69110  0.96027  1.0000
  C   C32       1.0  0.07790  0.30890  0.46027  1.0000
  H   H1        1.0  0.36860  0.76980  0.47360  1.0000
  H   H2        1.0  0.63140  0.23020  0.97360  1.0000
  H   H3        1.0  0.63140  0.76980  0.02640  1.0000
  H   H4        1.0  0.36860  0.23020  0.52640  1.0000
  H   H5        1.0  0.86860  0.26980  0.47360  1.0000
  H   H6        1.0  0.13140  0.73020  0.97360  1.0000
  H   H7        1.0  0.13140  0.26980  0.02640  1.0000
  H   H8        1.0  0.86860  0.73020  0.52640  1.0000
  H   H9        1.0  0.63140  0.23020  0.52640  1.0000
  H   H10       1.0  0.36860  0.76980  0.02640  1.0000
  H   H11       1.0  0.36860  0.23020  0.97360  1.0000
  H   H12       1.0  0.63140  0.76980  0.47360  1.0000
  H   H13       1.0  0.13140  0.73020  0.52640  1.0000
  H   H14       1.0  0.86860  0.26980  0.02640  1.0000
  H   H15       1.0  0.86860  0.73020  0.97360  1.0000
  H   H16       1.0  0.13140  0.26980  0.47360  1.0000
  C   C33       1.0  0.50000  0.75080  0.48230  1.0000
  C   C34       1.0  0.50000  0.24920  0.98230  1.0000
  C   C35       1.0  0.50000  0.75080  0.01770  1.0000
  C   C36       1.0  0.50000  0.24920  0.51770  1.0000
  C   C37       1.0  0.00000  0.25080  0.48230  1.0000
  C   C38       1.0  0.00000  0.74920  0.98230  1.0000
  C   C39       1.0  0.00000  0.25080  0.01770  1.0000
  C   C40       1.0  0.00000  0.74920  0.51770  1.0000
  H   H17       1.0  0.50000  0.67620  0.51060  1.0000
  H   H18       1.0  0.50000  0.32380  0.01060  1.0000
  H   H19       1.0  0.50000  0.67620  0.98940  1.0000
  H   H20       1.0  0.50000  0.32380  0.48940  1.0000
  H   H21       1.0  0.00000  0.17620  0.51060  1.0000
  H   H22       1.0  0.00000  0.82380  0.01060  1.0000
  H   H23       1.0  0.00000  0.17620  0.98940  1.0000
  H   H24       1.0  0.00000  0.82380  0.48940  1.0000
