data_image0
_chemical_formula_structural       V16P12O48H8O24N16C8H8C8H8C16H8C8H8C8H8C8H8C16H8C8H8
_chemical_formula_sum              "V16 P12 O72 H72 N16 C80"
_cell_length_a       12.6354
_cell_length_b       9.9786
_cell_length_c       23.3689
_cell_angle_alpha    90
_cell_angle_beta     92.713
_cell_angle_gamma    90

_space_group_name_H-M_alt    "P 1"
_space_group_IT_number       1

loop_
  _space_group_symop_operation_xyz
  'x, y, z'

loop_
  _atom_site_type_symbol
  _atom_site_label
  _atom_site_symmetry_multiplicity
  _atom_site_fract_x
  _atom_site_fract_y
  _atom_site_fract_z
  _atom_site_occupancy
  V   V1        1.0  0.75776  0.19981  0.66936  1.0000
  V   V2        1.0  0.25776  0.69981  0.66936  1.0000
  V   V3        1.0  0.75776  0.80019  0.16936  1.0000
  V   V4        1.0  0.25776  0.30019  0.16936  1.0000
  V   V5        1.0  0.24224  0.80019  0.33064  1.0000
  V   V6        1.0  0.74224  0.30019  0.33064  1.0000
  V   V7        1.0  0.24224  0.19981  0.83064  1.0000
  V   V8        1.0  0.74224  0.69981  0.83064  1.0000
  V   V9        1.0  0.46843  0.52534  0.64952  1.0000
  V   V10       1.0  0.96843  0.02534  0.64952  1.0000
  V   V11       1.0  0.46843  0.47466  0.14952  1.0000
  V   V12       1.0  0.96843  0.97466  0.14952  1.0000
  V   V13       1.0  0.53157  0.47466  0.35048  1.0000
  V   V14       1.0  0.03157  0.97466  0.35048  1.0000
  V   V15       1.0  0.53157  0.52534  0.85048  1.0000
  V   V16       1.0  0.03157  0.02534  0.85048  1.0000
  P   P1        1.0  0.67109  0.47019  0.74158  1.0000
  P   P2        1.0  0.17109  0.97019  0.74158  1.0000
  P   P3        1.0  0.67109  0.52981  0.24158  1.0000
  P   P4        1.0  0.17109  0.02981  0.24158  1.0000
  P   P5        1.0  0.32891  0.52981  0.25842  1.0000
  P   P6        1.0  0.82891  0.02981  0.25842  1.0000
  P   P7        1.0  0.32891  0.47019  0.75842  1.0000
  P   P8        1.0  0.82891  0.97019  0.75842  1.0000
  P   P9        1.0  0.50000  0.78738  0.75000  1.0000
  P   P10       1.0  0.00000  0.28738  0.75000  1.0000
  P   P11       1.0  0.50000  0.21262  0.25000  1.0000
  P   P12       1.0  0.00000  0.71262  0.25000  1.0000
  O   O1        1.0  0.74191  0.35060  0.72580  1.0000
  O   O2        1.0  0.24191  0.85060  0.72580  1.0000
  O   O3        1.0  0.74191  0.64940  0.22580  1.0000
  O   O4        1.0  0.24191  0.14940  0.22580  1.0000
  O   O5        1.0  0.25809  0.64940  0.27420  1.0000
  O   O6        1.0  0.75809  0.14940  0.27420  1.0000
  O   O7        1.0  0.25809  0.35060  0.77420  1.0000
  O   O8        1.0  0.75809  0.85060  0.77420  1.0000
  O   O9        1.0  0.60852  0.52120  0.68908  1.0000
  O   O10       1.0  0.10852  0.02120  0.68908  1.0000
  O   O11       1.0  0.60852  0.47880  0.18908  1.0000
  O   O12       1.0  0.10852  0.97880  0.18908  1.0000
  O   O13       1.0  0.39148  0.47880  0.31092  1.0000
  O   O14       1.0  0.89148  0.97880  0.31092  1.0000
  O   O15       1.0  0.39148  0.52120  0.81092  1.0000
  O   O16       1.0  0.89148  0.02120  0.81092  1.0000
  O   O17       1.0  0.74812  0.57990  0.76490  1.0000
  O   O18       1.0  0.24812  0.07990  0.76490  1.0000
  O   O19       1.0  0.74812  0.42010  0.26490  1.0000
  O   O20       1.0  0.24812  0.92010  0.26490  1.0000
  O   O21       1.0  0.25188  0.42010  0.23510  1.0000
  O   O22       1.0  0.75188  0.92010  0.23510  1.0000
  O   O23       1.0  0.25188  0.57990  0.73510  1.0000
  O   O24       1.0  0.75188  0.07990  0.73510  1.0000
  O   O25       1.0  0.59820  0.42340  0.78837  1.0000
  O   O26       1.0  0.09820  0.92340  0.78837  1.0000
  O   O27       1.0  0.59820  0.57660  0.28837  1.0000
  O   O28       1.0  0.09820  0.07660  0.28837  1.0000
  O   O29       1.0  0.40180  0.57660  0.21163  1.0000
  O   O30       1.0  0.90180  0.07660  0.21163  1.0000
  O   O31       1.0  0.40180  0.42340  0.71163  1.0000
  O   O32       1.0  0.90180  0.92340  0.71163  1.0000
  O   O33       1.0  0.43745  0.70970  0.70463  1.0000
  O   O34       1.0  0.93745  0.20970  0.70463  1.0000
  O   O35       1.0  0.43745  0.29030  0.20463  1.0000
  O   O36       1.0  0.93745  0.79030  0.20463  1.0000
  O   O37       1.0  0.56255  0.29030  0.29537  1.0000
  O   O38       1.0  0.06255  0.79030  0.29537  1.0000
  O   O39       1.0  0.56255  0.70970  0.79537  1.0000
  O   O40       1.0  0.06255  0.20970  0.79537  1.0000
  O   O41       1.0  0.57660  0.88390  0.71948  1.0000
  O   O42       1.0  0.07660  0.38390  0.71948  1.0000
  O   O43       1.0  0.57660  0.11610  0.21948  1.0000
  O   O44       1.0  0.07660  0.61610  0.21948  1.0000
  O   O45       1.0  0.42340  0.11610  0.28052  1.0000
  O   O46       1.0  0.92340  0.61610  0.28052  1.0000
  O   O47       1.0  0.42340  0.88390  0.78052  1.0000
  O   O48       1.0  0.92340  0.38390  0.78052  1.0000
  H   H1        1.0  0.64190  0.88580  0.73580  1.0000
  H   H2        1.0  0.14190  0.38580  0.73580  1.0000
  H   H3        1.0  0.64190  0.11420  0.23580  1.0000
  H   H4        1.0  0.14190  0.61420  0.23580  1.0000
  H   H5        1.0  0.35810  0.11420  0.26420  1.0000
  H   H6        1.0  0.85810  0.61420  0.26420  1.0000
  H   H7        1.0  0.35810  0.88580  0.76420  1.0000
  H   H8        1.0  0.85810  0.38580  0.76420  1.0000
  O   O49       1.0  0.63901  0.18600  0.64342  1.0000
  O   O50       1.0  0.13901  0.68600  0.64342  1.0000
  O   O51       1.0  0.63901  0.81400  0.14342  1.0000
  O   O52       1.0  0.13901  0.31400  0.14342  1.0000
  O   O53       1.0  0.36099  0.81400  0.35658  1.0000
  O   O54       1.0  0.86099  0.31400  0.35658  1.0000
  O   O55       1.0  0.36099  0.18600  0.85658  1.0000
  O   O56       1.0  0.86099  0.68600  0.85658  1.0000
  O   O57       1.0  0.82700  0.08950  0.62631  1.0000
  O   O58       1.0  0.32700  0.58950  0.62631  1.0000
  O   O59       1.0  0.82700  0.91050  0.12631  1.0000
  O   O60       1.0  0.32700  0.41050  0.12631  1.0000
  O   O61       1.0  0.17300  0.91050  0.37369  1.0000
  O   O62       1.0  0.67300  0.41050  0.37369  1.0000
  O   O63       1.0  0.17300  0.08950  0.87369  1.0000
  O   O64       1.0  0.67300  0.58950  0.87369  1.0000
  O   O65       1.0  0.47530  0.40700  0.60413  1.0000
  O   O66       1.0  0.97530  0.90700  0.60413  1.0000
  O   O67       1.0  0.47530  0.59300  0.10413  1.0000
  O   O68       1.0  0.97530  0.09300  0.10413  1.0000
  O   O69       1.0  0.52470  0.59300  0.39587  1.0000
  O   O70       1.0  0.02470  0.09300  0.39587  1.0000
  O   O71       1.0  0.52470  0.40700  0.89587  1.0000
  O   O72       1.0  0.02470  0.90700  0.89587  1.0000
  N   N1        1.0  0.79370  0.36130  0.61113  1.0000
  N   N2        1.0  0.29370  0.86130  0.61113  1.0000
  N   N3        1.0  0.79370  0.63870  0.11113  1.0000
  N   N4        1.0  0.29370  0.13870  0.11113  1.0000
  N   N5        1.0  0.20630  0.63870  0.38887  1.0000
  N   N6        1.0  0.70630  0.13870  0.38887  1.0000
  N   N7        1.0  0.20630  0.36130  0.88887  1.0000
  N   N8        1.0  0.70630  0.86130  0.88887  1.0000
  N   N9        1.0  0.96040  0.83250  0.40705  1.0000
  N   N10       1.0  0.46040  0.33250  0.40705  1.0000
  N   N11       1.0  0.96040  0.16750  0.90705  1.0000
  N   N12       1.0  0.46040  0.66750  0.90705  1.0000
  N   N13       1.0  0.03960  0.16750  0.59295  1.0000
  N   N14       1.0  0.53960  0.66750  0.59295  1.0000
  N   N15       1.0  0.03960  0.83250  0.09295  1.0000
  N   N16       1.0  0.53960  0.33250  0.09295  1.0000
  C   C1        1.0  0.74340  0.37160  0.56058  1.0000
  C   C2        1.0  0.24340  0.87160  0.56058  1.0000
  C   C3        1.0  0.74340  0.62840  0.06058  1.0000
  C   C4        1.0  0.24340  0.12840  0.06058  1.0000
  C   C5        1.0  0.25660  0.62840  0.43942  1.0000
  C   C6        1.0  0.75660  0.12840  0.43942  1.0000
  C   C7        1.0  0.25660  0.37160  0.93942  1.0000
  C   C8        1.0  0.75660  0.87160  0.93942  1.0000
  H   H9        1.0  0.68740  0.31330  0.55210  1.0000
  H   H10       1.0  0.18740  0.81330  0.55210  1.0000
  H   H11       1.0  0.68740  0.68670  0.05210  1.0000
  H   H12       1.0  0.18740  0.18670  0.05210  1.0000
  H   H13       1.0  0.31260  0.68670  0.44790  1.0000
  H   H14       1.0  0.81260  0.18670  0.44790  1.0000
  H   H15       1.0  0.31260  0.31330  0.94790  1.0000
  H   H16       1.0  0.81260  0.81330  0.94790  1.0000
  C   C9        1.0  0.76910  0.46390  0.51971  1.0000
  C   C10       1.0  0.26910  0.96390  0.51971  1.0000
  C   C11       1.0  0.76910  0.53610  0.01971  1.0000
  C   C12       1.0  0.26910  0.03610  0.01971  1.0000
  C   C13       1.0  0.23090  0.53610  0.48029  1.0000
  C   C14       1.0  0.73090  0.03610  0.48029  1.0000
  C   C15       1.0  0.23090  0.46390  0.98029  1.0000
  C   C16       1.0  0.73090  0.96390  0.98029  1.0000
  H   H17       1.0  0.73150  0.46510  0.48450  1.0000
  H   H18       1.0  0.23150  0.96510  0.48450  1.0000
  H   H19       1.0  0.73150  0.53490  0.98450  1.0000
  H   H20       1.0  0.23150  0.03490  0.98450  1.0000
  H   H21       1.0  0.26850  0.53490  0.51550  1.0000
  H   H22       1.0  0.76850  0.03490  0.51550  1.0000
  H   H23       1.0  0.26850  0.46510  0.01550  1.0000
  H   H24       1.0  0.76850  0.96510  0.01550  1.0000
  C   C17       1.0  0.84960  0.55420  0.53033  1.0000
  C   C18       1.0  0.34960  0.05420  0.53033  1.0000
  C   C19       1.0  0.84960  0.44580  0.03033  1.0000
  C   C20       1.0  0.34960  0.94580  0.03033  1.0000
  C   C21       1.0  0.15040  0.44580  0.46967  1.0000
  C   C22       1.0  0.65040  0.94580  0.46967  1.0000
  C   C23       1.0  0.15040  0.55420  0.96967  1.0000
  C   C24       1.0  0.65040  0.05420  0.96967  1.0000
  C   C25       1.0  0.89800  0.54630  0.58365  1.0000
  C   C26       1.0  0.39800  0.04630  0.58365  1.0000
  C   C27       1.0  0.89800  0.45370  0.08365  1.0000
  C   C28       1.0  0.39800  0.95370  0.08365  1.0000
  C   C29       1.0  0.10200  0.45370  0.41635  1.0000
  C   C30       1.0  0.60200  0.95370  0.41635  1.0000
  C   C31       1.0  0.10200  0.54630  0.91635  1.0000
  C   C32       1.0  0.60200  0.04630  0.91635  1.0000
  H   H25       1.0  0.95110  0.60700  0.59440  1.0000
  H   H26       1.0  0.45110  0.10700  0.59440  1.0000
  H   H27       1.0  0.95110  0.39300  0.09440  1.0000
  H   H28       1.0  0.45110  0.89300  0.09440  1.0000
  H   H29       1.0  0.04890  0.39300  0.40560  1.0000
  H   H30       1.0  0.54890  0.89300  0.40560  1.0000
  H   H31       1.0  0.04890  0.60700  0.90560  1.0000
  H   H32       1.0  0.54890  0.10700  0.90560  1.0000
  C   C33       1.0  0.86880  0.44920  0.62169  1.0000
  C   C34       1.0  0.36880  0.94920  0.62169  1.0000
  C   C35       1.0  0.86880  0.55080  0.12169  1.0000
  C   C36       1.0  0.36880  0.05080  0.12169  1.0000
  C   C37       1.0  0.13120  0.55080  0.37831  1.0000
  C   C38       1.0  0.63120  0.05080  0.37831  1.0000
  C   C39       1.0  0.13120  0.44920  0.87831  1.0000
  C   C40       1.0  0.63120  0.94920  0.87831  1.0000
  H   H33       1.0  0.90480  0.44600  0.65730  1.0000
  H   H34       1.0  0.40480  0.94600  0.65730  1.0000
  H   H35       1.0  0.90480  0.55400  0.15730  1.0000
  H   H36       1.0  0.40480  0.05400  0.15730  1.0000
  H   H37       1.0  0.09520  0.55400  0.34270  1.0000
  H   H38       1.0  0.59520  0.05400  0.34270  1.0000
  H   H39       1.0  0.09520  0.44600  0.84270  1.0000
  H   H40       1.0  0.59520  0.94600  0.84270  1.0000
  C   C41       1.0  0.87230  0.76070  0.39567  1.0000
  C   C42       1.0  0.37230  0.26070  0.39567  1.0000
  C   C43       1.0  0.87230  0.23930  0.89567  1.0000
  C   C44       1.0  0.37230  0.73930  0.89567  1.0000
  C   C45       1.0  0.12770  0.23930  0.60433  1.0000
  C   C46       1.0  0.62770  0.73930  0.60433  1.0000
  C   C47       1.0  0.12770  0.76070  0.10433  1.0000
  C   C48       1.0  0.62770  0.26070  0.10433  1.0000
  H   H41       1.0  0.83580  0.77330  0.36060  1.0000
  H   H42       1.0  0.33580  0.27330  0.36060  1.0000
  H   H43       1.0  0.83580  0.22670  0.86060  1.0000
  H   H44       1.0  0.33580  0.72670  0.86060  1.0000
  H   H45       1.0  0.16420  0.22670  0.63940  1.0000
  H   H46       1.0  0.66420  0.72670  0.63940  1.0000
  H   H47       1.0  0.16420  0.77330  0.13940  1.0000
  H   H48       1.0  0.66420  0.27330  0.13940  1.0000
  C   C49       1.0  0.83270  0.66840  0.43371  1.0000
  C   C50       1.0  0.33270  0.16840  0.43371  1.0000
  C   C51       1.0  0.83270  0.33160  0.93371  1.0000
  C   C52       1.0  0.33270  0.83160  0.93371  1.0000
  C   C53       1.0  0.16730  0.33160  0.56629  1.0000
  C   C54       1.0  0.66730  0.83160  0.56629  1.0000
  C   C55       1.0  0.16730  0.66840  0.06629  1.0000
  C   C56       1.0  0.66730  0.16840  0.06629  1.0000
  H   H49       1.0  0.77260  0.61840  0.42360  1.0000
  H   H50       1.0  0.27260  0.11840  0.42360  1.0000
  H   H51       1.0  0.77260  0.38160  0.92360  1.0000
  H   H52       1.0  0.27260  0.88160  0.92360  1.0000
  H   H53       1.0  0.22740  0.38160  0.57640  1.0000
  H   H54       1.0  0.72740  0.88160  0.57640  1.0000
  H   H55       1.0  0.22740  0.61840  0.07640  1.0000
  H   H56       1.0  0.72740  0.11840  0.07640  1.0000
  C   C57       1.0  0.88450  0.65170  0.48721  1.0000
  C   C58       1.0  0.38450  0.15170  0.48721  1.0000
  C   C59       1.0  0.88450  0.34830  0.98721  1.0000
  C   C60       1.0  0.38450  0.84830  0.98721  1.0000
  C   C61       1.0  0.11550  0.34830  0.51279  1.0000
  C   C62       1.0  0.61550  0.84830  0.51279  1.0000
  C   C63       1.0  0.11550  0.65170  0.01279  1.0000
  C   C64       1.0  0.61550  0.15170  0.01279  1.0000
  C   C65       1.0  0.97400  0.72910  0.49906  1.0000
  C   C66       1.0  0.47400  0.22910  0.49906  1.0000
  C   C67       1.0  0.97400  0.27090  0.99906  1.0000
  C   C68       1.0  0.47400  0.77090  0.99906  1.0000
  C   C69       1.0  0.02600  0.27090  0.50094  1.0000
  C   C70       1.0  0.52600  0.77090  0.50094  1.0000
  C   C71       1.0  0.02600  0.72910  0.00094  1.0000
  C   C72       1.0  0.52600  0.22910  0.00094  1.0000
  H   H57       1.0  0.01060  0.72170  0.53440  1.0000
  H   H58       1.0  0.51060  0.22170  0.53440  1.0000
  H   H59       1.0  0.01060  0.27830  0.03440  1.0000
  H   H60       1.0  0.51060  0.77830  0.03440  1.0000
  H   H61       1.0  0.98940  0.27830  0.46560  1.0000
  H   H62       1.0  0.48940  0.77830  0.46560  1.0000
  H   H63       1.0  0.98940  0.72170  0.96560  1.0000
  H   H64       1.0  0.48940  0.22170  0.96560  1.0000
  C   C73       1.0  0.00860  0.81680  0.45872  1.0000
  C   C74       1.0  0.50860  0.31680  0.45872  1.0000
  C   C75       1.0  0.00860  0.18320  0.95872  1.0000
  C   C76       1.0  0.50860  0.68320  0.95872  1.0000
  C   C77       1.0  0.99140  0.18320  0.54128  1.0000
  C   C78       1.0  0.49140  0.68320  0.54128  1.0000
  C   C79       1.0  0.99140  0.81680  0.04128  1.0000
  C   C80       1.0  0.49140  0.31680  0.04128  1.0000
  H   H65       1.0  0.06860  0.86780  0.46780  1.0000
  H   H66       1.0  0.56860  0.36780  0.46780  1.0000
  H   H67       1.0  0.06860  0.13220  0.96780  1.0000
  H   H68       1.0  0.56860  0.63220  0.96780  1.0000
  H   H69       1.0  0.93140  0.13220  0.53220  1.0000
  H   H70       1.0  0.43140  0.63220  0.53220  1.0000
  H   H71       1.0  0.93140  0.86780  0.03220  1.0000
  H   H72       1.0  0.43140  0.36780  0.03220  1.0000
