data_image0
_chemical_formula_structural       Co12C80F96O4H8O4H8O4H8O4H8O64
_chemical_formula_sum              "Co12 C80 F96 O80 H32"
_cell_length_a       17.841
_cell_length_b       12.328
_cell_length_c       22.472
_cell_angle_alpha    90
_cell_angle_beta     103.821
_cell_angle_gamma    90

_space_group_name_H-M_alt    "P 1"
_space_group_IT_number       1

loop_
  _space_group_symop_operation_xyz
  'x, y, z'

loop_
  _atom_site_type_symbol
  _atom_site_label
  _atom_site_symmetry_multiplicity
  _atom_site_fract_x
  _atom_site_fract_y
  _atom_site_fract_z
  _atom_site_occupancy
  Co  Co1       1.0  0.24690  0.07606  0.48959  1.0000
  Co  Co2       1.0  0.75310  0.57606  0.01041  1.0000
  Co  Co3       1.0  0.75310  0.92394  0.51041  1.0000
  Co  Co4       1.0  0.24690  0.42394  0.98959  1.0000
  Co  Co5       1.0  0.24697  0.78537  0.49274  1.0000
  Co  Co6       1.0  0.75303  0.28537  0.00726  1.0000
  Co  Co7       1.0  0.75303  0.21463  0.50726  1.0000
  Co  Co8       1.0  0.24697  0.71463  0.99274  1.0000
  Co  Co9       1.0  0.25128  0.49383  0.50950  1.0000
  Co  Co10      1.0  0.74872  0.99383  0.99050  1.0000
  Co  Co11      1.0  0.74872  0.50617  0.49050  1.0000
  Co  Co12      1.0  0.25128  0.00617  0.00950  1.0000
  C   C1        1.0  0.34050  0.92550  0.42530  1.0000
  C   C2        1.0  0.65950  0.42550  0.07470  1.0000
  C   C3        1.0  0.65950  0.07450  0.57470  1.0000
  C   C4        1.0  0.34050  0.57450  0.92530  1.0000
  C   C5        1.0  0.40610  0.92020  0.39120  1.0000
  C   C6        1.0  0.59390  0.42020  0.10880  1.0000
  C   C7        1.0  0.59390  0.07980  0.60880  1.0000
  C   C8        1.0  0.40610  0.57980  0.89120  1.0000
  C   C9        1.0  0.46380  0.82690  0.40980  1.0000
  C   C10       1.0  0.53620  0.32690  0.09020  1.0000
  C   C11       1.0  0.53620  0.17310  0.59020  1.0000
  C   C12       1.0  0.46380  0.67310  0.90980  1.0000
  C   C13       1.0  0.53560  0.82520  0.38250  1.0000
  C   C14       1.0  0.46440  0.32520  0.11750  1.0000
  C   C15       1.0  0.46440  0.17480  0.61750  1.0000
  C   C16       1.0  0.53560  0.67480  0.88250  1.0000
  C   C17       1.0  0.60490  0.89870  0.41340  1.0000
  C   C18       1.0  0.39510  0.39870  0.08660  1.0000
  C   C19       1.0  0.39510  0.10130  0.58660  1.0000
  C   C20       1.0  0.60490  0.60130  0.91340  1.0000
  C   C21       1.0  0.11440  0.92840  0.42710  1.0000
  C   C22       1.0  0.88560  0.42840  0.07290  1.0000
  C   C23       1.0  0.88560  0.07160  0.57290  1.0000
  C   C24       1.0  0.11440  0.57160  0.92710  1.0000
  C   C25       1.0  0.02820  0.92280  0.39080  1.0000
  C   C26       1.0  0.97180  0.42280  0.10920  1.0000
  C   C27       1.0  0.97180  0.07720  0.60920  1.0000
  C   C28       1.0  0.02820  0.57720  0.89080  1.0000
  C   C29       1.0  0.98150  0.82930  0.40950  1.0000
  C   C30       1.0  0.01850  0.32930  0.09050  1.0000
  C   C31       1.0  0.01850  0.17070  0.59050  1.0000
  C   C32       1.0  0.98150  0.67070  0.90950  1.0000
  C   C33       1.0  0.89270  0.82640  0.38070  1.0000
  C   C34       1.0  0.10730  0.32640  0.11930  1.0000
  C   C35       1.0  0.10730  0.17360  0.61930  1.0000
  C   C36       1.0  0.89270  0.67360  0.88070  1.0000
  C   C37       1.0  0.84170  0.89880  0.41150  1.0000
  C   C38       1.0  0.15830  0.39880  0.08850  1.0000
  C   C39       1.0  0.15830  0.10120  0.58850  1.0000
  C   C40       1.0  0.84170  0.60120  0.91150  1.0000
  C   C41       1.0  0.16360  0.64940  0.57200  1.0000
  C   C42       1.0  0.83640  0.14940  0.92800  1.0000
  C   C43       1.0  0.83640  0.35060  0.42800  1.0000
  C   C44       1.0  0.16360  0.85060  0.07200  1.0000
  C   C45       1.0  0.10680  0.65870  0.61320  1.0000
  C   C46       1.0  0.89320  0.15870  0.88680  1.0000
  C   C47       1.0  0.89320  0.34130  0.38680  1.0000
  C   C48       1.0  0.10680  0.84130  0.11320  1.0000
  C   C49       1.0  0.03230  0.59410  0.58950  1.0000
  C   C50       1.0  0.96770  0.09410  0.91050  1.0000
  C   C51       1.0  0.96770  0.40590  0.41050  1.0000
  C   C52       1.0  0.03230  0.90590  0.08950  1.0000
  C   C53       1.0  0.96360  0.61860  0.61720  1.0000
  C   C54       1.0  0.03640  0.11860  0.88280  1.0000
  C   C55       1.0  0.03640  0.38140  0.38280  1.0000
  C   C56       1.0  0.96360  0.88140  0.11720  1.0000
  C   C57       1.0  0.89400  0.54290  0.59010  1.0000
  C   C58       1.0  0.10600  0.04290  0.90990  1.0000
  C   C59       1.0  0.10600  0.45710  0.40990  1.0000
  C   C60       1.0  0.89400  0.95710  0.09010  1.0000
  C   C61       1.0  0.37780  0.65130  0.57050  1.0000
  C   C62       1.0  0.62220  0.15130  0.92950  1.0000
  C   C63       1.0  0.62220  0.34870  0.42950  1.0000
  C   C64       1.0  0.37780  0.84870  0.07050  1.0000
  C   C65       1.0  0.46120  0.66040  0.61170  1.0000
  C   C66       1.0  0.53880  0.16040  0.88830  1.0000
  C   C67       1.0  0.53880  0.33960  0.38830  1.0000
  C   C68       1.0  0.46120  0.83960  0.11170  1.0000
  C   C69       1.0  0.52010  0.59370  0.58670  1.0000
  C   C70       1.0  0.47990  0.09370  0.91330  1.0000
  C   C71       1.0  0.47990  0.40630  0.41330  1.0000
  C   C72       1.0  0.52010  0.90630  0.08670  1.0000
  C   C73       1.0  0.60500  0.62030  0.61200  1.0000
  C   C74       1.0  0.39500  0.12030  0.88800  1.0000
  C   C75       1.0  0.39500  0.37970  0.38800  1.0000
  C   C76       1.0  0.60500  0.87970  0.11200  1.0000
  C   C77       1.0  0.65940  0.54350  0.58700  1.0000
  C   C78       1.0  0.34060  0.04350  0.91300  1.0000
  C   C79       1.0  0.34060  0.45650  0.41300  1.0000
  C   C80       1.0  0.65940  0.95650  0.08700  1.0000
  F   F1        1.0  0.44625  0.01260  0.39704  1.0000
  F   F2        1.0  0.55375  0.51260  0.10296  1.0000
  F   F3        1.0  0.55375  0.98740  0.60296  1.0000
  F   F4        1.0  0.44625  0.48740  0.89704  1.0000
  F   F5        1.0  0.37101  0.90740  0.33040  1.0000
  F   F6        1.0  0.62899  0.40740  0.16960  1.0000
  F   F7        1.0  0.62899  0.09260  0.66960  1.0000
  F   F8        1.0  0.37101  0.59260  0.83040  1.0000
  F   F9        1.0  0.42600  0.73270  0.39324  1.0000
  F   F10       1.0  0.57400  0.23270  0.10676  1.0000
  F   F11       1.0  0.57400  0.26730  0.60676  1.0000
  F   F12       1.0  0.42600  0.76730  0.89324  1.0000
  F   F13       1.0  0.48891  0.82900  0.47134  1.0000
  F   F14       1.0  0.51109  0.32900  0.02866  1.0000
  F   F15       1.0  0.51109  0.17100  0.52866  1.0000
  F   F16       1.0  0.48891  0.67100  0.97134  1.0000
  F   F17       1.0  0.51252  0.85020  0.32211  1.0000
  F   F18       1.0  0.48748  0.35020  0.17789  1.0000
  F   F19       1.0  0.48748  0.14980  0.67789  1.0000
  F   F20       1.0  0.51252  0.64980  0.82211  1.0000
  F   F21       1.0  0.56113  0.72130  0.38500  1.0000
  F   F22       1.0  0.43887  0.22130  0.11500  1.0000
  F   F23       1.0  0.43887  0.27870  0.61500  1.0000
  F   F24       1.0  0.56113  0.77870  0.88500  1.0000
  F   F25       1.0  0.99132  0.01560  0.39382  1.0000
  F   F26       1.0  0.00868  0.51560  0.10618  1.0000
  F   F27       1.0  0.00868  0.98440  0.60618  1.0000
  F   F28       1.0  0.99132  0.48440  0.89382  1.0000
  F   F29       1.0  0.02868  0.90880  0.33034  1.0000
  F   F30       1.0  0.97132  0.40880  0.16966  1.0000
  F   F31       1.0  0.97132  0.09120  0.66966  1.0000
  F   F32       1.0  0.02868  0.59120  0.83034  1.0000
  F   F33       1.0  0.01054  0.73590  0.39474  1.0000
  F   F34       1.0  0.98946  0.23590  0.10526  1.0000
  F   F35       1.0  0.98946  0.26410  0.60526  1.0000
  F   F36       1.0  0.01054  0.76410  0.89474  1.0000
  F   F37       1.0  0.99162  0.83350  0.47059  1.0000
  F   F38       1.0  0.00838  0.33350  0.02941  1.0000
  F   F39       1.0  0.00838  0.16650  0.52941  1.0000
  F   F40       1.0  0.99162  0.66650  0.97059  1.0000
  F   F41       1.0  0.87016  0.72200  0.38158  1.0000
  F   F42       1.0  0.12984  0.22200  0.11842  1.0000
  F   F43       1.0  0.12984  0.27800  0.61842  1.0000
  F   F44       1.0  0.87016  0.77800  0.88158  1.0000
  F   F45       1.0  0.88162  0.85510  0.32082  1.0000
  F   F46       1.0  0.11838  0.35510  0.17918  1.0000
  F   F47       1.0  0.11838  0.14490  0.67918  1.0000
  F   F48       1.0  0.88162  0.64490  0.82082  1.0000
  F   F49       1.0  0.08813  0.76300  0.62054  1.0000
  F   F50       1.0  0.91187  0.26300  0.87946  1.0000
  F   F51       1.0  0.91187  0.23700  0.37946  1.0000
  F   F52       1.0  0.08813  0.73700  0.12054  1.0000
  F   F53       1.0  0.14126  0.62200  0.67056  1.0000
  F   F54       1.0  0.85874  0.12200  0.82944  1.0000
  F   F55       1.0  0.85874  0.37800  0.32944  1.0000
  F   F56       1.0  0.14126  0.87800  0.17056  1.0000
  F   F57       1.0  0.00943  0.61370  0.52839  1.0000
  F   F58       1.0  0.99057  0.11370  0.97161  1.0000
  F   F59       1.0  0.99057  0.38630  0.47161  1.0000
  F   F60       1.0  0.00943  0.88630  0.02839  1.0000
  F   F61       1.0  0.04818  0.48820  0.59741  1.0000
  F   F62       1.0  0.95182  0.98820  0.90259  1.0000
  F   F63       1.0  0.95182  0.51180  0.40259  1.0000
  F   F64       1.0  0.04818  0.01180  0.09741  1.0000
  F   F65       1.0  0.94185  0.72270  0.60816  1.0000
  F   F66       1.0  0.05815  0.22270  0.89184  1.0000
  F   F67       1.0  0.05815  0.27730  0.39184  1.0000
  F   F68       1.0  0.94185  0.77730  0.10816  1.0000
  F   F69       1.0  0.98672  0.60280  0.67873  1.0000
  F   F70       1.0  0.01328  0.10280  0.82127  1.0000
  F   F71       1.0  0.01328  0.39720  0.32127  1.0000
  F   F72       1.0  0.98672  0.89720  0.17873  1.0000
  F   F73       1.0  0.48432  0.76440  0.61838  1.0000
  F   F74       1.0  0.51568  0.26440  0.88162  1.0000
  F   F75       1.0  0.51568  0.23560  0.38162  1.0000
  F   F76       1.0  0.48432  0.73560  0.11838  1.0000
  F   F77       1.0  0.46135  0.62370  0.66910  1.0000
  F   F78       1.0  0.53865  0.12370  0.83090  1.0000
  F   F79       1.0  0.53865  0.37630  0.33090  1.0000
  F   F80       1.0  0.46135  0.87630  0.16910  1.0000
  F   F81       1.0  0.50313  0.60920  0.52544  1.0000
  F   F82       1.0  0.49687  0.10920  0.97456  1.0000
  F   F83       1.0  0.49687  0.39080  0.47456  1.0000
  F   F84       1.0  0.50313  0.89080  0.02544  1.0000
  F   F85       1.0  0.50907  0.48870  0.59736  1.0000
  F   F86       1.0  0.49093  0.98870  0.90264  1.0000
  F   F87       1.0  0.49093  0.51130  0.40264  1.0000
  F   F88       1.0  0.50907  0.01130  0.09736  1.0000
  F   F89       1.0  0.61894  0.72450  0.59778  1.0000
  F   F90       1.0  0.38106  0.22450  0.90222  1.0000
  F   F91       1.0  0.38106  0.27550  0.40222  1.0000
  F   F92       1.0  0.61894  0.77550  0.09778  1.0000
  F   F93       1.0  0.62067  0.61370  0.67398  1.0000
  F   F94       1.0  0.37933  0.11370  0.82602  1.0000
  F   F95       1.0  0.37933  0.38630  0.32602  1.0000
  F   F96       1.0  0.62067  0.88630  0.17398  1.0000
  O   O1        1.0  0.23070  0.21810  0.43774  1.0000
  O   O2        1.0  0.76930  0.71810  0.06226  1.0000
  O   O3        1.0  0.76930  0.78190  0.56226  1.0000
  O   O4        1.0  0.23070  0.28190  0.93774  1.0000
  H   H1        1.0  0.26630  0.26900  0.43600  1.0000
  H   H2        1.0  0.73370  0.76900  0.06400  1.0000
  H   H3        1.0  0.73370  0.73100  0.56400  1.0000
  H   H4        1.0  0.26630  0.23100  0.93600  1.0000
  H   H5        1.0  0.18480  0.25400  0.42600  1.0000
  H   H6        1.0  0.81520  0.75400  0.07400  1.0000
  H   H7        1.0  0.81520  0.74600  0.57400  1.0000
  H   H8        1.0  0.18480  0.24600  0.92600  1.0000
  O   O5        1.0  0.26346  0.93230  0.54377  1.0000
  O   O6        1.0  0.73654  0.43230  0.95623  1.0000
  O   O7        1.0  0.73654  0.06770  0.45623  1.0000
  O   O8        1.0  0.26346  0.56770  0.04377  1.0000
  H   H9        1.0  0.31240  0.93330  0.56690  1.0000
  H   H10       1.0  0.68760  0.43330  0.93310  1.0000
  H   H11       1.0  0.68760  0.06670  0.43310  1.0000
  H   H12       1.0  0.31240  0.56670  0.06690  1.0000
  H   H13       1.0  0.23180  0.93530  0.56890  1.0000
  H   H14       1.0  0.76820  0.43530  0.93110  1.0000
  H   H15       1.0  0.76820  0.06470  0.43110  1.0000
  H   H16       1.0  0.23180  0.56470  0.06890  1.0000
  O   O9        1.0  0.23360  0.63310  0.44829  1.0000
  O   O10       1.0  0.76640  0.13310  0.05171  1.0000
  O   O11       1.0  0.76640  0.36690  0.55171  1.0000
  O   O12       1.0  0.23360  0.86690  0.94829  1.0000
  H   H17       1.0  0.18600  0.62380  0.42440  1.0000
  H   H18       1.0  0.81400  0.12380  0.07560  1.0000
  H   H19       1.0  0.81400  0.37620  0.57560  1.0000
  H   H20       1.0  0.18600  0.87620  0.92440  1.0000
  H   H21       1.0  0.26730  0.62420  0.42550  1.0000
  H   H22       1.0  0.73270  0.12420  0.07450  1.0000
  H   H23       1.0  0.73270  0.37580  0.57450  1.0000
  H   H24       1.0  0.26730  0.87580  0.92550  1.0000
  O   O13       1.0  0.26650  0.34920  0.56127  1.0000
  O   O14       1.0  0.73350  0.84920  0.93873  1.0000
  O   O15       1.0  0.73350  0.65080  0.43873  1.0000
  O   O16       1.0  0.26650  0.15080  0.06127  1.0000
  H   H25       1.0  0.22900  0.30300  0.56400  1.0000
  H   H26       1.0  0.77100  0.80300  0.93600  1.0000
  H   H27       1.0  0.77100  0.69700  0.43600  1.0000
  H   H28       1.0  0.22900  0.19700  0.06400  1.0000
  H   H29       1.0  0.30940  0.30800  0.56800  1.0000
  H   H30       1.0  0.69060  0.80800  0.93200  1.0000
  H   H31       1.0  0.69060  0.69200  0.43200  1.0000
  H   H32       1.0  0.30940  0.19200  0.06800  1.0000
  O   O17       1.0  0.32070  0.01810  0.43753  1.0000
  O   O18       1.0  0.67930  0.51810  0.06247  1.0000
  O   O19       1.0  0.67930  0.98190  0.56247  1.0000
  O   O20       1.0  0.32070  0.48190  0.93753  1.0000
  O   O21       1.0  0.31280  0.83660  0.43410  1.0000
  O   O22       1.0  0.68720  0.33660  0.06590  1.0000
  O   O23       1.0  0.68720  0.16340  0.56590  1.0000
  O   O24       1.0  0.31280  0.66340  0.93410  1.0000
  O   O25       1.0  0.60460  0.99290  0.39450  1.0000
  O   O26       1.0  0.39540  0.49290  0.10550  1.0000
  O   O27       1.0  0.39540  0.00710  0.60550  1.0000
  O   O28       1.0  0.60460  0.50710  0.89450  1.0000
  O   O29       1.0  0.65460  0.85220  0.45450  1.0000
  O   O30       1.0  0.34540  0.35220  0.04550  1.0000
  O   O31       1.0  0.34540  0.14780  0.54550  1.0000
  O   O32       1.0  0.65460  0.64780  0.95450  1.0000
  O   O33       1.0  0.14040  0.02040  0.44071  1.0000
  O   O34       1.0  0.85960  0.52040  0.05929  1.0000
  O   O35       1.0  0.85960  0.97960  0.55929  1.0000
  O   O36       1.0  0.14040  0.47960  0.94071  1.0000
  O   O37       1.0  0.14660  0.83940  0.43538  1.0000
  O   O38       1.0  0.85340  0.33940  0.06462  1.0000
  O   O39       1.0  0.85340  0.16060  0.56462  1.0000
  O   O40       1.0  0.14660  0.66060  0.93538  1.0000
  O   O41       1.0  0.81670  0.85130  0.45242  1.0000
  O   O42       1.0  0.18330  0.35130  0.04758  1.0000
  O   O43       1.0  0.18330  0.14870  0.54758  1.0000
  O   O44       1.0  0.81670  0.64870  0.95242  1.0000
  O   O45       1.0  0.83080  0.99260  0.39272  1.0000
  O   O46       1.0  0.16920  0.49260  0.10728  1.0000
  O   O47       1.0  0.16920  0.00740  0.60728  1.0000
  O   O48       1.0  0.83080  0.50740  0.89272  1.0000
  O   O49       1.0  0.18110  0.73580  0.55122  1.0000
  O   O50       1.0  0.81890  0.23580  0.94878  1.0000
  O   O51       1.0  0.81890  0.26420  0.44878  1.0000
  O   O52       1.0  0.18110  0.76420  0.05122  1.0000
  O   O53       1.0  0.18550  0.55530  0.56528  1.0000
  O   O54       1.0  0.81450  0.05530  0.93472  1.0000
  O   O55       1.0  0.81450  0.44470  0.43472  1.0000
  O   O56       1.0  0.18550  0.94470  0.06528  1.0000
  O   O57       1.0  0.84560  0.58290  0.54495  1.0000
  O   O58       1.0  0.15440  0.08290  0.95505  1.0000
  O   O59       1.0  0.15440  0.41710  0.45505  1.0000
  O   O60       1.0  0.84560  0.91710  0.04495  1.0000
  O   O61       1.0  0.89320  0.45360  0.61443  1.0000
  O   O62       1.0  0.10680  0.95360  0.88557  1.0000
  O   O63       1.0  0.10680  0.54640  0.38557  1.0000
  O   O64       1.0  0.89320  0.04640  0.11443  1.0000
  O   O65       1.0  0.34880  0.73760  0.54966  1.0000
  O   O66       1.0  0.65120  0.23760  0.95034  1.0000
  O   O67       1.0  0.65120  0.26240  0.45034  1.0000
  O   O68       1.0  0.34880  0.76240  0.04966  1.0000
  O   O69       1.0  0.35150  0.55770  0.56486  1.0000
  O   O70       1.0  0.64850  0.05770  0.93514  1.0000
  O   O71       1.0  0.64850  0.44230  0.43514  1.0000
  O   O72       1.0  0.35150  0.94230  0.06486  1.0000
  O   O73       1.0  0.68310  0.58270  0.54294  1.0000
  O   O74       1.0  0.31690  0.08270  0.95706  1.0000
  O   O75       1.0  0.31690  0.41730  0.45706  1.0000
  O   O76       1.0  0.68310  0.91730  0.04294  1.0000
  O   O77       1.0  0.67230  0.45510  0.61156  1.0000
  O   O78       1.0  0.32770  0.95510  0.88844  1.0000
  O   O79       1.0  0.32770  0.54490  0.38844  1.0000
  O   O80       1.0  0.67230  0.04490  0.11156  1.0000
