data_image0
_chemical_formula_structural       Zn4O20H4O20H4C12H4C8H4C8H4C16H4C8H4C8H4C4
_chemical_formula_sum              "Zn4 O40 H32 C64"
_cell_length_a       16.1381
_cell_length_b       12.0964
_cell_length_c       13.2516
_cell_angle_alpha    90
_cell_angle_beta     90.286
_cell_angle_gamma    90

_space_group_name_H-M_alt    "P 1"
_space_group_IT_number       1

loop_
  _space_group_symop_operation_xyz
  'x, y, z'

loop_
  _atom_site_type_symbol
  _atom_site_label
  _atom_site_symmetry_multiplicity
  _atom_site_fract_x
  _atom_site_fract_y
  _atom_site_fract_z
  _atom_site_occupancy
  Zn  Zn1       1.0  0.73802  0.09049  0.25477  1.0000
  Zn  Zn2       1.0  0.26198  0.59049  0.24522  1.0000
  Zn  Zn3       1.0  0.26198  0.90951  0.74523  1.0000
  Zn  Zn4       1.0  0.73802  0.40951  0.75477  1.0000
  O   O1        1.0  0.67421  0.01171  0.36424  1.0000
  O   O2        1.0  0.32579  0.51171  0.13576  1.0000
  O   O3        1.0  0.32579  0.98829  0.63576  1.0000
  O   O4        1.0  0.67421  0.48829  0.86424  1.0000
  O   O5        1.0  0.60379  0.97428  0.22406  1.0000
  O   O6        1.0  0.39621  0.47428  0.27594  1.0000
  O   O7        1.0  0.39621  0.02572  0.77594  1.0000
  O   O8        1.0  0.60379  0.52572  0.72406  1.0000
  O   O9        1.0  0.36983  0.72688  0.22848  1.0000
  O   O10       1.0  0.63017  0.22688  0.27152  1.0000
  O   O11       1.0  0.63017  0.27312  0.77152  1.0000
  O   O12       1.0  0.36983  0.77312  0.72848  1.0000
  O   O13       1.0  0.31165  0.67000  0.36842  1.0000
  O   O14       1.0  0.68835  0.17000  0.13158  1.0000
  O   O15       1.0  0.68835  0.33000  0.63158  1.0000
  O   O16       1.0  0.31165  0.83000  0.86842  1.0000
  O   O17       1.0  0.51254  0.82558  0.63857  1.0000
  O   O18       1.0  0.48746  0.32558  0.86143  1.0000
  O   O19       1.0  0.48746  0.17442  0.36143  1.0000
  O   O20       1.0  0.51254  0.67442  0.13857  1.0000
  H   H1        1.0  0.47030  0.80300  0.66400  1.0000
  H   H2        1.0  0.52970  0.30300  0.83600  1.0000
  H   H3        1.0  0.52970  0.19700  0.33600  1.0000
  H   H4        1.0  0.47030  0.69700  0.16400  1.0000
  O   O21       1.0  0.79599  0.96211  0.19037  1.0000
  O   O22       1.0  0.20401  0.46211  0.30963  1.0000
  O   O23       1.0  0.20401  0.03789  0.80963  1.0000
  O   O24       1.0  0.79599  0.53789  0.69037  1.0000
  O   O25       1.0  0.87303  0.93978  0.32888  1.0000
  O   O26       1.0  0.12697  0.43978  0.17112  1.0000
  O   O27       1.0  0.12697  0.06022  0.67112  1.0000
  O   O28       1.0  0.87303  0.56022  0.82888  1.0000
  O   O29       1.0  0.11608  0.68640  0.30519  1.0000
  O   O30       1.0  0.88392  0.18640  0.19481  1.0000
  O   O31       1.0  0.88392  0.31360  0.69481  1.0000
  O   O32       1.0  0.11608  0.81360  0.80519  1.0000
  O   O33       1.0  0.18568  0.68410  0.16197  1.0000
  O   O34       1.0  0.81432  0.18410  0.33803  1.0000
  O   O35       1.0  0.81432  0.31590  0.83803  1.0000
  O   O36       1.0  0.18568  0.81590  0.66197  1.0000
  O   O37       1.0  0.98357  0.85827  0.90952  1.0000
  O   O38       1.0  0.01643  0.35827  0.59048  1.0000
  O   O39       1.0  0.01643  0.14173  0.09048  1.0000
  O   O40       1.0  0.98357  0.64173  0.40952  1.0000
  H   H5        1.0  0.02540  0.83900  0.88340  1.0000
  H   H6        1.0  0.97460  0.33900  0.61660  1.0000
  H   H7        1.0  0.97460  0.16100  0.11660  1.0000
  H   H8        1.0  0.02540  0.66100  0.38340  1.0000
  C   C1        1.0  0.61355  0.96830  0.31740  1.0000
  C   C2        1.0  0.38645  0.46830  0.18260  1.0000
  C   C3        1.0  0.38645  0.03170  0.68260  1.0000
  C   C4        1.0  0.61355  0.53170  0.81740  1.0000
  C   C5        1.0  0.55180  0.90449  0.37868  1.0000
  C   C6        1.0  0.44820  0.40449  0.12132  1.0000
  C   C7        1.0  0.44820  0.09551  0.62132  1.0000
  C   C8        1.0  0.55180  0.59551  0.87868  1.0000
  C   C9        1.0  0.55975  0.89363  0.48273  1.0000
  C   C10       1.0  0.44025  0.39363  0.01727  1.0000
  C   C11       1.0  0.44025  0.10637  0.51727  1.0000
  C   C12       1.0  0.55975  0.60637  0.98273  1.0000
  H   H9        1.0  0.60170  0.93010  0.51780  1.0000
  H   H10       1.0  0.39830  0.43010  0.98220  1.0000
  H   H11       1.0  0.39830  0.06990  0.48220  1.0000
  H   H12       1.0  0.60170  0.56990  0.01780  1.0000
  C   C13       1.0  0.50246  0.83180  0.53637  1.0000
  C   C14       1.0  0.49754  0.33180  0.96363  1.0000
  C   C15       1.0  0.49754  0.16820  0.46363  1.0000
  C   C16       1.0  0.50246  0.66820  0.03637  1.0000
  C   C17       1.0  0.43796  0.77795  0.48656  1.0000
  C   C18       1.0  0.56204  0.27795  0.01344  1.0000
  C   C19       1.0  0.56204  0.22205  0.51344  1.0000
  C   C20       1.0  0.43796  0.72205  0.98656  1.0000
  H   H13       1.0  0.40100  0.73660  0.52290  1.0000
  H   H14       1.0  0.59900  0.23660  0.97710  1.0000
  H   H15       1.0  0.59900  0.26340  0.47710  1.0000
  H   H16       1.0  0.40100  0.76340  0.02290  1.0000
  C   C21       1.0  0.43095  0.78771  0.38190  1.0000
  C   C22       1.0  0.56905  0.28771  0.11810  1.0000
  C   C23       1.0  0.56905  0.21229  0.61810  1.0000
  C   C24       1.0  0.43095  0.71229  0.88190  1.0000
  C   C25       1.0  0.48696  0.85225  0.32880  1.0000
  C   C26       1.0  0.51304  0.35225  0.17120  1.0000
  C   C27       1.0  0.51304  0.14775  0.67120  1.0000
  C   C28       1.0  0.48696  0.64775  0.82880  1.0000
  H   H17       1.0  0.48050  0.86030  0.25940  1.0000
  H   H18       1.0  0.51950  0.36030  0.24060  1.0000
  H   H19       1.0  0.51950  0.13970  0.74060  1.0000
  H   H20       1.0  0.48050  0.63970  0.75940  1.0000
  C   C29       1.0  0.36691  0.72498  0.32291  1.0000
  C   C30       1.0  0.63309  0.22498  0.17709  1.0000
  C   C31       1.0  0.63309  0.27502  0.67709  1.0000
  C   C32       1.0  0.36691  0.77502  0.82291  1.0000
  C   C33       1.0  0.86149  0.93062  0.23696  1.0000
  C   C34       1.0  0.13851  0.43062  0.26304  1.0000
  C   C35       1.0  0.13851  0.06938  0.76304  1.0000
  C   C36       1.0  0.86149  0.56938  0.73696  1.0000
  C   C37       1.0  0.92809  0.87920  0.17350  1.0000
  C   C38       1.0  0.07191  0.37920  0.32650  1.0000
  C   C39       1.0  0.07191  0.12080  0.82650  1.0000
  C   C40       1.0  0.92809  0.62080  0.67350  1.0000
  C   C41       1.0  0.99245  0.82215  0.22006  1.0000
  C   C42       1.0  0.00755  0.32215  0.27994  1.0000
  C   C43       1.0  0.00755  0.17785  0.77994  1.0000
  C   C44       1.0  0.99245  0.67785  0.72006  1.0000
  H   H21       1.0  0.99430  0.81600  0.29300  1.0000
  H   H22       1.0  0.00570  0.31600  0.20700  1.0000
  H   H23       1.0  0.00570  0.18400  0.70700  1.0000
  H   H24       1.0  0.99430  0.68400  0.79300  1.0000
  C   C45       1.0  0.05428  0.77417  0.16221  1.0000
  C   C46       1.0  0.94572  0.27417  0.33779  1.0000
  C   C47       1.0  0.94572  0.22583  0.83779  1.0000
  C   C48       1.0  0.05428  0.72583  0.66221  1.0000
  C   C49       1.0  0.05254  0.78459  0.05719  1.0000
  C   C50       1.0  0.94746  0.28459  0.44281  1.0000
  C   C51       1.0  0.94746  0.21541  0.94281  1.0000
  C   C52       1.0  0.05254  0.71541  0.55719  1.0000
  H   H25       1.0  0.09510  0.75410  0.01570  1.0000
  H   H26       1.0  0.90490  0.25410  0.48430  1.0000
  H   H27       1.0  0.90490  0.24590  0.98430  1.0000
  H   H28       1.0  0.09510  0.74590  0.51570  1.0000
  C   C53       1.0  0.98881  0.84346  0.01098  1.0000
  C   C54       1.0  0.01119  0.34346  0.48902  1.0000
  C   C55       1.0  0.01119  0.15654  0.98902  1.0000
  C   C56       1.0  0.98881  0.65654  0.51098  1.0000
  C   C57       1.0  0.92655  0.89040  0.06933  1.0000
  C   C58       1.0  0.07345  0.39040  0.43067  1.0000
  C   C59       1.0  0.07345  0.10960  0.93067  1.0000
  C   C60       1.0  0.92655  0.60960  0.56933  1.0000
  H   H29       1.0  0.88390  0.93410  0.03830  1.0000
  H   H30       1.0  0.11610  0.43410  0.46170  1.0000
  H   H31       1.0  0.11610  0.06590  0.96170  1.0000
  H   H32       1.0  0.88390  0.56590  0.53830  1.0000
  C   C61       1.0  0.12231  0.71107  0.21434  1.0000
  C   C62       1.0  0.87769  0.21107  0.28566  1.0000
  C   C63       1.0  0.87769  0.28893  0.78566  1.0000
  C   C64       1.0  0.12231  0.78893  0.71434  1.0000
