data_image0
_chemical_formula_structural       C16O80S8Nd8H32
_chemical_formula_sum              "C16 O80 S8 Nd8 H32"
_cell_length_a       8.523
_cell_length_b       28.628
_cell_length_c       9.306
_cell_angle_alpha    90
_cell_angle_beta     96.497
_cell_angle_gamma    90

_space_group_name_H-M_alt    "P 1"
_space_group_IT_number       1

loop_
  _space_group_symop_operation_xyz
  'x, y, z'

loop_
  _atom_site_type_symbol
  _atom_site_label
  _atom_site_symmetry_multiplicity
  _atom_site_fract_x
  _atom_site_fract_y
  _atom_site_fract_z
  _atom_site_occupancy
  C   C1        1.0  0.23310  0.24424  0.60210  1.0000
  C   C2        1.0  0.76690  0.74424  0.89790  1.0000
  C   C3        1.0  0.76690  0.75576  0.39790  1.0000
  C   C4        1.0  0.23310  0.25576  0.10210  1.0000
  C   C5        1.0  0.38790  0.26479  0.67780  1.0000
  C   C6        1.0  0.61210  0.76479  0.82220  1.0000
  C   C7        1.0  0.61210  0.73521  0.32220  1.0000
  C   C8        1.0  0.38790  0.23521  0.17780  1.0000
  C   C9        1.0  0.03340  0.02549  0.50510  1.0000
  C   C10       1.0  0.96660  0.52549  0.99490  1.0000
  C   C11       1.0  0.96660  0.97451  0.49490  1.0000
  C   C12       1.0  0.03340  0.47451  0.00510  1.0000
  C   C13       1.0  0.03310  0.02505  0.00010  1.0000
  C   C14       1.0  0.96690  0.52505  0.49990  1.0000
  C   C15       1.0  0.96690  0.97495  0.99990  1.0000
  C   C16       1.0  0.03310  0.47495  0.50010  1.0000
  O   O1        1.0  0.17400  0.21034  0.66160  1.0000
  O   O2        1.0  0.82600  0.71034  0.83840  1.0000
  O   O3        1.0  0.82600  0.78966  0.33840  1.0000
  O   O4        1.0  0.17400  0.28966  0.16160  1.0000
  O   O5        1.0  0.43500  0.24997  0.80040  1.0000
  O   O6        1.0  0.56500  0.74997  0.69960  1.0000
  O   O7        1.0  0.56500  0.75003  0.19960  1.0000
  O   O8        1.0  0.43500  0.25003  0.30040  1.0000
  O   O9        1.0  0.17330  0.26405  0.48790  1.0000
  O   O10       1.0  0.82670  0.76405  0.01210  1.0000
  O   O11       1.0  0.82670  0.73595  0.51210  1.0000
  O   O12       1.0  0.17330  0.23595  0.98790  1.0000
  O   O13       1.0  0.45400  0.29508  0.60810  1.0000
  O   O14       1.0  0.54600  0.79508  0.89190  1.0000
  O   O15       1.0  0.54600  0.70492  0.39190  1.0000
  O   O16       1.0  0.45400  0.20492  0.10810  1.0000
  O   O17       1.0  0.12120  0.03761  0.41300  1.0000
  O   O18       1.0  0.87880  0.53761  0.08700  1.0000
  O   O19       1.0  0.87880  0.96239  0.58700  1.0000
  O   O20       1.0  0.12120  0.46239  0.91300  1.0000
  O   O21       1.0  0.14540  0.03445  0.09360  1.0000
  O   O22       1.0  0.85460  0.53445  0.40640  1.0000
  O   O23       1.0  0.85460  0.96555  0.90640  1.0000
  O   O24       1.0  0.14540  0.46555  0.59360  1.0000
  O   O25       1.0  0.98830  0.05059  0.60450  1.0000
  O   O26       1.0  0.01170  0.55059  0.89550  1.0000
  O   O27       1.0  0.01170  0.94941  0.39550  1.0000
  O   O28       1.0  0.98830  0.44941  0.10450  1.0000
  O   O29       1.0  0.96780  0.05261  0.90730  1.0000
  O   O30       1.0  0.03220  0.55261  0.59270  1.0000
  O   O31       1.0  0.03220  0.94739  0.09270  1.0000
  O   O32       1.0  0.96780  0.44739  0.40730  1.0000
  O   O33       1.0  0.44870  0.03309  0.64600  1.0000
  O   O34       1.0  0.55130  0.53309  0.85400  1.0000
  O   O35       1.0  0.55130  0.96691  0.35400  1.0000
  O   O36       1.0  0.44870  0.46691  0.14600  1.0000
  O   O37       1.0  0.55510  0.95960  0.71480  1.0000
  O   O38       1.0  0.44490  0.45960  0.78520  1.0000
  O   O39       1.0  0.44490  0.04040  0.28520  1.0000
  O   O40       1.0  0.55510  0.54040  0.21480  1.0000
  O   O41       1.0  0.31630  0.96229  0.54750  1.0000
  O   O42       1.0  0.68370  0.46229  0.95250  1.0000
  O   O43       1.0  0.68370  0.03771  0.45250  1.0000
  O   O44       1.0  0.31630  0.53771  0.04750  1.0000
  O   O45       1.0  0.30280  0.98262  0.79310  1.0000
  O   O46       1.0  0.69720  0.48262  0.70690  1.0000
  O   O47       1.0  0.69720  0.01738  0.20690  1.0000
  O   O48       1.0  0.30280  0.51738  0.29310  1.0000
  O   O49       1.0  0.59390  0.14764  0.89560  1.0000
  O   O50       1.0  0.40610  0.64764  0.60440  1.0000
  O   O51       1.0  0.40610  0.85236  0.10440  1.0000
  O   O52       1.0  0.59390  0.35236  0.39560  1.0000
  O   O53       1.0  0.49870  0.16504  0.65400  1.0000
  O   O54       1.0  0.50130  0.66504  0.84600  1.0000
  O   O55       1.0  0.50130  0.83496  0.34600  1.0000
  O   O56       1.0  0.49870  0.33496  0.15400  1.0000
  O   O57       1.0  0.76500  0.18906  0.74810  1.0000
  O   O58       1.0  0.23500  0.68906  0.75190  1.0000
  O   O59       1.0  0.23500  0.81094  0.25190  1.0000
  O   O60       1.0  0.76500  0.31094  0.24810  1.0000
  O   O61       1.0  0.71050  0.10822  0.70470  1.0000
  O   O62       1.0  0.28950  0.60822  0.79530  1.0000
  O   O63       1.0  0.28950  0.89178  0.29530  1.0000
  O   O64       1.0  0.71050  0.39178  0.20470  1.0000
  O   O65       1.0  0.61640  0.04275  0.93430  1.0000
  O   O66       1.0  0.38360  0.54275  0.56570  1.0000
  O   O67       1.0  0.38360  0.95725  0.06570  1.0000
  O   O68       1.0  0.61640  0.45725  0.43430  1.0000
  O   O69       1.0  0.31640  0.11598  0.07310  1.0000
  O   O70       1.0  0.68360  0.61598  0.42690  1.0000
  O   O71       1.0  0.68360  0.88402  0.92690  1.0000
  O   O72       1.0  0.31640  0.38402  0.57310  1.0000
  O   O73       1.0  0.26290  0.09940  0.74450  1.0000
  O   O74       1.0  0.73710  0.59940  0.75550  1.0000
  O   O75       1.0  0.73710  0.90060  0.25550  1.0000
  O   O76       1.0  0.26290  0.40060  0.24450  1.0000
  O   O77       1.0  0.03960  0.14877  0.88380  1.0000
  O   O78       1.0  0.96040  0.64877  0.61620  1.0000
  O   O79       1.0  0.96040  0.85123  0.11620  1.0000
  O   O80       1.0  0.03960  0.35123  0.38380  1.0000
  S   S1        1.0  0.40176  0.98418  0.67652  1.0000
  S   S2        1.0  0.59824  0.48418  0.82348  1.0000
  S   S3        1.0  0.59824  0.01582  0.32348  1.0000
  S   S4        1.0  0.40176  0.51582  0.17652  1.0000
  S   S5        1.0  0.64471  0.15272  0.74903  1.0000
  S   S6        1.0  0.35529  0.65272  0.75097  1.0000
  S   S7        1.0  0.35529  0.84728  0.25097  1.0000
  S   S8        1.0  0.64471  0.34728  0.24903  1.0000
  Nd  Nd1       1.0  0.74752  0.02480  0.71568  1.0000
  Nd  Nd2       1.0  0.25248  0.52480  0.78432  1.0000
  Nd  Nd3       1.0  0.25248  0.97520  0.28432  1.0000
  Nd  Nd4       1.0  0.74752  0.47520  0.21568  1.0000
  Nd  Nd5       1.0  0.31929  0.17387  0.87168  1.0000
  Nd  Nd6       1.0  0.68071  0.67387  0.62832  1.0000
  Nd  Nd7       1.0  0.68071  0.82613  0.12832  1.0000
  Nd  Nd8       1.0  0.31929  0.32613  0.37168  1.0000
  H   H1        1.0  0.27900  0.08840  0.07400  1.0000
  H   H2        1.0  0.72100  0.58840  0.42600  1.0000
  H   H3        1.0  0.72100  0.91160  0.92600  1.0000
  H   H4        1.0  0.27900  0.41160  0.57400  1.0000
  H   H5        1.0  0.35300  0.12090  0.16100  1.0000
  H   H6        1.0  0.64700  0.62090  0.33900  1.0000
  H   H7        1.0  0.64700  0.87910  0.83900  1.0000
  H   H8        1.0  0.35300  0.37910  0.66100  1.0000
  H   H9        1.0  0.63200  0.03020  0.01800  1.0000
  H   H10       1.0  0.36800  0.53020  0.48200  1.0000
  H   H11       1.0  0.36800  0.96980  0.98200  1.0000
  H   H12       1.0  0.63200  0.46980  0.51800  1.0000
  H   H13       1.0  0.58600  0.06960  0.94500  1.0000
  H   H14       1.0  0.41400  0.56960  0.55500  1.0000
  H   H15       1.0  0.41400  0.93040  0.05500  1.0000
  H   H16       1.0  0.58600  0.43040  0.44500  1.0000
  H   H17       1.0  0.17100  0.08590  0.72300  1.0000
  H   H18       1.0  0.82900  0.58590  0.77700  1.0000
  H   H19       1.0  0.82900  0.91410  0.27700  1.0000
  H   H20       1.0  0.17100  0.41410  0.22300  1.0000
  H   H21       1.0  0.32500  0.07730  0.72300  1.0000
  H   H22       1.0  0.67500  0.57730  0.77700  1.0000
  H   H23       1.0  0.67500  0.92270  0.27700  1.0000
  H   H24       1.0  0.32500  0.42270  0.22300  1.0000
  H   H25       1.0  0.01000  0.12060  0.88700  1.0000
  H   H26       1.0  0.99000  0.62060  0.61300  1.0000
  H   H27       1.0  0.99000  0.87940  0.11300  1.0000
  H   H28       1.0  0.01000  0.37940  0.38700  1.0000
  H   H29       1.0  0.96200  0.16310  0.83900  1.0000
  H   H30       1.0  0.03800  0.66310  0.66100  1.0000
  H   H31       1.0  0.03800  0.83690  0.16100  1.0000
  H   H32       1.0  0.96200  0.33690  0.33900  1.0000
