data_image0
_chemical_formula_structural       Mo8Cl8O32C8
_chemical_formula_sum              "Mo8 Cl8 O32 C8"
_cell_length_a       20.068
_cell_length_b       8.8105
_cell_length_c       12.466
_cell_angle_alpha    90
_cell_angle_beta     120.073
_cell_angle_gamma    90

_space_group_name_H-M_alt    "P 1"
_space_group_IT_number       1

loop_
  _space_group_symop_operation_xyz
  'x, y, z'

loop_
  _atom_site_type_symbol
  _atom_site_label
  _atom_site_symmetry_multiplicity
  _atom_site_fract_x
  _atom_site_fract_y
  _atom_site_fract_z
  _atom_site_occupancy
  Mo  Mo1       1.0  0.46808  0.76279  0.13167  1.0000
  Mo  Mo2       1.0  0.96808  0.26279  0.13167  1.0000
  Mo  Mo3       1.0  0.46808  0.23721  0.63167  1.0000
  Mo  Mo4       1.0  0.96808  0.73721  0.63167  1.0000
  Mo  Mo5       1.0  0.53192  0.23721  0.86833  1.0000
  Mo  Mo6       1.0  0.03192  0.73721  0.86833  1.0000
  Mo  Mo7       1.0  0.53192  0.76279  0.36833  1.0000
  Mo  Mo8       1.0  0.03192  0.26279  0.36833  1.0000
  Cl  Cl1       1.0  0.33894  0.81674  0.95449  1.0000
  Cl  Cl2       1.0  0.83894  0.31674  0.95449  1.0000
  Cl  Cl3       1.0  0.33894  0.18326  0.45449  1.0000
  Cl  Cl4       1.0  0.83894  0.68326  0.45449  1.0000
  Cl  Cl5       1.0  0.66106  0.18326  0.04551  1.0000
  Cl  Cl6       1.0  0.16106  0.68326  0.04551  1.0000
  Cl  Cl7       1.0  0.66106  0.81674  0.54551  1.0000
  Cl  Cl8       1.0  0.16106  0.31674  0.54551  1.0000
  O   O1        1.0  0.46336  0.57560  0.10314  1.0000
  O   O2        1.0  0.96336  0.07560  0.10314  1.0000
  O   O3        1.0  0.46336  0.42440  0.60314  1.0000
  O   O4        1.0  0.96336  0.92440  0.60314  1.0000
  O   O5        1.0  0.53664  0.42440  0.89686  1.0000
  O   O6        1.0  0.03664  0.92440  0.89686  1.0000
  O   O7        1.0  0.53664  0.57560  0.39686  1.0000
  O   O8        1.0  0.03664  0.07560  0.39686  1.0000
  O   O9        1.0  0.42670  0.80140  0.23833  1.0000
  O   O10       1.0  0.92670  0.30140  0.23833  1.0000
  O   O11       1.0  0.42670  0.19860  0.73833  1.0000
  O   O12       1.0  0.92670  0.69860  0.73833  1.0000
  O   O13       1.0  0.57330  0.19860  0.76167  1.0000
  O   O14       1.0  0.07330  0.69860  0.76167  1.0000
  O   O15       1.0  0.57330  0.80140  0.26167  1.0000
  O   O16       1.0  0.07330  0.30140  0.26167  1.0000
  O   O17       1.0  0.47259  0.02270  0.11077  1.0000
  O   O18       1.0  0.97259  0.52270  0.11077  1.0000
  O   O19       1.0  0.47259  0.97730  0.61077  1.0000
  O   O20       1.0  0.97259  0.47730  0.61077  1.0000
  O   O21       1.0  0.52741  0.97730  0.88923  1.0000
  O   O22       1.0  0.02741  0.47730  0.88923  1.0000
  O   O23       1.0  0.52741  0.02270  0.38923  1.0000
  O   O24       1.0  0.02741  0.52270  0.38923  1.0000
  O   O25       1.0  0.49107  0.19640  0.99750  1.0000
  O   O26       1.0  0.99107  0.69640  0.99750  1.0000
  O   O27       1.0  0.49107  0.80360  0.49750  1.0000
  O   O28       1.0  0.99107  0.30360  0.49750  1.0000
  O   O29       1.0  0.50893  0.80360  0.00250  1.0000
  O   O30       1.0  0.00893  0.30360  0.00250  1.0000
  O   O31       1.0  0.50893  0.19640  0.50250  1.0000
  O   O32       1.0  0.00893  0.69640  0.50250  1.0000
  C   C1        1.0  0.48961  0.06270  0.03160  1.0000
  C   C2        1.0  0.98961  0.56270  0.03160  1.0000
  C   C3        1.0  0.48961  0.93730  0.53160  1.0000
  C   C4        1.0  0.98961  0.43730  0.53160  1.0000
  C   C5        1.0  0.51039  0.93730  0.96840  1.0000
  C   C6        1.0  0.01039  0.43730  0.96840  1.0000
  C   C7        1.0  0.51039  0.06270  0.46840  1.0000
  C   C8        1.0  0.01039  0.56270  0.46840  1.0000
