data_image0
_chemical_formula_structural       C72O48Cl24Cr4Mn4
_chemical_formula_sum              "C72 O48 Cl24 Cr4 Mn4"
_cell_length_a       14.2177
_cell_length_b       22.9278
_cell_length_c       14.5428
_cell_angle_alpha    90
_cell_angle_beta     105.118
_cell_angle_gamma    90

_space_group_name_H-M_alt    "P 1"
_space_group_IT_number       1

loop_
  _space_group_symop_operation_xyz
  'x, y, z'

loop_
  _atom_site_type_symbol
  _atom_site_label
  _atom_site_symmetry_multiplicity
  _atom_site_fract_x
  _atom_site_fract_y
  _atom_site_fract_z
  _atom_site_occupancy
  C   C1        1.0  0.01450  0.24131  0.20330  1.0000
  C   C2        1.0  0.98550  0.24131  0.29670  1.0000
  C   C3        1.0  0.51450  0.74131  0.20330  1.0000
  C   C4        1.0  0.48550  0.74131  0.29670  1.0000
  C   C5        1.0  0.98550  0.75869  0.79670  1.0000
  C   C6        1.0  0.01450  0.75869  0.70330  1.0000
  C   C7        1.0  0.48550  0.25869  0.79670  1.0000
  C   C8        1.0  0.51450  0.25869  0.70330  1.0000
  C   C9        1.0  0.02410  0.29243  0.15810  1.0000
  C   C10       1.0  0.97590  0.29243  0.34190  1.0000
  C   C11       1.0  0.52410  0.79243  0.15810  1.0000
  C   C12       1.0  0.47590  0.79243  0.34190  1.0000
  C   C13       1.0  0.97590  0.70757  0.84190  1.0000
  C   C14       1.0  0.02410  0.70757  0.65810  1.0000
  C   C15       1.0  0.47590  0.20757  0.84190  1.0000
  C   C16       1.0  0.52410  0.20757  0.65810  1.0000
  C   C17       1.0  0.01060  0.34606  0.20070  1.0000
  C   C18       1.0  0.98940  0.34606  0.29930  1.0000
  C   C19       1.0  0.51060  0.84606  0.20070  1.0000
  C   C20       1.0  0.48940  0.84606  0.29930  1.0000
  C   C21       1.0  0.98940  0.65394  0.79930  1.0000
  C   C22       1.0  0.01060  0.65394  0.70070  1.0000
  C   C23       1.0  0.48940  0.15394  0.79930  1.0000
  C   C24       1.0  0.51060  0.15394  0.70070  1.0000
  C   C25       1.0  0.80840  0.08792  0.20400  1.0000
  C   C26       1.0  0.19160  0.08792  0.29600  1.0000
  C   C27       1.0  0.30840  0.58792  0.20400  1.0000
  C   C28       1.0  0.69160  0.58792  0.29600  1.0000
  C   C29       1.0  0.19160  0.91208  0.79600  1.0000
  C   C30       1.0  0.80840  0.91208  0.70400  1.0000
  C   C31       1.0  0.69160  0.41208  0.79600  1.0000
  C   C32       1.0  0.30840  0.41208  0.70400  1.0000
  C   C33       1.0  0.71100  0.07946  0.16100  1.0000
  C   C34       1.0  0.28900  0.07946  0.33900  1.0000
  C   C35       1.0  0.21100  0.57946  0.16100  1.0000
  C   C36       1.0  0.78900  0.57946  0.33900  1.0000
  C   C37       1.0  0.28900  0.92054  0.83900  1.0000
  C   C38       1.0  0.71100  0.92054  0.66100  1.0000
  C   C39       1.0  0.78900  0.42054  0.83900  1.0000
  C   C40       1.0  0.21100  0.42054  0.66100  1.0000
  C   C41       1.0  0.65590  0.04294  0.20470  1.0000
  C   C42       1.0  0.34410  0.04294  0.29530  1.0000
  C   C43       1.0  0.15590  0.54294  0.20470  1.0000
  C   C44       1.0  0.84410  0.54294  0.29530  1.0000
  C   C45       1.0  0.34410  0.95706  0.79530  1.0000
  C   C46       1.0  0.65590  0.95706  0.70470  1.0000
  C   C47       1.0  0.84410  0.45706  0.79530  1.0000
  C   C48       1.0  0.15590  0.45706  0.70470  1.0000
  C   C49       1.0  0.85750  0.05799  0.29710  1.0000
  C   C50       1.0  0.14250  0.05799  0.20290  1.0000
  C   C51       1.0  0.35750  0.55799  0.29710  1.0000
  C   C52       1.0  0.64250  0.55799  0.20290  1.0000
  C   C53       1.0  0.14250  0.94201  0.70290  1.0000
  C   C54       1.0  0.85750  0.94201  0.79710  1.0000
  C   C55       1.0  0.64250  0.44201  0.70290  1.0000
  C   C56       1.0  0.35750  0.44201  0.79710  1.0000
  C   C57       1.0  0.80390  0.02412  0.34370  1.0000
  C   C58       1.0  0.19610  0.02412  0.15630  1.0000
  C   C59       1.0  0.30390  0.52412  0.34370  1.0000
  C   C60       1.0  0.69610  0.52412  0.15630  1.0000
  C   C61       1.0  0.19610  0.97588  0.65630  1.0000
  C   C62       1.0  0.80390  0.97588  0.84370  1.0000
  C   C63       1.0  0.69610  0.47588  0.65630  1.0000
  C   C64       1.0  0.30390  0.47588  0.84370  1.0000
  C   C65       1.0  0.70520  0.01349  0.30050  1.0000
  C   C66       1.0  0.29480  0.01349  0.19950  1.0000
  C   C67       1.0  0.20520  0.51349  0.30050  1.0000
  C   C68       1.0  0.79480  0.51349  0.19950  1.0000
  C   C69       1.0  0.29480  0.98651  0.69950  1.0000
  C   C70       1.0  0.70520  0.98651  0.80050  1.0000
  C   C71       1.0  0.79480  0.48651  0.69950  1.0000
  C   C72       1.0  0.20520  0.48651  0.80050  1.0000
  O   O1        1.0  0.02875  0.19015  0.17294  1.0000
  O   O2        1.0  0.97125  0.19015  0.32706  1.0000
  O   O3        1.0  0.52875  0.69015  0.17294  1.0000
  O   O4        1.0  0.47125  0.69015  0.32706  1.0000
  O   O5        1.0  0.97125  0.80985  0.82706  1.0000
  O   O6        1.0  0.02875  0.80985  0.67294  1.0000
  O   O7        1.0  0.47125  0.30985  0.82706  1.0000
  O   O8        1.0  0.52875  0.30985  0.67294  1.0000
  O   O9        1.0  0.01499  0.39482  0.16447  1.0000
  O   O10       1.0  0.98501  0.39482  0.33553  1.0000
  O   O11       1.0  0.51499  0.89482  0.16447  1.0000
  O   O12       1.0  0.48501  0.89482  0.33553  1.0000
  O   O13       1.0  0.98501  0.60518  0.83553  1.0000
  O   O14       1.0  0.01499  0.60518  0.66447  1.0000
  O   O15       1.0  0.48501  0.10518  0.83553  1.0000
  O   O16       1.0  0.51499  0.10518  0.66447  1.0000
  O   O17       1.0  0.86475  0.12033  0.17067  1.0000
  O   O18       1.0  0.13525  0.12033  0.32933  1.0000
  O   O19       1.0  0.36475  0.62033  0.17067  1.0000
  O   O20       1.0  0.63525  0.62033  0.32933  1.0000
  O   O21       1.0  0.13525  0.87967  0.82933  1.0000
  O   O22       1.0  0.86475  0.87967  0.67067  1.0000
  O   O23       1.0  0.63525  0.37967  0.82933  1.0000
  O   O24       1.0  0.36475  0.37967  0.67067  1.0000
  O   O25       1.0  0.56691  0.03178  0.17150  1.0000
  O   O26       1.0  0.43309  0.03178  0.32850  1.0000
  O   O27       1.0  0.06691  0.53178  0.17150  1.0000
  O   O28       1.0  0.93309  0.53178  0.32850  1.0000
  O   O29       1.0  0.43309  0.96822  0.82850  1.0000
  O   O30       1.0  0.56691  0.96822  0.67150  1.0000
  O   O31       1.0  0.93309  0.46822  0.82850  1.0000
  O   O32       1.0  0.06691  0.46822  0.67150  1.0000
  O   O33       1.0  0.94959  0.06804  0.32685  1.0000
  O   O34       1.0  0.05041  0.06804  0.17315  1.0000
  O   O35       1.0  0.44959  0.56804  0.32685  1.0000
  O   O36       1.0  0.55041  0.56804  0.17315  1.0000
  O   O37       1.0  0.05041  0.93196  0.67315  1.0000
  O   O38       1.0  0.94959  0.93196  0.82685  1.0000
  O   O39       1.0  0.55041  0.43196  0.67315  1.0000
  O   O40       1.0  0.44959  0.43196  0.82685  1.0000
  O   O41       1.0  0.65065  0.98179  0.33412  1.0000
  O   O42       1.0  0.34935  0.98179  0.16588  1.0000
  O   O43       1.0  0.15065  0.48179  0.33412  1.0000
  O   O44       1.0  0.84935  0.48179  0.16588  1.0000
  O   O45       1.0  0.34935  0.01821  0.66588  1.0000
  O   O46       1.0  0.65065  0.01821  0.83412  1.0000
  O   O47       1.0  0.84935  0.51821  0.66588  1.0000
  O   O48       1.0  0.15065  0.51821  0.83412  1.0000
  Cl  Cl1       1.0  0.05134  0.29161  0.04941  1.0000
  Cl  Cl2       1.0  0.94866  0.29161  0.45059  1.0000
  Cl  Cl3       1.0  0.55134  0.79161  0.04941  1.0000
  Cl  Cl4       1.0  0.44866  0.79161  0.45059  1.0000
  Cl  Cl5       1.0  0.94866  0.70839  0.95059  1.0000
  Cl  Cl6       1.0  0.05134  0.70839  0.54941  1.0000
  Cl  Cl7       1.0  0.44866  0.20839  0.95059  1.0000
  Cl  Cl8       1.0  0.55134  0.20839  0.54941  1.0000
  Cl  Cl9       1.0  0.65575  0.11325  0.05523  1.0000
  Cl  Cl10      1.0  0.34425  0.11325  0.44477  1.0000
  Cl  Cl11      1.0  0.15575  0.61325  0.05523  1.0000
  Cl  Cl12      1.0  0.84425  0.61325  0.44477  1.0000
  Cl  Cl13      1.0  0.34425  0.88675  0.94477  1.0000
  Cl  Cl14      1.0  0.65575  0.88675  0.55523  1.0000
  Cl  Cl15      1.0  0.84425  0.38675  0.94477  1.0000
  Cl  Cl16      1.0  0.15575  0.38675  0.55523  1.0000
  Cl  Cl17      1.0  0.85799  0.99312  0.45288  1.0000
  Cl  Cl18      1.0  0.14201  0.99312  0.04712  1.0000
  Cl  Cl19      1.0  0.35799  0.49312  0.45288  1.0000
  Cl  Cl20      1.0  0.64201  0.49312  0.04712  1.0000
  Cl  Cl21      1.0  0.14201  0.00688  0.54712  1.0000
  Cl  Cl22      1.0  0.85799  0.00688  0.95288  1.0000
  Cl  Cl23      1.0  0.64201  0.50688  0.54712  1.0000
  Cl  Cl24      1.0  0.35799  0.50688  0.95288  1.0000
  Cr  Cr1       1.0  0.00000  0.12515  0.25000  1.0000
  Cr  Cr2       1.0  0.50000  0.62515  0.25000  1.0000
  Cr  Cr3       1.0  0.00000  0.87485  0.75000  1.0000
  Cr  Cr4       1.0  0.50000  0.37485  0.75000  1.0000
  Mn  Mn1       1.0  0.00000  0.47096  0.25000  1.0000
  Mn  Mn2       1.0  0.50000  0.97096  0.25000  1.0000
  Mn  Mn3       1.0  0.00000  0.52904  0.75000  1.0000
  Mn  Mn4       1.0  0.50000  0.02904  0.75000  1.0000
