data_image0
_chemical_formula_structural       Br8C32O8C8O8C8O8Mn4O8Cr4Br8O16C16Br8C8
_chemical_formula_sum              "Br24 C72 O48 Mn4 Cr4"
_cell_length_a       14.1613
_cell_length_b       23.0839
_cell_length_c       14.8676
_cell_angle_alpha    90
_cell_angle_beta     104.296
_cell_angle_gamma    90

_space_group_name_H-M_alt    "P 1"
_space_group_IT_number       1

loop_
  _space_group_symop_operation_xyz
  'x, y, z'

loop_
  _atom_site_type_symbol
  _atom_site_label
  _atom_site_symmetry_multiplicity
  _atom_site_fract_x
  _atom_site_fract_y
  _atom_site_fract_z
  _atom_site_occupancy
  Br  Br1       1.0  0.15247  0.38452  0.55185  1.0000
  Br  Br2       1.0  0.84753  0.38452  0.94815  1.0000
  Br  Br3       1.0  0.65247  0.88452  0.55185  1.0000
  Br  Br4       1.0  0.34753  0.88452  0.94815  1.0000
  Br  Br5       1.0  0.84753  0.61548  0.44815  1.0000
  Br  Br6       1.0  0.15247  0.61548  0.05185  1.0000
  Br  Br7       1.0  0.34753  0.11548  0.44815  1.0000
  Br  Br8       1.0  0.65247  0.11548  0.05185  1.0000
  C   C1        1.0  0.21090  0.42160  0.66410  1.0000
  C   C2        1.0  0.78910  0.42160  0.83590  1.0000
  C   C3        1.0  0.71090  0.92160  0.66410  1.0000
  C   C4        1.0  0.28910  0.92160  0.83590  1.0000
  C   C5        1.0  0.78910  0.57840  0.33590  1.0000
  C   C6        1.0  0.21090  0.57840  0.16410  1.0000
  C   C7        1.0  0.28910  0.07840  0.33590  1.0000
  C   C8        1.0  0.71090  0.07840  0.16410  1.0000
  C   C9        1.0  0.15560  0.45840  0.70580  1.0000
  C   C10       1.0  0.84440  0.45840  0.79420  1.0000
  C   C11       1.0  0.65560  0.95840  0.70580  1.0000
  C   C12       1.0  0.34440  0.95840  0.79420  1.0000
  C   C13       1.0  0.84440  0.54160  0.29420  1.0000
  C   C14       1.0  0.15560  0.54160  0.20580  1.0000
  C   C15       1.0  0.34440  0.04160  0.29420  1.0000
  C   C16       1.0  0.65560  0.04160  0.20580  1.0000
  C   C17       1.0  0.30880  0.41280  0.70520  1.0000
  C   C18       1.0  0.69120  0.41280  0.79480  1.0000
  C   C19       1.0  0.80880  0.91280  0.70520  1.0000
  C   C20       1.0  0.19120  0.91280  0.79480  1.0000
  C   C21       1.0  0.69120  0.58720  0.29480  1.0000
  C   C22       1.0  0.30880  0.58720  0.20520  1.0000
  C   C23       1.0  0.19120  0.08720  0.29480  1.0000
  C   C24       1.0  0.80880  0.08720  0.20520  1.0000
  C   C25       1.0  0.20390  0.48730  0.80060  1.0000
  C   C26       1.0  0.79610  0.48730  0.69940  1.0000
  C   C27       1.0  0.70390  0.98730  0.80060  1.0000
  C   C28       1.0  0.29610  0.98730  0.69940  1.0000
  C   C29       1.0  0.79610  0.51270  0.19940  1.0000
  C   C30       1.0  0.20390  0.51270  0.30060  1.0000
  C   C31       1.0  0.29610  0.01270  0.19940  1.0000
  C   C32       1.0  0.70390  0.01270  0.30060  1.0000
  O   O1        1.0  0.06680  0.46993  0.67310  1.0000
  O   O2        1.0  0.93320  0.46993  0.82690  1.0000
  O   O3        1.0  0.56680  0.96993  0.67310  1.0000
  O   O4        1.0  0.43320  0.96993  0.82690  1.0000
  O   O5        1.0  0.93320  0.53007  0.32690  1.0000
  O   O6        1.0  0.06680  0.53007  0.17310  1.0000
  O   O7        1.0  0.43320  0.03007  0.32690  1.0000
  O   O8        1.0  0.56680  0.03007  0.17310  1.0000
  C   C33       1.0  0.35730  0.44240  0.79730  1.0000
  C   C34       1.0  0.64270  0.44240  0.70270  1.0000
  C   C35       1.0  0.85730  0.94240  0.79730  1.0000
  C   C36       1.0  0.14270  0.94240  0.70270  1.0000
  C   C37       1.0  0.64270  0.55760  0.20270  1.0000
  C   C38       1.0  0.35730  0.55760  0.29730  1.0000
  C   C39       1.0  0.14270  0.05760  0.20270  1.0000
  C   C40       1.0  0.85730  0.05760  0.29730  1.0000
  O   O9        1.0  0.36520  0.38024  0.67300  1.0000
  O   O10       1.0  0.63480  0.38024  0.82700  1.0000
  O   O11       1.0  0.86520  0.88024  0.67300  1.0000
  O   O12       1.0  0.13480  0.88024  0.82700  1.0000
  O   O13       1.0  0.63480  0.61976  0.32700  1.0000
  O   O14       1.0  0.36520  0.61976  0.17300  1.0000
  O   O15       1.0  0.13480  0.11976  0.32700  1.0000
  O   O16       1.0  0.86520  0.11976  0.17300  1.0000
  C   C41       1.0  0.30280  0.47630  0.84190  1.0000
  C   C42       1.0  0.69720  0.47630  0.65810  1.0000
  C   C43       1.0  0.80280  0.97630  0.84190  1.0000
  C   C44       1.0  0.19720  0.97630  0.65810  1.0000
  C   C45       1.0  0.69720  0.52370  0.15810  1.0000
  C   C46       1.0  0.30280  0.52370  0.34190  1.0000
  C   C47       1.0  0.19720  0.02370  0.15810  1.0000
  C   C48       1.0  0.80280  0.02370  0.34190  1.0000
  O   O17       1.0  0.14900  0.51861  0.83260  1.0000
  O   O18       1.0  0.85100  0.51861  0.66740  1.0000
  O   O19       1.0  0.64900  0.01861  0.83260  1.0000
  O   O20       1.0  0.35100  0.01861  0.66740  1.0000
  O   O21       1.0  0.85100  0.48139  0.16740  1.0000
  O   O22       1.0  0.14900  0.48139  0.33260  1.0000
  O   O23       1.0  0.35100  0.98139  0.16740  1.0000
  O   O24       1.0  0.64900  0.98139  0.33260  1.0000
  Mn  Mn1       1.0  0.00000  0.53113  0.75000  1.0000
  Mn  Mn2       1.0  0.50000  0.03113  0.75000  1.0000
  Mn  Mn3       1.0  0.00000  0.46887  0.25000  1.0000
  Mn  Mn4       1.0  0.50000  0.96887  0.25000  1.0000
  O   O25       1.0  0.44890  0.43246  0.82580  1.0000
  O   O26       1.0  0.55110  0.43246  0.67420  1.0000
  O   O27       1.0  0.94890  0.93246  0.82580  1.0000
  O   O28       1.0  0.05110  0.93246  0.67420  1.0000
  O   O29       1.0  0.55110  0.56754  0.17420  1.0000
  O   O30       1.0  0.44890  0.56754  0.32580  1.0000
  O   O31       1.0  0.05110  0.06754  0.17420  1.0000
  O   O32       1.0  0.94890  0.06754  0.32580  1.0000
  Cr  Cr1       1.0  0.50000  0.37540  0.75000  1.0000
  Cr  Cr2       1.0  0.00000  0.87540  0.75000  1.0000
  Cr  Cr3       1.0  0.50000  0.62460  0.25000  1.0000
  Cr  Cr4       1.0  0.00000  0.12460  0.25000  1.0000
  Br  Br9       1.0  0.35926  0.50926  0.95839  1.0000
  Br  Br10      1.0  0.64074  0.50926  0.54161  1.0000
  Br  Br11      1.0  0.85926  0.00926  0.95839  1.0000
  Br  Br12      1.0  0.14074  0.00926  0.54161  1.0000
  Br  Br13      1.0  0.64074  0.49074  0.04161  1.0000
  Br  Br14      1.0  0.35926  0.49074  0.45839  1.0000
  Br  Br15      1.0  0.14074  0.99074  0.04161  1.0000
  Br  Br16      1.0  0.85926  0.99074  0.45839  1.0000
  O   O33       1.0  0.01590  0.60695  0.66720  1.0000
  O   O34       1.0  0.98410  0.60695  0.83280  1.0000
  O   O35       1.0  0.51590  0.10695  0.66720  1.0000
  O   O36       1.0  0.48410  0.10695  0.83280  1.0000
  O   O37       1.0  0.98410  0.39305  0.33280  1.0000
  O   O38       1.0  0.01590  0.39305  0.16720  1.0000
  O   O39       1.0  0.48410  0.89305  0.33280  1.0000
  O   O40       1.0  0.51590  0.89305  0.16720  1.0000
  O   O41       1.0  0.53020  0.31075  0.67480  1.0000
  O   O42       1.0  0.46980  0.31075  0.82520  1.0000
  O   O43       1.0  0.03020  0.81075  0.67480  1.0000
  O   O44       1.0  0.96980  0.81075  0.82520  1.0000
  O   O45       1.0  0.46980  0.68925  0.32520  1.0000
  O   O46       1.0  0.53020  0.68925  0.17480  1.0000
  O   O47       1.0  0.96980  0.18925  0.32520  1.0000
  O   O48       1.0  0.03020  0.18925  0.17480  1.0000
  C   C49       1.0  0.51590  0.26000  0.70440  1.0000
  C   C50       1.0  0.48410  0.26000  0.79560  1.0000
  C   C51       1.0  0.01590  0.76000  0.70440  1.0000
  C   C52       1.0  0.98410  0.76000  0.79560  1.0000
  C   C53       1.0  0.48410  0.74000  0.29560  1.0000
  C   C54       1.0  0.51590  0.74000  0.20440  1.0000
  C   C55       1.0  0.98410  0.24000  0.29560  1.0000
  C   C56       1.0  0.01590  0.24000  0.20440  1.0000
  C   C57       1.0  0.52780  0.20860  0.66200  1.0000
  C   C58       1.0  0.47220  0.20860  0.83800  1.0000
  C   C59       1.0  0.02780  0.70860  0.66200  1.0000
  C   C60       1.0  0.97220  0.70860  0.83800  1.0000
  C   C61       1.0  0.47220  0.79140  0.33800  1.0000
  C   C62       1.0  0.52780  0.79140  0.16200  1.0000
  C   C63       1.0  0.97220  0.29140  0.33800  1.0000
  C   C64       1.0  0.02780  0.29140  0.16200  1.0000
  Br  Br17      1.0  0.55966  0.20964  0.54628  1.0000
  Br  Br18      1.0  0.44034  0.20964  0.95372  1.0000
  Br  Br19      1.0  0.05966  0.70964  0.54628  1.0000
  Br  Br20      1.0  0.94034  0.70964  0.95372  1.0000
  Br  Br21      1.0  0.44034  0.79036  0.45372  1.0000
  Br  Br22      1.0  0.55966  0.79036  0.04628  1.0000
  Br  Br23      1.0  0.94034  0.29036  0.45372  1.0000
  Br  Br24      1.0  0.05966  0.29036  0.04628  1.0000
  C   C65       1.0  0.51110  0.15520  0.70150  1.0000
  C   C66       1.0  0.48890  0.15520  0.79850  1.0000
  C   C67       1.0  0.01110  0.65520  0.70150  1.0000
  C   C68       1.0  0.98890  0.65520  0.79850  1.0000
  C   C69       1.0  0.48890  0.84480  0.29850  1.0000
  C   C70       1.0  0.51110  0.84480  0.20150  1.0000
  C   C71       1.0  0.98890  0.34480  0.29850  1.0000
  C   C72       1.0  0.01110  0.34480  0.20150  1.0000
