data_image0
_chemical_formula_structural       Br8C32O8C8O8C8O8Cr4O8Mn4Br8O16C24Br8
_chemical_formula_sum              "Br24 C72 O48 Cr4 Mn4"
_cell_length_a       14.1914
_cell_length_b       23.0061
_cell_length_c       14.788
_cell_angle_alpha    90
_cell_angle_beta     104.703
_cell_angle_gamma    90

_space_group_name_H-M_alt    "P 1"
_space_group_IT_number       1

loop_
  _space_group_symop_operation_xyz
  'x, y, z'

loop_
  _atom_site_type_symbol
  _atom_site_label
  _atom_site_symmetry_multiplicity
  _atom_site_fract_x
  _atom_site_fract_y
  _atom_site_fract_z
  _atom_site_occupancy
  Br  Br1       1.0  0.84821  0.61510  0.44814  1.0000
  Br  Br2       1.0  0.15179  0.61510  0.05186  1.0000
  Br  Br3       1.0  0.34821  0.11510  0.44814  1.0000
  Br  Br4       1.0  0.65179  0.11510  0.05186  1.0000
  Br  Br5       1.0  0.15179  0.38490  0.55186  1.0000
  Br  Br6       1.0  0.84821  0.38490  0.94814  1.0000
  Br  Br7       1.0  0.65179  0.88490  0.55186  1.0000
  Br  Br8       1.0  0.34821  0.88490  0.94814  1.0000
  C   C1        1.0  0.78930  0.57830  0.33610  1.0000
  C   C2        1.0  0.21070  0.57830  0.16390  1.0000
  C   C3        1.0  0.28930  0.07830  0.33610  1.0000
  C   C4        1.0  0.71070  0.07830  0.16390  1.0000
  C   C5        1.0  0.21070  0.42170  0.66390  1.0000
  C   C6        1.0  0.78930  0.42170  0.83610  1.0000
  C   C7        1.0  0.71070  0.92170  0.66390  1.0000
  C   C8        1.0  0.28930  0.92170  0.83610  1.0000
  C   C9        1.0  0.69180  0.58730  0.29550  1.0000
  C   C10       1.0  0.30820  0.58730  0.20450  1.0000
  C   C11       1.0  0.19180  0.08730  0.29550  1.0000
  C   C12       1.0  0.80820  0.08730  0.20450  1.0000
  C   C13       1.0  0.30820  0.41270  0.70450  1.0000
  C   C14       1.0  0.69180  0.41270  0.79550  1.0000
  C   C15       1.0  0.80820  0.91270  0.70450  1.0000
  C   C16       1.0  0.19180  0.91270  0.79550  1.0000
  C   C17       1.0  0.84470  0.54180  0.29480  1.0000
  C   C18       1.0  0.15530  0.54180  0.20520  1.0000
  C   C19       1.0  0.34470  0.04180  0.29480  1.0000
  C   C20       1.0  0.65530  0.04180  0.20520  1.0000
  C   C21       1.0  0.15530  0.45820  0.70520  1.0000
  C   C22       1.0  0.84470  0.45820  0.79480  1.0000
  C   C23       1.0  0.65530  0.95820  0.70520  1.0000
  C   C24       1.0  0.34470  0.95820  0.79480  1.0000
  C   C25       1.0  0.64310  0.55770  0.20280  1.0000
  C   C26       1.0  0.35690  0.55770  0.29720  1.0000
  C   C27       1.0  0.14310  0.05770  0.20280  1.0000
  C   C28       1.0  0.85690  0.05770  0.29720  1.0000
  C   C29       1.0  0.35690  0.44230  0.79720  1.0000
  C   C30       1.0  0.64310  0.44230  0.70280  1.0000
  C   C31       1.0  0.85690  0.94230  0.79720  1.0000
  C   C32       1.0  0.14310  0.94230  0.70280  1.0000
  O   O1        1.0  0.63510  0.61940  0.32780  1.0000
  O   O2        1.0  0.36490  0.61940  0.17220  1.0000
  O   O3        1.0  0.13510  0.11940  0.32780  1.0000
  O   O4        1.0  0.86490  0.11940  0.17220  1.0000
  O   O5        1.0  0.36490  0.38060  0.67220  1.0000
  O   O6        1.0  0.63510  0.38060  0.82780  1.0000
  O   O7        1.0  0.86490  0.88060  0.67220  1.0000
  O   O8        1.0  0.13510  0.88060  0.82780  1.0000
  C   C33       1.0  0.79630  0.51310  0.19940  1.0000
  C   C34       1.0  0.20370  0.51310  0.30060  1.0000
  C   C35       1.0  0.29630  0.01310  0.19940  1.0000
  C   C36       1.0  0.70370  0.01310  0.30060  1.0000
  C   C37       1.0  0.20370  0.48690  0.80060  1.0000
  C   C38       1.0  0.79630  0.48690  0.69940  1.0000
  C   C39       1.0  0.70370  0.98690  0.80060  1.0000
  C   C40       1.0  0.29630  0.98690  0.69940  1.0000
  O   O9        1.0  0.93380  0.53050  0.32720  1.0000
  O   O10       1.0  0.06620  0.53050  0.17280  1.0000
  O   O11       1.0  0.43380  0.03050  0.32720  1.0000
  O   O12       1.0  0.56620  0.03050  0.17280  1.0000
  O   O13       1.0  0.06620  0.46950  0.67280  1.0000
  O   O14       1.0  0.93380  0.46950  0.82720  1.0000
  O   O15       1.0  0.56620  0.96950  0.67280  1.0000
  O   O16       1.0  0.43380  0.96950  0.82720  1.0000
  C   C41       1.0  0.69780  0.52380  0.15780  1.0000
  C   C42       1.0  0.30220  0.52380  0.34220  1.0000
  C   C43       1.0  0.19780  0.02380  0.15780  1.0000
  C   C44       1.0  0.80220  0.02380  0.34220  1.0000
  C   C45       1.0  0.30220  0.47620  0.84220  1.0000
  C   C46       1.0  0.69780  0.47620  0.65780  1.0000
  C   C47       1.0  0.80220  0.97620  0.84220  1.0000
  C   C48       1.0  0.19780  0.97620  0.65780  1.0000
  O   O17       1.0  0.55130  0.56740  0.17390  1.0000
  O   O18       1.0  0.44870  0.56740  0.32610  1.0000
  O   O19       1.0  0.05130  0.06740  0.17390  1.0000
  O   O20       1.0  0.94870  0.06740  0.32610  1.0000
  O   O21       1.0  0.44870  0.43260  0.82610  1.0000
  O   O22       1.0  0.55130  0.43260  0.67390  1.0000
  O   O23       1.0  0.94870  0.93260  0.82610  1.0000
  O   O24       1.0  0.05130  0.93260  0.67390  1.0000
  Cr  Cr1       1.0  0.50000  0.62446  0.25000  1.0000
  Cr  Cr2       1.0  0.00000  0.12446  0.25000  1.0000
  Cr  Cr3       1.0  0.50000  0.37554  0.75000  1.0000
  Cr  Cr4       1.0  0.00000  0.87554  0.75000  1.0000
  O   O25       1.0  0.85080  0.48100  0.16690  1.0000
  O   O26       1.0  0.14920  0.48100  0.33310  1.0000
  O   O27       1.0  0.35080  0.98100  0.16690  1.0000
  O   O28       1.0  0.64920  0.98100  0.33310  1.0000
  O   O29       1.0  0.14920  0.51900  0.83310  1.0000
  O   O30       1.0  0.85080  0.51900  0.66690  1.0000
  O   O31       1.0  0.64920  0.01900  0.83310  1.0000
  O   O32       1.0  0.35080  0.01900  0.66690  1.0000
  Mn  Mn1       1.0  0.00000  0.46963  0.25000  1.0000
  Mn  Mn2       1.0  0.50000  0.96963  0.25000  1.0000
  Mn  Mn3       1.0  0.00000  0.53037  0.75000  1.0000
  Mn  Mn4       1.0  0.50000  0.03037  0.75000  1.0000
  Br  Br9       1.0  0.64101  0.49094  0.04123  1.0000
  Br  Br10      1.0  0.35899  0.49094  0.45877  1.0000
  Br  Br11      1.0  0.14101  0.99094  0.04123  1.0000
  Br  Br12      1.0  0.85899  0.99094  0.45877  1.0000
  Br  Br13      1.0  0.35899  0.50906  0.95877  1.0000
  Br  Br14      1.0  0.64101  0.50906  0.54123  1.0000
  Br  Br15      1.0  0.85899  0.00906  0.95877  1.0000
  Br  Br16      1.0  0.14101  0.00906  0.54123  1.0000
  O   O33       1.0  0.52930  0.68990  0.17410  1.0000
  O   O34       1.0  0.47070  0.68990  0.32590  1.0000
  O   O35       1.0  0.02930  0.18990  0.17410  1.0000
  O   O36       1.0  0.97070  0.18990  0.32590  1.0000
  O   O37       1.0  0.47070  0.31010  0.82590  1.0000
  O   O38       1.0  0.52930  0.31010  0.67410  1.0000
  O   O39       1.0  0.97070  0.81010  0.82590  1.0000
  O   O40       1.0  0.02930  0.81010  0.67410  1.0000
  O   O41       1.0  0.01620  0.39400  0.16700  1.0000
  O   O42       1.0  0.98380  0.39400  0.33300  1.0000
  O   O43       1.0  0.51620  0.89400  0.16700  1.0000
  O   O44       1.0  0.48380  0.89400  0.33300  1.0000
  O   O45       1.0  0.98380  0.60600  0.83300  1.0000
  O   O46       1.0  0.01620  0.60600  0.66700  1.0000
  O   O47       1.0  0.48380  0.10600  0.83300  1.0000
  O   O48       1.0  0.51620  0.10600  0.66700  1.0000
  C   C49       1.0  0.51570  0.74070  0.20440  1.0000
  C   C50       1.0  0.48430  0.74070  0.29560  1.0000
  C   C51       1.0  0.01570  0.24070  0.20440  1.0000
  C   C52       1.0  0.98430  0.24070  0.29560  1.0000
  C   C53       1.0  0.48430  0.25930  0.79560  1.0000
  C   C54       1.0  0.51570  0.25930  0.70440  1.0000
  C   C55       1.0  0.98430  0.75930  0.79560  1.0000
  C   C56       1.0  0.01570  0.75930  0.70440  1.0000
  C   C57       1.0  0.52730  0.79200  0.16090  1.0000
  C   C58       1.0  0.47270  0.79200  0.33910  1.0000
  C   C59       1.0  0.02730  0.29200  0.16090  1.0000
  C   C60       1.0  0.97270  0.29200  0.33910  1.0000
  C   C61       1.0  0.47270  0.20800  0.83910  1.0000
  C   C62       1.0  0.52730  0.20800  0.66090  1.0000
  C   C63       1.0  0.97270  0.70800  0.83910  1.0000
  C   C64       1.0  0.02730  0.70800  0.66090  1.0000
  C   C65       1.0  0.51180  0.84540  0.20150  1.0000
  C   C66       1.0  0.48820  0.84540  0.29850  1.0000
  C   C67       1.0  0.01180  0.34540  0.20150  1.0000
  C   C68       1.0  0.98820  0.34540  0.29850  1.0000
  C   C69       1.0  0.48820  0.15460  0.79850  1.0000
  C   C70       1.0  0.51180  0.15460  0.70150  1.0000
  C   C71       1.0  0.98820  0.65460  0.79850  1.0000
  C   C72       1.0  0.01180  0.65460  0.70150  1.0000
  Br  Br17      1.0  0.55784  0.79079  0.04628  1.0000
  Br  Br18      1.0  0.44216  0.79079  0.45372  1.0000
  Br  Br19      1.0  0.05784  0.29079  0.04628  1.0000
  Br  Br20      1.0  0.94216  0.29079  0.45372  1.0000
  Br  Br21      1.0  0.44216  0.20921  0.95372  1.0000
  Br  Br22      1.0  0.55784  0.20921  0.54628  1.0000
  Br  Br23      1.0  0.94216  0.70921  0.95372  1.0000
  Br  Br24      1.0  0.05784  0.70921  0.54628  1.0000
