data_image0
_chemical_formula_structural       Co4N4O16H2O8C2H2C2H2C4H2C2H2C4H2C2H2C4H2C2H2C4H2C2H2C4H2C2H2C4H2C2H2C2H2C2H2C6H2C4H2C4H2C4H2C2H2C4H2C2H2C4H6C6H2C4H2C4H2C4H2C2H2C4H2C2H2C2H6C8H2C4H2C4H2C4H2C2H2C4H2C2H2C4H6
_chemical_formula_sum              "Co4 N4 O24 H94 C134"
_cell_length_a       9.9281
_cell_length_b       19.1304
_cell_length_c       22.0724
_cell_angle_alpha    66.036
_cell_angle_beta     87.374
_cell_angle_gamma    85.61

_space_group_name_H-M_alt    "P 1"
_space_group_IT_number       1

loop_
  _space_group_symop_operation_xyz
  'x, y, z'

loop_
  _atom_site_type_symbol
  _atom_site_label
  _atom_site_symmetry_multiplicity
  _atom_site_fract_x
  _atom_site_fract_y
  _atom_site_fract_z
  _atom_site_occupancy
  Co  Co1       1.0  0.91716  0.57489  0.58513  1.0000
  Co  Co2       1.0  0.08284  0.42511  0.41487  1.0000
  Co  Co3       1.0  0.11133  0.68709  0.63519  1.0000
  Co  Co4       1.0  0.88867  0.31291  0.36481  1.0000
  N   N1        1.0  0.77880  0.51376  0.56577  1.0000
  N   N2        1.0  0.22120  0.48624  0.43423  1.0000
  N   N3        1.0  0.10810  0.80956  0.60012  1.0000
  N   N4        1.0  0.89190  0.19044  0.39988  1.0000
  O   O1        1.0  0.05430  0.49457  0.63187  1.0000
  O   O2        1.0  0.94570  0.50543  0.36813  1.0000
  O   O3        1.0  0.14280  0.56670  0.67464  1.0000
  O   O4        1.0  0.85720  0.43330  0.32536  1.0000
  O   O5        1.0  0.62110  0.46766  0.77252  1.0000
  O   O6        1.0  0.37890  0.53234  0.22748  1.0000
  O   O7        1.0  0.60260  0.35067  0.85050  1.0000
  O   O8        1.0  0.39740  0.64933  0.14950  1.0000
  O   O9        1.0  0.98220  0.63692  0.49588  1.0000
  O   O10       1.0  0.01780  0.36308  0.50412  1.0000
  O   O11       1.0  0.09700  0.70045  0.53856  1.0000
  O   O12       1.0  0.90300  0.29955  0.46144  1.0000
  O   O13       1.0  0.12580  0.66494  0.26412  1.0000
  O   O14       1.0  0.87420  0.33506  0.73588  1.0000
  O   O15       1.0  0.23070  0.77027  0.20173  1.0000
  O   O16       1.0  0.76930  0.22973  0.79827  1.0000
  H   H1        1.0  0.21870  0.75600  0.17210  1.0000
  H   H2        1.0  0.78130  0.24400  0.82790  1.0000
  O   O17       1.0  0.92760  0.68500  0.67523  1.0000
  O   O18       1.0  0.07240  0.31500  0.32477  1.0000
  O   O19       1.0  0.80480  0.61980  0.63585  1.0000
  O   O20       1.0  0.19520  0.38020  0.36415  1.0000
  O   O21       1.0  0.32080  0.68052  0.63836  1.0000
  O   O22       1.0  0.67920  0.31948  0.36164  1.0000
  O   O23       1.0  0.21540  0.67942  0.72764  1.0000
  O   O24       1.0  0.78460  0.32058  0.27236  1.0000
  C   C1        1.0  0.68320  0.48056  0.61067  1.0000
  C   C2        1.0  0.31680  0.51944  0.38933  1.0000
  H   H3        1.0  0.67630  0.48970  0.64900  1.0000
  H   H4        1.0  0.32370  0.51030  0.35100  1.0000
  C   C3        1.0  0.59400  0.43309  0.60238  1.0000
  C   C4        1.0  0.40600  0.56691  0.39762  1.0000
  H   H5        1.0  0.52890  0.41130  0.63500  1.0000
  H   H6        1.0  0.47110  0.58870  0.36500  1.0000
  C   C5        1.0  0.60050  0.41765  0.54609  1.0000
  C   C6        1.0  0.39950  0.58235  0.45391  1.0000
  C   C7        1.0  0.69890  0.45377  0.49950  1.0000
  C   C8        1.0  0.30110  0.54623  0.50050  1.0000
  H   H7        1.0  0.70680  0.44650  0.46030  1.0000
  H   H8        1.0  0.29320  0.55350  0.53970  1.0000
  C   C9        1.0  0.78500  0.50014  0.51058  1.0000
  C   C10       1.0  0.21500  0.49986  0.48942  1.0000
  H   H9        1.0  0.85040  0.52310  0.47850  1.0000
  H   H10       1.0  0.14960  0.47690  0.52150  1.0000
  C   C11       1.0  0.50920  0.36465  0.53786  1.0000
  C   C12       1.0  0.49080  0.63535  0.46214  1.0000
  C   C13       1.0  0.39220  0.34447  0.57578  1.0000
  C   C14       1.0  0.60780  0.65553  0.42422  1.0000
  H   H11       1.0  0.36710  0.36770  0.60470  1.0000
  H   H12       1.0  0.63290  0.63230  0.39530  1.0000
  C   C15       1.0  0.31170  0.29076  0.57186  1.0000
  C   C16       1.0  0.68830  0.70924  0.42814  1.0000
  H   H13       1.0  0.23300  0.27910  0.59760  1.0000
  H   H14       1.0  0.76700  0.72090  0.40240  1.0000
  C   C17       1.0  0.34610  0.25367  0.53000  1.0000
  C   C18       1.0  0.65390  0.74633  0.47000  1.0000
  C   C19       1.0  0.45990  0.27602  0.49058  1.0000
  C   C20       1.0  0.54010  0.72398  0.50942  1.0000
  H   H15       1.0  0.48330  0.25390  0.46070  1.0000
  H   H16       1.0  0.51670  0.74610  0.53930  1.0000
  C   C21       1.0  0.54080  0.33024  0.49386  1.0000
  C   C22       1.0  0.45920  0.66976  0.50614  1.0000
  H   H17       1.0  0.61680  0.34380  0.46640  1.0000
  H   H18       1.0  0.38320  0.65620  0.53360  1.0000
  C   C23       1.0  0.27210  0.18751  0.53292  1.0000
  C   C24       1.0  0.72790  0.81249  0.46708  1.0000
  C   C25       1.0  0.19790  0.14480  0.58876  1.0000
  C   C26       1.0  0.80210  0.85520  0.41124  1.0000
  H   H19       1.0  0.18140  0.16280  0.62190  1.0000
  H   H20       1.0  0.81860  0.83720  0.37810  1.0000
  C   C27       1.0  0.14770  0.07600  0.59640  1.0000
  C   C28       1.0  0.85230  0.92400  0.40360  1.0000
  H   H21       1.0  0.09740  0.04900  0.63420  1.0000
  H   H22       1.0  0.90260  0.95100  0.36580  1.0000
  C   C29       1.0  0.17150  0.04710  0.54840  1.0000
  C   C30       1.0  0.82850  0.95290  0.45160  1.0000
  C   C31       1.0  0.23800  0.09180  0.49062  1.0000
  C   C32       1.0  0.76200  0.90820  0.50938  1.0000
  H   H23       1.0  0.25070  0.07510  0.45660  1.0000
  H   H24       1.0  0.74930  0.92490  0.54340  1.0000
  C   C33       1.0  0.28570  0.16110  0.48281  1.0000
  C   C34       1.0  0.71430  0.83890  0.51719  1.0000
  H   H25       1.0  0.32800  0.19060  0.44310  1.0000
  H   H26       1.0  0.67200  0.80940  0.55690  1.0000
  C   C35       1.0  0.14050  0.96690  0.56263  1.0000
  C   C36       1.0  0.85950  0.03310  0.43737  1.0000
  C   C37       1.0  0.03560  0.93000  0.60351  1.0000
  C   C38       1.0  0.96440  0.07000  0.39649  1.0000
  H   H27       1.0  0.97330  0.95740  0.61960  1.0000
  H   H28       1.0  0.02670  0.04260  0.38040  1.0000
  C   C39       1.0  0.02180  0.85260  0.62082  1.0000
  C   C40       1.0  0.97820  0.14740  0.37918  1.0000
  H   H29       1.0  0.94940  0.82970  0.64800  1.0000
  H   H30       1.0  0.05060  0.17030  0.35200  1.0000
  C   C41       1.0  0.20770  0.84510  0.55893  1.0000
  C   C42       1.0  0.79230  0.15490  0.44107  1.0000
  H   H31       1.0  0.26700  0.81660  0.54260  1.0000
  H   H32       1.0  0.73300  0.18340  0.45740  1.0000
  C   C43       1.0  0.22690  0.92200  0.53932  1.0000
  C   C44       1.0  0.77310  0.07800  0.46068  1.0000
  H   H33       1.0  0.29780  0.94390  0.51040  1.0000
  H   H34       1.0  0.70220  0.05610  0.48960  1.0000
  C   C45       1.0  0.82050  0.65734  0.67039  1.0000
  C   C46       1.0  0.17950  0.34266  0.32961  1.0000
  C   C47       1.0  0.70010  0.66955  0.70870  1.0000
  C   C48       1.0  0.29990  0.33045  0.29130  1.0000
  C   C49       1.0  0.71370  0.68874  0.76243  1.0000
  C   C50       1.0  0.28630  0.31126  0.23757  1.0000
  H   H35       1.0  0.79870  0.69780  0.77260  1.0000
  H   H36       1.0  0.20130  0.30220  0.22740  1.0000
  C   C51       1.0  0.60220  0.69470  0.80132  1.0000
  C   C52       1.0  0.39780  0.30530  0.19868  1.0000
  C   C53       1.0  0.47510  0.68693  0.78104  1.0000
  C   C54       1.0  0.52490  0.31307  0.21896  1.0000
  H   H37       1.0  0.39910  0.69050  0.80610  1.0000
  H   H38       1.0  0.60090  0.30950  0.19390  1.0000
  C   C55       1.0  0.45930  0.67406  0.72438  1.0000
  C   C56       1.0  0.54070  0.32594  0.27562  1.0000
  C   C57       1.0  0.57260  0.66196  0.68999  1.0000
  C   C58       1.0  0.42740  0.33804  0.31001  1.0000
  H   H39       1.0  0.56300  0.64870  0.65430  1.0000
  H   H40       1.0  0.43700  0.35130  0.34570  1.0000
  C   C59       1.0  0.61860  0.71010  0.86147  1.0000
  C   C60       1.0  0.38140  0.28990  0.13853  1.0000
  C   C61       1.0  0.73730  0.69050  0.89584  1.0000
  C   C62       1.0  0.26270  0.30950  0.10416  1.0000
  H   H41       1.0  0.80970  0.66860  0.88010  1.0000
  H   H42       1.0  0.19030  0.33140  0.11990  1.0000
  C   C63       1.0  0.75320  0.70200  0.95273  1.0000
  C   C64       1.0  0.24680  0.29800  0.04727  1.0000
  H   H43       1.0  0.83510  0.68720  0.97470  1.0000
  H   H44       1.0  0.16490  0.31280  0.02530  1.0000
  C   C65       1.0  0.64970  0.73510  0.97720  1.0000
  C   C66       1.0  0.35030  0.26490  0.02280  1.0000
  C   C67       1.0  0.52970  0.75680  0.94260  1.0000
  C   C68       1.0  0.47030  0.24320  0.05740  1.0000
  H   H45       1.0  0.45860  0.78020  0.95790  1.0000
  H   H46       1.0  0.54140  0.21980  0.04210  1.0000
  C   C69       1.0  0.51350  0.74420  0.88590  1.0000
  C   C70       1.0  0.48650  0.25580  0.11410  1.0000
  H   H47       1.0  0.43160  0.75870  0.86390  1.0000
  H   H48       1.0  0.56840  0.24130  0.13610  1.0000
  C   C71       1.0  0.32330  0.67744  0.69643  1.0000
  C   C72       1.0  0.67670  0.32256  0.30357  1.0000
  C   C73       1.0  0.66620  0.74880  0.03970  1.0000
  C   C74       1.0  0.33380  0.25120  0.96030  1.0000
  H   H49       1.0  0.74900  0.72310  0.06080  1.0000
  H   H50       1.0  0.25100  0.27690  0.93920  1.0000
  H   H51       1.0  0.59160  0.72920  0.06960  1.0000
  H   H52       1.0  0.40840  0.27080  0.93040  1.0000
  H   H53       1.0  0.66850  0.80280  0.02820  1.0000
  H   H54       1.0  0.33150  0.19720  0.97180  1.0000
  C   C75       1.0  0.13880  0.50591  0.66769  1.0000
  C   C76       1.0  0.86120  0.49409  0.33231  1.0000
  C   C77       1.0  0.23860  0.44104  0.70418  1.0000
  C   C78       1.0  0.76140  0.55896  0.29582  1.0000
  C   C79       1.0  0.21350  0.36653  0.71453  1.0000
  C   C80       1.0  0.78650  0.63347  0.28547  1.0000
  H   H55       1.0  0.13570  0.35770  0.69750  1.0000
  H   H56       1.0  0.86430  0.64230  0.30250  1.0000
  C   C81       1.0  0.30270  0.30460  0.75001  1.0000
  C   C82       1.0  0.69730  0.69540  0.24999  1.0000
  C   C83       1.0  0.41700  0.32009  0.77570  1.0000
  C   C84       1.0  0.58300  0.67991  0.22430  1.0000
  H   H57       1.0  0.47690  0.27960  0.80020  1.0000
  H   H58       1.0  0.52310  0.72040  0.19980  1.0000
  C   C85       1.0  0.44410  0.39424  0.76573  1.0000
  C   C86       1.0  0.55590  0.60576  0.23427  1.0000
  C   C87       1.0  0.35520  0.45459  0.72965  1.0000
  C   C88       1.0  0.64480  0.54541  0.27035  1.0000
  H   H59       1.0  0.37320  0.50440  0.72230  1.0000
  H   H60       1.0  0.62680  0.49560  0.27770  1.0000
  C   C89       1.0  0.27890  0.22520  0.75975  1.0000
  C   C90       1.0  0.72110  0.77480  0.24025  1.0000
  C   C91       1.0  0.15840  0.19290  0.78690  1.0000
  C   C92       1.0  0.84160  0.80710  0.21310  1.0000
  H   H61       1.0  0.09020  0.22160  0.79850  1.0000
  H   H62       1.0  0.90980  0.77840  0.20150  1.0000
  C   C93       1.0  0.13890  0.11680  0.79710  1.0000
  C   C94       1.0  0.86110  0.88320  0.20290  1.0000
  H   H63       1.0  0.05730  0.09590  0.81510  1.0000
  H   H64       1.0  0.94270  0.90410  0.18490  1.0000
  C   C95       1.0  0.23790  0.07290  0.78100  1.0000
  C   C96       1.0  0.76210  0.92710  0.21900  1.0000
  C   C97       1.0  0.35640  0.10450  0.75370  1.0000
  C   C98       1.0  0.64360  0.89550  0.24630  1.0000
  H   H65       1.0  0.42370  0.07580  0.74170  1.0000
  H   H66       1.0  0.57630  0.92420  0.25830  1.0000
  C   C99       1.0  0.37670  0.17970  0.74380  1.0000
  C   C100      1.0  0.62330  0.82030  0.25620  1.0000
  H   H67       1.0  0.45880  0.19990  0.72600  1.0000
  H   H68       1.0  0.54120  0.80010  0.27400  1.0000
  C   C101      1.0  0.21490  0.99020  0.79320  1.0000
  C   C102      1.0  0.78510  0.00980  0.20680  1.0000
  H   H69       1.0  0.12080  0.98550  0.78850  1.0000
  H   H70       1.0  0.87920  0.01450  0.21150  1.0000
  H   H71       1.0  0.24240  0.95680  0.83730  1.0000
  H   H72       1.0  0.75760  0.04320  0.16270  1.0000
  H   H73       1.0  0.26700  0.97630  0.76160  1.0000
  H   H74       1.0  0.73300  0.02370  0.23840  1.0000
  C   C103      1.0  0.56610  0.40550  0.79842  1.0000
  C   C104      1.0  0.43390  0.59450  0.20158  1.0000
  C   C105      1.0  0.06230  0.68736  0.49058  1.0000
  C   C106      1.0  0.93770  0.31264  0.50942  1.0000
  C   C107      1.0  0.11880  0.73360  0.42351  1.0000
  C   C108      1.0  0.88120  0.26640  0.57649  1.0000
  C   C109      1.0  0.17910  0.80106  0.41258  1.0000
  C   C110      1.0  0.82090  0.19894  0.58742  1.0000
  H   H75       1.0  0.18290  0.81630  0.44740  1.0000
  H   H76       1.0  0.81710  0.18370  0.55260  1.0000
  C   C111      1.0  0.23340  0.84605  0.35170  1.0000
  C   C112      1.0  0.76660  0.15395  0.64830  1.0000
  C   C113      1.0  0.22990  0.82120  0.30045  1.0000
  C   C114      1.0  0.77010  0.17880  0.69955  1.0000
  H   H77       1.0  0.26540  0.85060  0.25890  1.0000
  H   H78       1.0  0.73460  0.14940  0.74110  1.0000
  C   C115      1.0  0.17360  0.75237  0.31116  1.0000
  C   C116      1.0  0.82640  0.24763  0.68884  1.0000
  C   C117      1.0  0.11670  0.70899  0.37216  1.0000
  C   C118      1.0  0.88330  0.29101  0.62784  1.0000
  H   H79       1.0  0.07750  0.66380  0.37880  1.0000
  H   H80       1.0  0.92250  0.33620  0.62120  1.0000
  C   C119      1.0  0.30050  0.91690  0.34262  1.0000
  C   C120      1.0  0.69950  0.08310  0.65738  1.0000
  C   C121      1.0  0.39900  0.91340  0.38644  1.0000
  C   C122      1.0  0.60100  0.08660  0.61356  1.0000
  H   H81       1.0  0.42260  0.86670  0.42100  1.0000
  H   H82       1.0  0.57740  0.13330  0.57900  1.0000
  C   C123      1.0  0.46270  0.97770  0.37980  1.0000
  C   C124      1.0  0.53730  0.02230  0.62020  1.0000
  H   H83       1.0  0.52980  0.97310  0.40950  1.0000
  H   H84       1.0  0.47020  0.02690  0.59050  1.0000
  C   C125      1.0  0.42990  0.04740  0.33120  1.0000
  C   C126      1.0  0.57010  0.95260  0.66880  1.0000
  C   C127      1.0  0.33100  0.05170  0.28740  1.0000
  C   C128      1.0  0.66900  0.94830  0.71260  1.0000
  H   H85       1.0  0.30660  0.09870  0.25350  1.0000
  H   H86       1.0  0.69340  0.90130  0.74650  1.0000
  C   C129      1.0  0.26750  0.98680  0.29340  1.0000
  C   C130      1.0  0.73250  0.01320  0.70660  1.0000
  H   H87       1.0  0.20130  0.99120  0.26340  1.0000
  H   H88       1.0  0.79870  0.00880  0.73660  1.0000
  C   C131      1.0  0.17360  0.72350  0.25749  1.0000
  C   C132      1.0  0.82640  0.27650  0.74251  1.0000
  C   C133      1.0  0.50130  0.11740  0.32410  1.0000
  C   C134      1.0  0.49870  0.88260  0.67590  1.0000
  H   H89       1.0  0.44210  0.16250  0.30370  1.0000
  H   H90       1.0  0.55790  0.83750  0.69630  1.0000
  H   H91       1.0  0.58120  0.12130  0.29700  1.0000
  H   H92       1.0  0.41880  0.87870  0.70300  1.0000
  H   H93       1.0  0.52600  0.11300  0.36710  1.0000
  H   H94       1.0  0.47400  0.88700  0.63290  1.0000
