data_image0
_chemical_formula_structural       Eu2O10H4O2H4O2H4O2H4C4
_chemical_formula_sum              "Eu2 O16 H16 C4"
_cell_length_a       8.6678
_cell_length_b       10.2623
_cell_length_c       13.8748
_cell_angle_alpha    96.872
_cell_angle_beta     99.419
_cell_angle_gamma    99.748

_space_group_name_H-M_alt    "P 1"
_space_group_IT_number       1

loop_
  _space_group_symop_operation_xyz
  'x, y, z'

loop_
  _atom_site_type_symbol
  _atom_site_label
  _atom_site_symmetry_multiplicity
  _atom_site_fract_x
  _atom_site_fract_y
  _atom_site_fract_z
  _atom_site_occupancy
  Eu  Eu1       1.0  0.24242  0.75078  0.49688  1.0000
  Eu  Eu2       1.0  0.75758  0.24922  0.50312  1.0000
  O   O1        1.0  0.51580  0.83320  0.49530  1.0000
  O   O2        1.0  0.48420  0.16680  0.50470  1.0000
  O   O3        1.0  0.70290  0.01330  0.49870  1.0000
  O   O4        1.0  0.29710  0.98670  0.50130  1.0000
  O   O5        1.0  0.01910  0.59620  0.40550  1.0000
  O   O6        1.0  0.98090  0.40380  0.59450  1.0000
  O   O7        1.0  0.84280  0.41130  0.40860  1.0000
  O   O8        1.0  0.15720  0.58870  0.59140  1.0000
  O   O9        1.0  0.35630  0.81550  0.66150  1.0000
  O   O10       1.0  0.64370  0.18450  0.33850  1.0000
  H   H1        1.0  0.42580  0.88650  0.68600  1.0000
  H   H2        1.0  0.57420  0.11350  0.31400  1.0000
  H   H3        1.0  0.31440  0.78670  0.70890  1.0000
  H   H4        1.0  0.68560  0.21330  0.29110  1.0000
  O   O11       1.0  0.02710  0.83930  0.53700  1.0000
  O   O12       1.0  0.97290  0.16070  0.46300  1.0000
  H   H5        1.0  0.05230  0.90940  0.58020  1.0000
  H   H6        1.0  0.94770  0.09060  0.41980  1.0000
  H   H7        1.0  0.93570  0.79650  0.54060  1.0000
  H   H8        1.0  0.06430  0.20350  0.45940  1.0000
  O   O13       1.0  0.21690  0.77620  0.33220  1.0000
  O   O14       1.0  0.78310  0.22380  0.66780  1.0000
  H   H9        1.0  0.18500  0.71190  0.28390  1.0000
  H   H10       1.0  0.81500  0.28810  0.71610  1.0000
  H   H11       1.0  0.28050  0.83780  0.31430  1.0000
  H   H12       1.0  0.71950  0.16220  0.68570  1.0000
  O   O15       1.0  0.36750  0.57720  0.44670  1.0000
  O   O16       1.0  0.63250  0.42280  0.55330  1.0000
  H   H13       1.0  0.33220  0.49300  0.43770  1.0000
  H   H14       1.0  0.66780  0.50700  0.56230  1.0000
  H   H15       1.0  0.43870  0.59370  0.41140  1.0000
  H   H16       1.0  0.56130  0.40630  0.58860  1.0000
  C   C1        1.0  0.56410  0.95600  0.49860  1.0000
  C   C2        1.0  0.43590  0.04400  0.50140  1.0000
  C   C3        1.0  0.96000  0.50250  0.44600  1.0000
  C   C4        1.0  0.04000  0.49750  0.55400  1.0000
