data_image0
_chemical_formula_structural       Cu2O2H4N4C2H2C2H2C2H2C4H2C2H2C4H2C2H2C2H2C4P4O14
_chemical_formula_sum              "Cu2 O16 H20 N4 C24 P4"
_cell_length_a       6.9426
_cell_length_b       10.9941
_cell_length_c       19.4209
_cell_angle_alpha    100.248
_cell_angle_beta     90.574
_cell_angle_gamma    97.102

_space_group_name_H-M_alt    "P 1"
_space_group_IT_number       1

loop_
  _space_group_symop_operation_xyz
  'x, y, z'

loop_
  _atom_site_type_symbol
  _atom_site_label
  _atom_site_symmetry_multiplicity
  _atom_site_fract_x
  _atom_site_fract_y
  _atom_site_fract_z
  _atom_site_occupancy
  Cu  Cu1       1.0  0.14767  0.54401  0.19634  1.0000
  Cu  Cu2       1.0  0.85233  0.45599  0.80366  1.0000
  O   O1        1.0  0.45840  0.55461  0.22756  1.0000
  O   O2        1.0  0.54160  0.44539  0.77244  1.0000
  H   H1        1.0  0.56400  0.61890  0.23130  1.0000
  H   H2        1.0  0.43600  0.38110  0.76870  1.0000
  H   H3        1.0  0.52600  0.48540  0.21630  1.0000
  H   H4        1.0  0.47400  0.51460  0.78370  1.0000
  N   N1        1.0  0.14510  0.38690  0.12297  1.0000
  N   N2        1.0  0.85490  0.61310  0.87703  1.0000
  N   N3        1.0  0.21460  0.62480  0.11231  1.0000
  N   N4        1.0  0.78540  0.37520  0.88769  1.0000
  C   C1        1.0  0.11010  0.26910  0.13063  1.0000
  C   C2        1.0  0.88990  0.73090  0.86937  1.0000
  H   H5        1.0  0.07590  0.25110  0.17530  1.0000
  H   H6        1.0  0.92410  0.74890  0.82470  1.0000
  C   C3        1.0  0.12160  0.16950  0.07491  1.0000
  C   C4        1.0  0.87840  0.83050  0.92509  1.0000
  H   H7        1.0  0.09810  0.08600  0.08240  1.0000
  H   H8        1.0  0.90190  0.91400  0.91760  1.0000
  C   C5        1.0  0.16710  0.19390  0.00961  1.0000
  C   C6        1.0  0.83290  0.80610  0.99039  1.0000
  H   H9        1.0  0.17490  0.12740  0.97160  1.0000
  H   H10       1.0  0.82510  0.87260  0.02840  1.0000
  C   C7        1.0  0.20220  0.31870  0.99950  1.0000
  C   C8        1.0  0.79780  0.68130  0.00050  1.0000
  C   C9        1.0  0.24720  0.35560  0.93357  1.0000
  C   C10       1.0  0.75280  0.64440  0.06643  1.0000
  H   H11       1.0  0.25280  0.29350  0.89310  1.0000
  H   H12       1.0  0.74720  0.70650  0.10690  1.0000
  C   C11       1.0  0.28190  0.47740  0.92820  1.0000
  C   C12       1.0  0.71810  0.52260  0.07180  1.0000
  H   H13       1.0  0.31120  0.49920  0.88390  1.0000
  H   H14       1.0  0.68880  0.50080  0.11610  1.0000
  C   C13       1.0  0.27530  0.57440  0.98810  1.0000
  C   C14       1.0  0.72470  0.42560  0.01190  1.0000
  C   C15       1.0  0.31490  0.70280  0.98688  1.0000
  C   C16       1.0  0.68510  0.29720  0.01312  1.0000
  H   H15       1.0  0.34750  0.73060  0.94440  1.0000
  H   H16       1.0  0.65250  0.26940  0.05560  1.0000
  C   C17       1.0  0.30600  0.78730  0.04733  1.0000
  C   C18       1.0  0.69400  0.21270  0.95267  1.0000
  H   H17       1.0  0.33560  0.87400  0.04730  1.0000
  H   H18       1.0  0.66440  0.12600  0.95270  1.0000
  C   C19       1.0  0.25250  0.74470  0.10952  1.0000
  C   C20       1.0  0.74750  0.25530  0.89048  1.0000
  H   H19       1.0  0.24330  0.80410  0.15090  1.0000
  H   H20       1.0  0.75670  0.19590  0.84910  1.0000
  C   C21       1.0  0.22790  0.54050  0.05284  1.0000
  C   C22       1.0  0.77210  0.45950  0.94716  1.0000
  C   C23       1.0  0.19060  0.41160  0.05845  1.0000
  C   C24       1.0  0.80940  0.58840  0.94155  1.0000
  P   P1        1.0  0.92375  0.48225  0.32606  1.0000
  P   P2        1.0  0.07625  0.51775  0.67394  1.0000
  P   P3        1.0  0.91631  0.72932  0.29102  1.0000
  P   P4        1.0  0.08369  0.27068  0.70898  1.0000
  O   O3        1.0  0.06580  0.44888  0.26796  1.0000
  O   O4        1.0  0.93420  0.55112  0.73204  1.0000
  O   O5        1.0  0.76230  0.37829  0.32536  1.0000
  O   O6        1.0  0.23770  0.62171  0.67464  1.0000
  O   O7        1.0  0.03160  0.52864  0.39655  1.0000
  O   O8        1.0  0.96840  0.47136  0.60345  1.0000
  O   O9        1.0  0.82050  0.59643  0.30831  1.0000
  O   O10       1.0  0.17950  0.40357  0.69169  1.0000
  O   O11       1.0  0.10000  0.70139  0.25095  1.0000
  O   O12       1.0  0.90000  0.29861  0.74905  1.0000
  O   O13       1.0  0.96300  0.81856  0.35877  1.0000
  O   O14       1.0  0.03700  0.18144  0.64123  1.0000
  O   O15       1.0  0.76120  0.76253  0.24438  1.0000
  O   O16       1.0  0.23880  0.23747  0.75562  1.0000
