data_image0
_chemical_formula_structural       Fe4F12C4O8
_chemical_formula_sum              "Fe4 F12 C4 O8"
_cell_length_a       9.143
_cell_length_b       20.837
_cell_length_c       3.89
_cell_angle_alpha    90
_cell_angle_beta     90
_cell_angle_gamma    90

_space_group_name_H-M_alt    "P 1"
_space_group_IT_number       1

loop_
  _space_group_symop_operation_xyz
  'x, y, z'

loop_
  _atom_site_type_symbol
  _atom_site_label
  _atom_site_symmetry_multiplicity
  _atom_site_fract_x
  _atom_site_fract_y
  _atom_site_fract_z
  _atom_site_occupancy
  Fe  Fe1       1.0  0.25000  0.38098  0.50000  1.0000
  Fe  Fe2       1.0  0.75000  0.88098  0.50000  1.0000
  Fe  Fe3       1.0  0.75000  0.61902  0.50000  1.0000
  Fe  Fe4       1.0  0.25000  0.11902  0.50000  1.0000
  F   F1        1.0  0.09723  0.43925  0.49960  1.0000
  F   F2        1.0  0.59723  0.93925  0.50040  1.0000
  F   F3        1.0  0.59723  0.56075  0.49960  1.0000
  F   F4        1.0  0.90277  0.93925  0.49960  1.0000
  F   F5        1.0  0.90277  0.56075  0.50040  1.0000
  F   F6        1.0  0.40277  0.06075  0.49960  1.0000
  F   F7        1.0  0.40277  0.43925  0.50040  1.0000
  F   F8        1.0  0.09723  0.06075  0.50040  1.0000
  F   F9        1.0  0.25000  0.37588  0.00000  1.0000
  F   F10       1.0  0.75000  0.87588  0.00000  1.0000
  F   F11       1.0  0.75000  0.62412  0.00000  1.0000
  F   F12       1.0  0.25000  0.12412  0.00000  1.0000
  C   C1        1.0  0.16510  0.25000  0.50000  1.0000
  C   C2        1.0  0.66510  0.75000  0.50000  1.0000
  C   C3        1.0  0.83490  0.75000  0.50000  1.0000
  C   C4        1.0  0.33490  0.25000  0.50000  1.0000
  O   O1        1.0  0.10483  0.30385  0.50040  1.0000
  O   O2        1.0  0.60483  0.80385  0.49960  1.0000
  O   O3        1.0  0.60483  0.69615  0.50040  1.0000
  O   O4        1.0  0.89517  0.80385  0.50040  1.0000
  O   O5        1.0  0.89517  0.69615  0.49960  1.0000
  O   O6        1.0  0.39517  0.19615  0.50040  1.0000
  O   O7        1.0  0.39517  0.30385  0.49960  1.0000
  O   O8        1.0  0.10483  0.19615  0.49960  1.0000
