data_image0
_chemical_formula_structural       La4O52H16O8H16N4C24H8C16
_chemical_formula_sum              "La4 O60 H40 N4 C40"
_cell_length_a       14.2806
_cell_length_b       11.0258
_cell_length_c       16.0333
_cell_angle_alpha    90
_cell_angle_beta     101.94
_cell_angle_gamma    90

_space_group_name_H-M_alt    "P 1"
_space_group_IT_number       1

loop_
  _space_group_symop_operation_xyz
  'x, y, z'

loop_
  _atom_site_type_symbol
  _atom_site_label
  _atom_site_symmetry_multiplicity
  _atom_site_fract_x
  _atom_site_fract_y
  _atom_site_fract_z
  _atom_site_occupancy
  La  La1       1.0  0.50000  0.39017  0.25000  1.0000
  La  La2       1.0  0.00000  0.89017  0.25000  1.0000
  La  La3       1.0  0.50000  0.60983  0.75000  1.0000
  La  La4       1.0  0.00000  0.10983  0.75000  1.0000
  O   O1        1.0  0.56373  0.20721  0.18308  1.0000
  O   O2        1.0  0.43627  0.20721  0.31692  1.0000
  O   O3        1.0  0.06373  0.70721  0.18308  1.0000
  O   O4        1.0  0.93627  0.70721  0.31692  1.0000
  O   O5        1.0  0.43627  0.79279  0.81692  1.0000
  O   O6        1.0  0.56373  0.79279  0.68308  1.0000
  O   O7        1.0  0.93627  0.29279  0.81692  1.0000
  O   O8        1.0  0.06373  0.29279  0.68308  1.0000
  O   O9        1.0  0.41465  0.24690  0.11981  1.0000
  O   O10       1.0  0.58535  0.24690  0.38019  1.0000
  O   O11       1.0  0.91465  0.74690  0.11981  1.0000
  O   O12       1.0  0.08535  0.74690  0.38019  1.0000
  O   O13       1.0  0.58535  0.75310  0.88019  1.0000
  O   O14       1.0  0.41465  0.75310  0.61981  1.0000
  O   O15       1.0  0.08535  0.25310  0.88019  1.0000
  O   O16       1.0  0.91465  0.25310  0.61981  1.0000
  O   O17       1.0  0.46412  0.32037  0.95551  1.0000
  O   O18       1.0  0.53588  0.32037  0.54449  1.0000
  O   O19       1.0  0.96412  0.82037  0.95551  1.0000
  O   O20       1.0  0.03588  0.82037  0.54449  1.0000
  O   O21       1.0  0.53588  0.67963  0.04449  1.0000
  O   O22       1.0  0.46412  0.67963  0.45551  1.0000
  O   O23       1.0  0.03588  0.17963  0.04449  1.0000
  O   O24       1.0  0.96412  0.17963  0.45551  1.0000
  O   O25       1.0  0.32505  0.23094  0.89614  1.0000
  O   O26       1.0  0.67495  0.23094  0.60386  1.0000
  O   O27       1.0  0.82505  0.73094  0.89614  1.0000
  O   O28       1.0  0.17495  0.73094  0.60386  1.0000
  O   O29       1.0  0.67495  0.76906  0.10386  1.0000
  O   O30       1.0  0.32505  0.76906  0.39614  1.0000
  O   O31       1.0  0.17495  0.26906  0.10386  1.0000
  O   O32       1.0  0.82505  0.26906  0.39614  1.0000
  O   O33       1.0  0.42360  0.62097  0.22676  1.0000
  O   O34       1.0  0.57640  0.62097  0.27324  1.0000
  O   O35       1.0  0.92360  0.12097  0.22676  1.0000
  O   O36       1.0  0.07640  0.12097  0.27324  1.0000
  O   O37       1.0  0.57640  0.37903  0.77324  1.0000
  O   O38       1.0  0.42360  0.37903  0.72676  1.0000
  O   O39       1.0  0.07640  0.87903  0.77324  1.0000
  O   O40       1.0  0.92360  0.87903  0.72676  1.0000
  O   O41       1.0  0.50000  0.79257  0.25000  1.0000
  O   O42       1.0  0.00000  0.29257  0.25000  1.0000
  O   O43       1.0  0.50000  0.20743  0.75000  1.0000
  O   O44       1.0  0.00000  0.70743  0.75000  1.0000
  O   O45       1.0  0.46868  0.46041  0.39134  1.0000
  O   O46       1.0  0.53132  0.46041  0.10866  1.0000
  O   O47       1.0  0.96868  0.96041  0.39134  1.0000
  O   O48       1.0  0.03132  0.96041  0.10866  1.0000
  O   O49       1.0  0.53132  0.53959  0.60866  1.0000
  O   O50       1.0  0.46868  0.53959  0.89134  1.0000
  O   O51       1.0  0.03132  0.03959  0.60866  1.0000
  O   O52       1.0  0.96868  0.03959  0.89134  1.0000
  H   H1        1.0  0.48090  0.41760  0.43080  1.0000
  H   H2        1.0  0.51910  0.41760  0.06920  1.0000
  H   H3        1.0  0.98090  0.91760  0.43080  1.0000
  H   H4        1.0  0.01910  0.91760  0.06920  1.0000
  H   H5        1.0  0.51910  0.58240  0.56920  1.0000
  H   H6        1.0  0.48090  0.58240  0.93080  1.0000
  H   H7        1.0  0.01910  0.08240  0.56920  1.0000
  H   H8        1.0  0.98090  0.08240  0.93080  1.0000
  H   H9        1.0  0.46080  0.52900  0.40610  1.0000
  H   H10       1.0  0.53920  0.52900  0.09390  1.0000
  H   H11       1.0  0.96080  0.02900  0.40610  1.0000
  H   H12       1.0  0.03920  0.02900  0.09390  1.0000
  H   H13       1.0  0.53920  0.47100  0.59390  1.0000
  H   H14       1.0  0.46080  0.47100  0.90610  1.0000
  H   H15       1.0  0.03920  0.97100  0.59390  1.0000
  H   H16       1.0  0.96080  0.97100  0.90610  1.0000
  O   O53       1.0  0.31796  0.40932  0.20776  1.0000
  O   O54       1.0  0.68204  0.40932  0.29224  1.0000
  O   O55       1.0  0.81796  0.90932  0.20776  1.0000
  O   O56       1.0  0.18204  0.90932  0.29224  1.0000
  O   O57       1.0  0.68204  0.59068  0.79224  1.0000
  O   O58       1.0  0.31796  0.59068  0.70776  1.0000
  O   O59       1.0  0.18204  0.09068  0.79224  1.0000
  O   O60       1.0  0.81796  0.09068  0.70776  1.0000
  H   H17       1.0  0.27960  0.36960  0.17530  1.0000
  H   H18       1.0  0.72040  0.36960  0.32470  1.0000
  H   H19       1.0  0.77960  0.86960  0.17530  1.0000
  H   H20       1.0  0.22040  0.86960  0.32470  1.0000
  H   H21       1.0  0.72040  0.63040  0.82470  1.0000
  H   H22       1.0  0.27960  0.63040  0.67530  1.0000
  H   H23       1.0  0.22040  0.13040  0.82470  1.0000
  H   H24       1.0  0.77960  0.13040  0.67530  1.0000
  H   H25       1.0  0.29180  0.47470  0.21650  1.0000
  H   H26       1.0  0.70820  0.47470  0.28350  1.0000
  H   H27       1.0  0.79180  0.97470  0.21650  1.0000
  H   H28       1.0  0.20820  0.97470  0.28350  1.0000
  H   H29       1.0  0.70820  0.52530  0.78350  1.0000
  H   H30       1.0  0.29180  0.52530  0.71650  1.0000
  H   H31       1.0  0.20820  0.02530  0.78350  1.0000
  H   H32       1.0  0.79180  0.02530  0.71650  1.0000
  N   N1        1.0  0.50000  0.68144  0.25000  1.0000
  N   N2        1.0  0.00000  0.18144  0.25000  1.0000
  N   N3        1.0  0.50000  0.31856  0.75000  1.0000
  N   N4        1.0  0.00000  0.81856  0.75000  1.0000
  C   C1        1.0  0.49783  0.09336  0.05837  1.0000
  C   C2        1.0  0.50217  0.09336  0.44163  1.0000
  C   C3        1.0  0.99783  0.59336  0.05837  1.0000
  C   C4        1.0  0.00217  0.59336  0.44163  1.0000
  C   C5        1.0  0.50217  0.90664  0.94163  1.0000
  C   C6        1.0  0.49783  0.90664  0.55837  1.0000
  C   C7        1.0  0.00217  0.40664  0.94163  1.0000
  C   C8        1.0  0.99783  0.40664  0.55837  1.0000
  C   C9        1.0  0.45243  0.10922  0.97267  1.0000
  C   C10       1.0  0.54757  0.10922  0.52733  1.0000
  C   C11       1.0  0.95243  0.60922  0.97267  1.0000
  C   C12       1.0  0.04757  0.60922  0.52733  1.0000
  C   C13       1.0  0.54757  0.89078  0.02733  1.0000
  C   C14       1.0  0.45243  0.89078  0.47267  1.0000
  C   C15       1.0  0.04757  0.39078  0.02733  1.0000
  C   C16       1.0  0.95243  0.39078  0.47267  1.0000
  C   C17       1.0  0.54528  0.98512  0.08458  1.0000
  C   C18       1.0  0.45472  0.98512  0.41542  1.0000
  C   C19       1.0  0.04528  0.48512  0.08458  1.0000
  C   C20       1.0  0.95472  0.48512  0.41542  1.0000
  C   C21       1.0  0.45472  0.01488  0.91542  1.0000
  C   C22       1.0  0.54528  0.01488  0.58458  1.0000
  C   C23       1.0  0.95472  0.51488  0.91542  1.0000
  C   C24       1.0  0.04528  0.51488  0.58458  1.0000
  H   H33       1.0  0.57660  0.97550  0.14250  1.0000
  H   H34       1.0  0.42340  0.97550  0.35750  1.0000
  H   H35       1.0  0.07660  0.47550  0.14250  1.0000
  H   H36       1.0  0.92340  0.47550  0.35750  1.0000
  H   H37       1.0  0.42340  0.02450  0.85750  1.0000
  H   H38       1.0  0.57660  0.02450  0.64250  1.0000
  H   H39       1.0  0.92340  0.52450  0.85750  1.0000
  H   H40       1.0  0.07660  0.52450  0.64250  1.0000
  C   C25       1.0  0.49106  0.18870  0.12369  1.0000
  C   C26       1.0  0.50894  0.18870  0.37631  1.0000
  C   C27       1.0  0.99106  0.68870  0.12369  1.0000
  C   C28       1.0  0.00894  0.68870  0.37631  1.0000
  C   C29       1.0  0.50894  0.81130  0.87631  1.0000
  C   C30       1.0  0.49106  0.81130  0.62369  1.0000
  C   C31       1.0  0.00894  0.31130  0.87631  1.0000
  C   C32       1.0  0.99106  0.31130  0.62369  1.0000
  C   C33       1.0  0.40941  0.22986  0.93933  1.0000
  C   C34       1.0  0.59059  0.22986  0.56067  1.0000
  C   C35       1.0  0.90941  0.72986  0.93933  1.0000
  C   C36       1.0  0.09059  0.72986  0.56067  1.0000
  C   C37       1.0  0.59059  0.77014  0.06067  1.0000
  C   C38       1.0  0.40941  0.77014  0.43933  1.0000
  C   C39       1.0  0.09059  0.27014  0.06067  1.0000
  C   C40       1.0  0.90941  0.27014  0.43933  1.0000
