data_image0
_chemical_formula_structural       Ca8O56H8O16H16C24H8C8H8C16H8C8H8C56H24C8H24C16H8C8H8C16H8C8H8C24H8C8H8C16H8C8H8C24H8C8H8C16H8C8H8C8
_chemical_formula_sum              "Ca8 O72 H200 C288"
_cell_length_a       20.4667
_cell_length_b       10.3556
_cell_length_c       32.4
_cell_angle_alpha    90
_cell_angle_beta     90
_cell_angle_gamma    90

_space_group_name_H-M_alt    "P 1"
_space_group_IT_number       1

loop_
  _space_group_symop_operation_xyz
  'x, y, z'

loop_
  _atom_site_type_symbol
  _atom_site_label
  _atom_site_symmetry_multiplicity
  _atom_site_fract_x
  _atom_site_fract_y
  _atom_site_fract_z
  _atom_site_occupancy
  Ca  Ca1       1.0  0.60662  0.82223  0.50636  1.0000
  Ca  Ca2       1.0  0.89338  0.17777  0.00636  1.0000
  Ca  Ca3       1.0  0.39338  0.32223  0.99364  1.0000
  Ca  Ca4       1.0  0.10662  0.67777  0.49364  1.0000
  Ca  Ca5       1.0  0.39338  0.17777  0.49364  1.0000
  Ca  Ca6       1.0  0.10662  0.82223  0.99364  1.0000
  Ca  Ca7       1.0  0.60662  0.67777  0.00636  1.0000
  Ca  Ca8       1.0  0.89338  0.32223  0.50636  1.0000
  O   O1        1.0  0.54750  0.69168  0.55053  1.0000
  O   O2        1.0  0.95250  0.30832  0.05053  1.0000
  O   O3        1.0  0.45250  0.19168  0.94947  1.0000
  O   O4        1.0  0.04750  0.80832  0.44947  1.0000
  O   O5        1.0  0.45250  0.30832  0.44947  1.0000
  O   O6        1.0  0.04750  0.69168  0.94947  1.0000
  O   O7        1.0  0.54750  0.80832  0.05053  1.0000
  O   O8        1.0  0.95250  0.19168  0.55053  1.0000
  O   O9        1.0  0.47060  0.54177  0.54773  1.0000
  O   O10       1.0  0.02940  0.45823  0.04773  1.0000
  O   O11       1.0  0.52940  0.04177  0.95227  1.0000
  O   O12       1.0  0.97060  0.95823  0.45227  1.0000
  O   O13       1.0  0.52940  0.45823  0.45227  1.0000
  O   O14       1.0  0.97060  0.54177  0.95227  1.0000
  O   O15       1.0  0.47060  0.95823  0.04773  1.0000
  O   O16       1.0  0.02940  0.04177  0.54773  1.0000
  O   O17       1.0  0.42729  0.49865  0.95418  1.0000
  O   O18       1.0  0.07271  0.50135  0.45418  1.0000
  O   O19       1.0  0.57271  0.99865  0.54582  1.0000
  O   O20       1.0  0.92729  0.00135  0.04582  1.0000
  O   O21       1.0  0.57271  0.50135  0.04582  1.0000
  O   O22       1.0  0.92729  0.49865  0.54582  1.0000
  O   O23       1.0  0.42729  0.00135  0.45418  1.0000
  O   O24       1.0  0.07271  0.99865  0.95418  1.0000
  O   O25       1.0  0.51422  0.62244  0.96705  1.0000
  O   O26       1.0  0.98578  0.37756  0.46705  1.0000
  O   O27       1.0  0.48578  0.12244  0.53295  1.0000
  O   O28       1.0  0.01422  0.87756  0.03295  1.0000
  O   O29       1.0  0.48578  0.37756  0.03295  1.0000
  O   O30       1.0  0.01422  0.62244  0.53295  1.0000
  O   O31       1.0  0.51422  0.87756  0.46705  1.0000
  O   O32       1.0  0.98578  0.12244  0.96705  1.0000
  O   O33       1.0  0.72386  0.98346  0.96747  1.0000
  O   O34       1.0  0.77614  0.01654  0.46747  1.0000
  O   O35       1.0  0.27614  0.48346  0.53253  1.0000
  O   O36       1.0  0.22386  0.51654  0.03253  1.0000
  O   O37       1.0  0.27614  0.01654  0.03253  1.0000
  O   O38       1.0  0.22386  0.98346  0.53253  1.0000
  O   O39       1.0  0.72386  0.51654  0.46747  1.0000
  O   O40       1.0  0.77614  0.48346  0.96747  1.0000
  O   O41       1.0  0.81326  0.10313  0.96176  1.0000
  O   O42       1.0  0.68674  0.89687  0.46176  1.0000
  O   O43       1.0  0.18674  0.60313  0.53824  1.0000
  O   O44       1.0  0.31326  0.39687  0.03824  1.0000
  O   O45       1.0  0.18674  0.89687  0.03824  1.0000
  O   O46       1.0  0.31326  0.10313  0.53824  1.0000
  O   O47       1.0  0.81326  0.39687  0.46176  1.0000
  O   O48       1.0  0.68674  0.60313  0.96176  1.0000
  O   O49       1.0  0.73757  0.05934  0.54001  1.0000
  O   O50       1.0  0.76243  0.94066  0.04001  1.0000
  O   O51       1.0  0.26243  0.55934  0.95999  1.0000
  O   O52       1.0  0.23757  0.44066  0.45999  1.0000
  O   O53       1.0  0.26243  0.94066  0.45999  1.0000
  O   O54       1.0  0.23757  0.05934  0.95999  1.0000
  O   O55       1.0  0.73757  0.44066  0.04001  1.0000
  O   O56       1.0  0.76243  0.55934  0.54001  1.0000
  H   H1        1.0  0.75400  0.04600  0.51140  1.0000
  H   H2        1.0  0.74600  0.95400  0.01140  1.0000
  H   H3        1.0  0.24600  0.54600  0.98860  1.0000
  H   H4        1.0  0.25400  0.45400  0.48860  1.0000
  H   H5        1.0  0.24600  0.95400  0.48860  1.0000
  H   H6        1.0  0.25400  0.04600  0.98860  1.0000
  H   H7        1.0  0.75400  0.45400  0.01140  1.0000
  H   H8        1.0  0.74600  0.54600  0.51140  1.0000
  O   O57       1.0  0.80599  0.22759  0.54193  1.0000
  O   O58       1.0  0.69401  0.77241  0.04193  1.0000
  O   O59       1.0  0.19401  0.72759  0.95807  1.0000
  O   O60       1.0  0.30599  0.27241  0.45807  1.0000
  O   O61       1.0  0.19401  0.77241  0.45807  1.0000
  O   O62       1.0  0.30599  0.22759  0.95807  1.0000
  O   O63       1.0  0.80599  0.27241  0.04193  1.0000
  O   O64       1.0  0.69401  0.72759  0.54193  1.0000
  O   O65       1.0  0.61125  0.65335  0.45900  1.0000
  O   O66       1.0  0.88875  0.34665  0.95900  1.0000
  O   O67       1.0  0.38875  0.15335  0.04100  1.0000
  O   O68       1.0  0.11125  0.84665  0.54100  1.0000
  O   O69       1.0  0.38875  0.34665  0.54100  1.0000
  O   O70       1.0  0.11125  0.65335  0.04100  1.0000
  O   O71       1.0  0.61125  0.84665  0.95900  1.0000
  O   O72       1.0  0.88875  0.15335  0.45900  1.0000
  H   H9        1.0  0.57913  0.60235  0.45804  1.0000
  H   H10       1.0  0.92087  0.39765  0.95804  1.0000
  H   H11       1.0  0.42087  0.10235  0.04196  1.0000
  H   H12       1.0  0.07913  0.89765  0.54196  1.0000
  H   H13       1.0  0.42087  0.39765  0.54196  1.0000
  H   H14       1.0  0.07913  0.60235  0.04196  1.0000
  H   H15       1.0  0.57913  0.89765  0.95804  1.0000
  H   H16       1.0  0.92087  0.10235  0.45804  1.0000
  H   H17       1.0  0.64590  0.60752  0.45954  1.0000
  H   H18       1.0  0.85410  0.39248  0.95954  1.0000
  H   H19       1.0  0.35410  0.10752  0.04046  1.0000
  H   H20       1.0  0.14590  0.89248  0.54046  1.0000
  H   H21       1.0  0.35410  0.39248  0.54046  1.0000
  H   H22       1.0  0.14590  0.60752  0.04046  1.0000
  H   H23       1.0  0.64590  0.89248  0.95954  1.0000
  H   H24       1.0  0.85410  0.10752  0.45954  1.0000
  C   C1        1.0  0.51884  0.59505  0.56486  1.0000
  C   C2        1.0  0.98116  0.40495  0.06486  1.0000
  C   C3        1.0  0.48116  0.09505  0.93514  1.0000
  C   C4        1.0  0.01884  0.90495  0.43514  1.0000
  C   C5        1.0  0.48116  0.40495  0.43514  1.0000
  C   C6        1.0  0.01884  0.59505  0.93514  1.0000
  C   C7        1.0  0.51884  0.90495  0.06486  1.0000
  C   C8        1.0  0.98116  0.09505  0.56486  1.0000
  C   C9        1.0  0.54188  0.53750  0.60516  1.0000
  C   C10       1.0  0.95812  0.46250  0.10516  1.0000
  C   C11       1.0  0.45812  0.03750  0.89484  1.0000
  C   C12       1.0  0.04188  0.96250  0.39484  1.0000
  C   C13       1.0  0.45812  0.46250  0.39484  1.0000
  C   C14       1.0  0.04188  0.53750  0.89484  1.0000
  C   C15       1.0  0.54188  0.96250  0.10516  1.0000
  C   C16       1.0  0.95812  0.03750  0.60516  1.0000
  C   C17       1.0  0.50986  0.43280  0.62311  1.0000
  C   C18       1.0  0.99014  0.56720  0.12311  1.0000
  C   C19       1.0  0.49014  0.93280  0.87689  1.0000
  C   C20       1.0  0.00986  0.06720  0.37689  1.0000
  C   C21       1.0  0.49014  0.56720  0.37689  1.0000
  C   C22       1.0  0.00986  0.43280  0.87689  1.0000
  C   C23       1.0  0.50986  0.06720  0.12311  1.0000
  C   C24       1.0  0.99014  0.93280  0.62311  1.0000
  H   H25       1.0  0.47248  0.39694  0.61005  1.0000
  H   H26       1.0  0.02752  0.60306  0.11005  1.0000
  H   H27       1.0  0.52752  0.89694  0.88995  1.0000
  H   H28       1.0  0.97248  0.10306  0.38995  1.0000
  H   H29       1.0  0.52752  0.60306  0.38995  1.0000
  H   H30       1.0  0.97248  0.39694  0.88995  1.0000
  H   H31       1.0  0.47248  0.10306  0.11005  1.0000
  H   H32       1.0  0.02752  0.89694  0.61005  1.0000
  C   C25       1.0  0.53225  0.38080  0.65995  1.0000
  C   C26       1.0  0.96775  0.61920  0.15995  1.0000
  C   C27       1.0  0.46775  0.88080  0.84005  1.0000
  C   C28       1.0  0.03225  0.11920  0.34005  1.0000
  C   C29       1.0  0.46775  0.61920  0.34005  1.0000
  C   C30       1.0  0.03225  0.38080  0.84005  1.0000
  C   C31       1.0  0.53225  0.11920  0.15995  1.0000
  C   C32       1.0  0.96775  0.88080  0.65995  1.0000
  H   H33       1.0  0.50991  0.30973  0.67197  1.0000
  H   H34       1.0  0.99009  0.69027  0.17197  1.0000
  H   H35       1.0  0.49009  0.80973  0.82803  1.0000
  H   H36       1.0  0.00991  0.19027  0.32803  1.0000
  H   H37       1.0  0.49009  0.69027  0.32803  1.0000
  H   H38       1.0  0.00991  0.30973  0.82803  1.0000
  H   H39       1.0  0.50991  0.19027  0.17197  1.0000
  H   H40       1.0  0.99009  0.80973  0.67197  1.0000
  C   C33       1.0  0.58728  0.43180  0.67956  1.0000
  C   C34       1.0  0.91272  0.56820  0.17956  1.0000
  C   C35       1.0  0.41272  0.93180  0.82044  1.0000
  C   C36       1.0  0.08728  0.06820  0.32044  1.0000
  C   C37       1.0  0.41272  0.56820  0.32044  1.0000
  C   C38       1.0  0.08728  0.43180  0.82044  1.0000
  C   C39       1.0  0.58728  0.06820  0.17956  1.0000
  C   C40       1.0  0.91272  0.93180  0.67956  1.0000
  C   C41       1.0  0.61921  0.53600  0.66136  1.0000
  C   C42       1.0  0.88079  0.46400  0.16136  1.0000
  C   C43       1.0  0.38079  0.03600  0.83864  1.0000
  C   C44       1.0  0.11921  0.96400  0.33864  1.0000
  C   C45       1.0  0.38079  0.46400  0.33864  1.0000
  C   C46       1.0  0.11921  0.53600  0.83864  1.0000
  C   C47       1.0  0.61921  0.96400  0.16136  1.0000
  C   C48       1.0  0.88079  0.03600  0.66136  1.0000
  H   H41       1.0  0.65673  0.57184  0.67428  1.0000
  H   H42       1.0  0.84327  0.42816  0.17428  1.0000
  H   H43       1.0  0.34327  0.07184  0.82572  1.0000
  H   H44       1.0  0.15673  0.92816  0.32572  1.0000
  H   H45       1.0  0.34327  0.42816  0.32572  1.0000
  H   H46       1.0  0.15673  0.57184  0.82572  1.0000
  H   H47       1.0  0.65673  0.92816  0.17428  1.0000
  H   H48       1.0  0.84327  0.07184  0.67428  1.0000
  C   C49       1.0  0.59670  0.58820  0.62448  1.0000
  C   C50       1.0  0.90330  0.41180  0.12448  1.0000
  C   C51       1.0  0.40330  0.08820  0.87552  1.0000
  C   C52       1.0  0.09670  0.91180  0.37552  1.0000
  C   C53       1.0  0.40330  0.41180  0.37552  1.0000
  C   C54       1.0  0.09670  0.58820  0.87552  1.0000
  C   C55       1.0  0.59670  0.91180  0.12448  1.0000
  C   C56       1.0  0.90330  0.08820  0.62448  1.0000
  H   H49       1.0  0.61904  0.65911  0.61239  1.0000
  H   H50       1.0  0.88096  0.34089  0.11239  1.0000
  H   H51       1.0  0.38096  0.15911  0.88761  1.0000
  H   H52       1.0  0.11904  0.84089  0.38761  1.0000
  H   H53       1.0  0.38096  0.34089  0.38761  1.0000
  H   H54       1.0  0.11904  0.65911  0.88761  1.0000
  H   H55       1.0  0.61904  0.84089  0.11239  1.0000
  H   H56       1.0  0.88096  0.15911  0.61239  1.0000
  C   C57       1.0  0.61147  0.37720  0.71973  1.0000
  C   C58       1.0  0.88853  0.62280  0.21973  1.0000
  C   C59       1.0  0.38853  0.87720  0.78027  1.0000
  C   C60       1.0  0.11147  0.12280  0.28027  1.0000
  C   C61       1.0  0.38853  0.62280  0.28027  1.0000
  C   C62       1.0  0.11147  0.37720  0.78027  1.0000
  C   C63       1.0  0.61147  0.12280  0.21973  1.0000
  C   C64       1.0  0.88853  0.87720  0.71973  1.0000
  C   C65       1.0  0.58303  0.41730  0.75680  1.0000
  C   C66       1.0  0.91697  0.58270  0.25680  1.0000
  C   C67       1.0  0.41697  0.91730  0.74320  1.0000
  C   C68       1.0  0.08303  0.08270  0.24320  1.0000
  C   C69       1.0  0.41697  0.58270  0.24320  1.0000
  C   C70       1.0  0.08303  0.41730  0.74320  1.0000
  C   C71       1.0  0.58303  0.08270  0.25680  1.0000
  C   C72       1.0  0.91697  0.91730  0.75680  1.0000
  C   C73       1.0  0.60737  0.36620  0.79407  1.0000
  C   C74       1.0  0.89263  0.63380  0.29407  1.0000
  C   C75       1.0  0.39263  0.86620  0.70593  1.0000
  C   C76       1.0  0.10737  0.13380  0.20593  1.0000
  C   C77       1.0  0.39263  0.63380  0.20593  1.0000
  C   C78       1.0  0.10737  0.36620  0.70593  1.0000
  C   C79       1.0  0.60737  0.13380  0.29407  1.0000
  C   C80       1.0  0.89263  0.86620  0.79407  1.0000
  C   C81       1.0  0.65918  0.27810  0.79424  1.0000
  C   C82       1.0  0.84082  0.72190  0.29424  1.0000
  C   C83       1.0  0.34082  0.77810  0.70576  1.0000
  C   C84       1.0  0.15918  0.22190  0.20576  1.0000
  C   C85       1.0  0.34082  0.72190  0.20576  1.0000
  C   C86       1.0  0.15918  0.27810  0.70576  1.0000
  C   C87       1.0  0.65918  0.22190  0.29424  1.0000
  C   C88       1.0  0.84082  0.77810  0.79424  1.0000
  C   C89       1.0  0.68719  0.23720  0.75669  1.0000
  C   C90       1.0  0.81281  0.76280  0.25669  1.0000
  C   C91       1.0  0.31281  0.73720  0.74331  1.0000
  C   C92       1.0  0.18719  0.26280  0.24331  1.0000
  C   C93       1.0  0.31281  0.76280  0.24331  1.0000
  C   C94       1.0  0.18719  0.23720  0.74331  1.0000
  C   C95       1.0  0.68719  0.26280  0.25669  1.0000
  C   C96       1.0  0.81281  0.73720  0.75669  1.0000
  C   C97       1.0  0.66282  0.28770  0.71955  1.0000
  C   C98       1.0  0.83718  0.71230  0.21955  1.0000
  C   C99       1.0  0.33718  0.78770  0.78045  1.0000
  C   C100      1.0  0.16282  0.21230  0.28045  1.0000
  C   C101      1.0  0.33718  0.71230  0.28045  1.0000
  C   C102      1.0  0.16282  0.28770  0.78045  1.0000
  C   C103      1.0  0.66282  0.21230  0.21955  1.0000
  C   C104      1.0  0.83718  0.78770  0.71955  1.0000
  C   C105      1.0  0.52842  0.51580  0.75700  1.0000
  C   C106      1.0  0.97158  0.48420  0.25700  1.0000
  C   C107      1.0  0.47158  0.01580  0.74300  1.0000
  C   C108      1.0  0.02842  0.98420  0.24300  1.0000
  C   C109      1.0  0.47158  0.48420  0.24300  1.0000
  C   C110      1.0  0.02842  0.51580  0.74300  1.0000
  C   C111      1.0  0.52842  0.98420  0.25700  1.0000
  C   C112      1.0  0.97158  0.01580  0.75700  1.0000
  H   H57       1.0  0.53217  0.57024  0.78164  1.0000
  H   H58       1.0  0.96783  0.42976  0.28164  1.0000
  H   H59       1.0  0.46783  0.07024  0.71836  1.0000
  H   H60       1.0  0.03217  0.92976  0.21836  1.0000
  H   H61       1.0  0.46783  0.42976  0.21836  1.0000
  H   H62       1.0  0.03217  0.57024  0.71836  1.0000
  H   H63       1.0  0.53217  0.92976  0.28164  1.0000
  H   H64       1.0  0.96783  0.07024  0.78164  1.0000
  H   H65       1.0  0.48620  0.47121  0.75725  1.0000
  H   H66       1.0  0.01380  0.52879  0.25725  1.0000
  H   H67       1.0  0.51380  0.97121  0.74275  1.0000
  H   H68       1.0  0.98620  0.02879  0.24275  1.0000
  H   H69       1.0  0.51380  0.52879  0.24275  1.0000
  H   H70       1.0  0.98620  0.47121  0.74275  1.0000
  H   H71       1.0  0.48620  0.02879  0.25725  1.0000
  H   H72       1.0  0.01380  0.97121  0.75725  1.0000
  H   H73       1.0  0.53154  0.56985  0.73224  1.0000
  H   H74       1.0  0.96846  0.43015  0.23224  1.0000
  H   H75       1.0  0.46846  0.06985  0.76776  1.0000
  H   H76       1.0  0.03154  0.93015  0.26776  1.0000
  H   H77       1.0  0.46846  0.43015  0.26776  1.0000
  H   H78       1.0  0.03154  0.56985  0.76776  1.0000
  H   H79       1.0  0.53154  0.93015  0.23224  1.0000
  H   H80       1.0  0.96846  0.06985  0.73224  1.0000
  C   C113      1.0  0.74287  0.14010  0.75627  1.0000
  C   C114      1.0  0.75713  0.85990  0.25627  1.0000
  C   C115      1.0  0.25713  0.64010  0.74373  1.0000
  C   C116      1.0  0.24287  0.35990  0.24373  1.0000
  C   C117      1.0  0.25713  0.85990  0.24373  1.0000
  C   C118      1.0  0.24287  0.14010  0.74373  1.0000
  C   C119      1.0  0.74287  0.35990  0.25627  1.0000
  C   C120      1.0  0.75713  0.64010  0.75627  1.0000
  H   H81       1.0  0.73780  0.08009  0.77946  1.0000
  H   H82       1.0  0.76220  0.91991  0.27946  1.0000
  H   H83       1.0  0.26220  0.58009  0.72054  1.0000
  H   H84       1.0  0.23780  0.41991  0.22054  1.0000
  H   H85       1.0  0.26220  0.91991  0.22054  1.0000
  H   H86       1.0  0.23780  0.08009  0.72054  1.0000
  H   H87       1.0  0.73780  0.41991  0.27946  1.0000
  H   H88       1.0  0.76220  0.58009  0.77946  1.0000
  H   H89       1.0  0.78461  0.18572  0.75882  1.0000
  H   H90       1.0  0.71539  0.81428  0.25882  1.0000
  H   H91       1.0  0.21539  0.68572  0.74118  1.0000
  H   H92       1.0  0.28461  0.31428  0.24118  1.0000
  H   H93       1.0  0.21539  0.81428  0.24118  1.0000
  H   H94       1.0  0.28461  0.18572  0.74118  1.0000
  H   H95       1.0  0.78461  0.31428  0.25882  1.0000
  H   H96       1.0  0.71539  0.68572  0.75882  1.0000
  H   H97       1.0  0.74208  0.09171  0.73028  1.0000
  H   H98       1.0  0.75792  0.90829  0.23028  1.0000
  H   H99       1.0  0.25792  0.59171  0.76972  1.0000
  H   H100      1.0  0.24208  0.40829  0.26972  1.0000
  H   H101      1.0  0.25792  0.90829  0.26972  1.0000
  H   H102      1.0  0.24208  0.09171  0.76972  1.0000
  H   H103      1.0  0.74208  0.40829  0.23028  1.0000
  H   H104      1.0  0.75792  0.59171  0.73028  1.0000
  C   C121      1.0  0.57625  0.40920  0.83366  1.0000
  C   C122      1.0  0.92375  0.59080  0.33366  1.0000
  C   C123      1.0  0.42375  0.90920  0.66634  1.0000
  C   C124      1.0  0.07625  0.09080  0.16634  1.0000
  C   C125      1.0  0.42375  0.59080  0.16634  1.0000
  C   C126      1.0  0.07625  0.40920  0.66634  1.0000
  C   C127      1.0  0.57625  0.09080  0.33366  1.0000
  C   C128      1.0  0.92375  0.90920  0.83366  1.0000
  C   C129      1.0  0.60370  0.50920  0.85656  1.0000
  C   C130      1.0  0.89630  0.49080  0.35656  1.0000
  C   C131      1.0  0.39630  0.00920  0.64344  1.0000
  C   C132      1.0  0.10370  0.99080  0.14344  1.0000
  C   C133      1.0  0.39630  0.49080  0.14344  1.0000
  C   C134      1.0  0.10370  0.50920  0.64344  1.0000
  C   C135      1.0  0.60370  0.99080  0.35656  1.0000
  C   C136      1.0  0.89630  0.00920  0.85656  1.0000
  H   H105      1.0  0.64376  0.54674  0.84789  1.0000
  H   H106      1.0  0.85624  0.45326  0.34789  1.0000
  H   H107      1.0  0.35624  0.04674  0.65211  1.0000
  H   H108      1.0  0.14376  0.95326  0.15211  1.0000
  H   H109      1.0  0.35624  0.45326  0.15211  1.0000
  H   H110      1.0  0.14376  0.54674  0.65211  1.0000
  H   H111      1.0  0.64376  0.95326  0.34789  1.0000
  H   H112      1.0  0.85624  0.04674  0.84789  1.0000
  C   C137      1.0  0.57301  0.55450  0.89200  1.0000
  C   C138      1.0  0.92699  0.44550  0.39200  1.0000
  C   C139      1.0  0.42699  0.05450  0.60800  1.0000
  C   C140      1.0  0.07301  0.94550  0.10800  1.0000
  C   C141      1.0  0.42699  0.44550  0.10800  1.0000
  C   C142      1.0  0.07301  0.55450  0.60800  1.0000
  C   C143      1.0  0.57301  0.94550  0.39200  1.0000
  C   C144      1.0  0.92699  0.05450  0.89200  1.0000
  H   H113      1.0  0.59213  0.62303  0.90731  1.0000
  H   H114      1.0  0.90787  0.37697  0.40731  1.0000
  H   H115      1.0  0.40787  0.12303  0.59269  1.0000
  H   H116      1.0  0.09213  0.87697  0.09269  1.0000
  H   H117      1.0  0.40787  0.37697  0.09269  1.0000
  H   H118      1.0  0.09213  0.62303  0.59269  1.0000
  H   H119      1.0  0.59213  0.87697  0.40731  1.0000
  H   H120      1.0  0.90787  0.12303  0.90731  1.0000
  C   C145      1.0  0.51421  0.49986  0.90522  1.0000
  C   C146      1.0  0.98579  0.50014  0.40522  1.0000
  C   C147      1.0  0.48579  0.99986  0.59478  1.0000
  C   C148      1.0  0.01421  0.00014  0.09478  1.0000
  C   C149      1.0  0.48579  0.50014  0.09478  1.0000
  C   C150      1.0  0.01421  0.49986  0.59478  1.0000
  C   C151      1.0  0.51421  0.00014  0.40522  1.0000
  C   C152      1.0  0.98579  0.99986  0.90522  1.0000
  C   C153      1.0  0.48634  0.40130  0.88201  1.0000
  C   C154      1.0  0.01366  0.59870  0.38201  1.0000
  C   C155      1.0  0.51366  0.90130  0.61799  1.0000
  C   C156      1.0  0.98634  0.09870  0.11799  1.0000
  C   C157      1.0  0.51366  0.59870  0.11799  1.0000
  C   C158      1.0  0.98634  0.40130  0.61799  1.0000
  C   C159      1.0  0.48634  0.09870  0.38201  1.0000
  C   C160      1.0  0.01366  0.90130  0.88201  1.0000
  H   H121      1.0  0.44588  0.36464  0.89033  1.0000
  H   H122      1.0  0.05412  0.63536  0.39033  1.0000
  H   H123      1.0  0.55412  0.86464  0.60967  1.0000
  H   H124      1.0  0.94588  0.13536  0.10967  1.0000
  H   H125      1.0  0.55412  0.63536  0.10967  1.0000
  H   H126      1.0  0.94588  0.36464  0.60967  1.0000
  H   H127      1.0  0.44588  0.13536  0.39033  1.0000
  H   H128      1.0  0.05412  0.86464  0.89033  1.0000
  C   C161      1.0  0.51737  0.35620  0.84669  1.0000
  C   C162      1.0  0.98263  0.64380  0.34669  1.0000
  C   C163      1.0  0.48263  0.85620  0.65331  1.0000
  C   C164      1.0  0.01737  0.14380  0.15331  1.0000
  C   C165      1.0  0.48263  0.64380  0.15331  1.0000
  C   C166      1.0  0.01737  0.35620  0.65331  1.0000
  C   C167      1.0  0.51737  0.14380  0.34669  1.0000
  C   C168      1.0  0.98263  0.85620  0.84669  1.0000
  H   H129      1.0  0.49808  0.28813  0.83125  1.0000
  H   H130      1.0  0.00192  0.71187  0.33125  1.0000
  H   H131      1.0  0.50192  0.78813  0.66875  1.0000
  H   H132      1.0  0.99808  0.21187  0.16875  1.0000
  H   H133      1.0  0.50192  0.71187  0.16875  1.0000
  H   H134      1.0  0.99808  0.28813  0.66875  1.0000
  H   H135      1.0  0.49808  0.21187  0.33125  1.0000
  H   H136      1.0  0.00192  0.78813  0.83125  1.0000
  C   C169      1.0  0.48285  0.54271  0.94492  1.0000
  C   C170      1.0  0.01715  0.45729  0.44492  1.0000
  C   C171      1.0  0.51715  0.04271  0.55508  1.0000
  C   C172      1.0  0.98285  0.95729  0.05508  1.0000
  C   C173      1.0  0.51715  0.45729  0.05508  1.0000
  C   C174      1.0  0.98285  0.54271  0.55508  1.0000
  C   C175      1.0  0.48285  0.95729  0.44492  1.0000
  C   C176      1.0  0.01715  0.04271  0.94492  1.0000
  C   C177      1.0  0.68449  0.22410  0.83415  1.0000
  C   C178      1.0  0.81551  0.77590  0.33415  1.0000
  C   C179      1.0  0.31551  0.72410  0.66585  1.0000
  C   C180      1.0  0.18449  0.27590  0.16585  1.0000
  C   C181      1.0  0.31551  0.77590  0.16585  1.0000
  C   C182      1.0  0.18449  0.22410  0.66585  1.0000
  C   C183      1.0  0.68449  0.27590  0.33415  1.0000
  C   C184      1.0  0.81551  0.72410  0.83415  1.0000
  C   C185      1.0  0.65328  0.12030  0.85305  1.0000
  C   C186      1.0  0.84672  0.87970  0.35305  1.0000
  C   C187      1.0  0.34672  0.62030  0.64695  1.0000
  C   C188      1.0  0.15328  0.37970  0.14695  1.0000
  C   C189      1.0  0.34672  0.87970  0.14695  1.0000
  C   C190      1.0  0.15328  0.12030  0.64695  1.0000
  C   C191      1.0  0.65328  0.37970  0.35305  1.0000
  C   C192      1.0  0.84672  0.62030  0.85305  1.0000
  H   H137      1.0  0.61495  0.08502  0.84096  1.0000
  H   H138      1.0  0.88505  0.91498  0.34096  1.0000
  H   H139      1.0  0.38505  0.58502  0.65904  1.0000
  H   H140      1.0  0.11495  0.41498  0.15904  1.0000
  H   H141      1.0  0.38505  0.91498  0.15904  1.0000
  H   H142      1.0  0.11495  0.08502  0.65904  1.0000
  H   H143      1.0  0.61495  0.41498  0.34096  1.0000
  H   H144      1.0  0.88505  0.58502  0.84096  1.0000
  C   C193      1.0  0.67761  0.06770  0.88948  1.0000
  C   C194      1.0  0.82239  0.93230  0.38948  1.0000
  C   C195      1.0  0.32239  0.56770  0.61052  1.0000
  C   C196      1.0  0.17761  0.43230  0.11052  1.0000
  C   C197      1.0  0.32239  0.93230  0.11052  1.0000
  C   C198      1.0  0.17761  0.06770  0.61052  1.0000
  C   C199      1.0  0.67761  0.43230  0.38948  1.0000
  C   C200      1.0  0.82239  0.56770  0.88948  1.0000
  H   H145      1.0  0.65546  0.99733  0.90206  1.0000
  H   H146      1.0  0.84454  0.00267  0.40206  1.0000
  H   H147      1.0  0.34454  0.49733  0.59794  1.0000
  H   H148      1.0  0.15546  0.50267  0.09794  1.0000
  H   H149      1.0  0.34454  0.00267  0.09794  1.0000
  H   H150      1.0  0.15546  0.99733  0.59794  1.0000
  H   H151      1.0  0.65546  0.50267  0.40206  1.0000
  H   H152      1.0  0.84454  0.49733  0.90206  1.0000
  C   C201      1.0  0.73411  0.11685  0.90775  1.0000
  C   C202      1.0  0.76589  0.88315  0.40775  1.0000
  C   C203      1.0  0.26589  0.61685  0.59225  1.0000
  C   C204      1.0  0.23411  0.38315  0.09225  1.0000
  C   C205      1.0  0.26589  0.88315  0.09225  1.0000
  C   C206      1.0  0.23411  0.11685  0.59225  1.0000
  C   C207      1.0  0.73411  0.38315  0.40775  1.0000
  C   C208      1.0  0.76589  0.61685  0.90775  1.0000
  C   C209      1.0  0.76504  0.22110  0.88912  1.0000
  C   C210      1.0  0.73496  0.77890  0.38912  1.0000
  C   C211      1.0  0.23496  0.72110  0.61088  1.0000
  C   C212      1.0  0.26504  0.27890  0.11088  1.0000
  C   C213      1.0  0.23496  0.77890  0.11088  1.0000
  C   C214      1.0  0.26504  0.22110  0.61088  1.0000
  C   C215      1.0  0.76504  0.27890  0.38912  1.0000
  C   C216      1.0  0.73496  0.72110  0.88912  1.0000
  H   H153      1.0  0.80322  0.25664  0.90133  1.0000
  H   H154      1.0  0.69678  0.74336  0.40133  1.0000
  H   H155      1.0  0.19678  0.75664  0.59867  1.0000
  H   H156      1.0  0.30322  0.24336  0.09867  1.0000
  H   H157      1.0  0.19678  0.74336  0.09867  1.0000
  H   H158      1.0  0.30322  0.25664  0.59867  1.0000
  H   H159      1.0  0.80322  0.24336  0.40133  1.0000
  H   H160      1.0  0.69678  0.75664  0.90133  1.0000
  C   C217      1.0  0.74066  0.27390  0.85276  1.0000
  C   C218      1.0  0.75934  0.72610  0.35276  1.0000
  C   C219      1.0  0.25934  0.77390  0.64724  1.0000
  C   C220      1.0  0.24066  0.22610  0.14724  1.0000
  C   C221      1.0  0.25934  0.72610  0.14724  1.0000
  C   C222      1.0  0.24066  0.27390  0.64724  1.0000
  C   C223      1.0  0.74066  0.22610  0.35276  1.0000
  C   C224      1.0  0.75934  0.77390  0.85276  1.0000
  H   H161      1.0  0.76257  0.34491  0.84039  1.0000
  H   H162      1.0  0.73743  0.65509  0.34039  1.0000
  H   H163      1.0  0.23743  0.84491  0.65961  1.0000
  H   H164      1.0  0.26257  0.15509  0.15961  1.0000
  H   H165      1.0  0.23743  0.65509  0.15961  1.0000
  H   H166      1.0  0.26257  0.34491  0.65961  1.0000
  H   H167      1.0  0.76257  0.15509  0.34039  1.0000
  H   H168      1.0  0.73743  0.84491  0.84039  1.0000
  C   C225      1.0  0.75966  0.06423  0.94830  1.0000
  C   C226      1.0  0.74034  0.93577  0.44830  1.0000
  C   C227      1.0  0.24034  0.56423  0.55170  1.0000
  C   C228      1.0  0.25966  0.43577  0.05170  1.0000
  C   C229      1.0  0.24034  0.93577  0.05170  1.0000
  C   C230      1.0  0.25966  0.06423  0.55170  1.0000
  C   C231      1.0  0.75966  0.43577  0.44830  1.0000
  C   C232      1.0  0.74034  0.56423  0.94830  1.0000
  C   C233      1.0  0.69103  0.24830  0.67876  1.0000
  C   C234      1.0  0.80897  0.75170  0.17876  1.0000
  C   C235      1.0  0.30897  0.74830  0.82124  1.0000
  C   C236      1.0  0.19103  0.25170  0.32124  1.0000
  C   C237      1.0  0.30897  0.75170  0.32124  1.0000
  C   C238      1.0  0.19103  0.24830  0.82124  1.0000
  C   C239      1.0  0.69103  0.25170  0.17876  1.0000
  C   C240      1.0  0.80897  0.74830  0.67876  1.0000
  C   C241      1.0  0.66220  0.14980  0.65578  1.0000
  C   C242      1.0  0.83780  0.85020  0.15578  1.0000
  C   C243      1.0  0.33780  0.64980  0.84422  1.0000
  C   C244      1.0  0.16220  0.35020  0.34422  1.0000
  C   C245      1.0  0.33780  0.85020  0.34422  1.0000
  C   C246      1.0  0.16220  0.14980  0.84422  1.0000
  C   C247      1.0  0.66220  0.35020  0.15578  1.0000
  C   C248      1.0  0.83780  0.64980  0.65578  1.0000
  H   H169      1.0  0.62617  0.10347  0.66684  1.0000
  H   H170      1.0  0.87383  0.89653  0.16684  1.0000
  H   H171      1.0  0.37383  0.60347  0.83316  1.0000
  H   H172      1.0  0.12617  0.39653  0.33316  1.0000
  H   H173      1.0  0.37383  0.89653  0.33316  1.0000
  H   H174      1.0  0.12617  0.10347  0.83316  1.0000
  H   H175      1.0  0.62617  0.39653  0.16684  1.0000
  H   H176      1.0  0.87383  0.60347  0.66684  1.0000
  C   C249      1.0  0.68582  0.11890  0.61672  1.0000
  C   C250      1.0  0.81418  0.88110  0.11672  1.0000
  C   C251      1.0  0.31418  0.61890  0.88328  1.0000
  C   C252      1.0  0.18582  0.38110  0.38328  1.0000
  C   C253      1.0  0.31418  0.88110  0.38328  1.0000
  C   C254      1.0  0.18582  0.11890  0.88328  1.0000
  C   C255      1.0  0.68582  0.38110  0.11672  1.0000
  C   C256      1.0  0.81418  0.61890  0.61672  1.0000
  H   H177      1.0  0.66601  0.05158  0.60125  1.0000
  H   H178      1.0  0.83399  0.94842  0.10125  1.0000
  H   H179      1.0  0.33399  0.55158  0.89875  1.0000
  H   H180      1.0  0.16601  0.44842  0.39875  1.0000
  H   H181      1.0  0.33399  0.94842  0.39875  1.0000
  H   H182      1.0  0.16601  0.05158  0.89875  1.0000
  H   H183      1.0  0.66601  0.44842  0.10125  1.0000
  H   H184      1.0  0.83399  0.55158  0.60125  1.0000
  C   C257      1.0  0.73859  0.18690  0.60033  1.0000
  C   C258      1.0  0.76141  0.81310  0.10033  1.0000
  C   C259      1.0  0.26141  0.68690  0.89967  1.0000
  C   C260      1.0  0.23859  0.31310  0.39967  1.0000
  C   C261      1.0  0.26141  0.81310  0.39967  1.0000
  C   C262      1.0  0.23859  0.18690  0.89967  1.0000
  C   C263      1.0  0.73859  0.31310  0.10033  1.0000
  C   C264      1.0  0.76141  0.68690  0.60033  1.0000
  C   C265      1.0  0.76702  0.28580  0.62304  1.0000
  C   C266      1.0  0.73298  0.71420  0.12304  1.0000
  C   C267      1.0  0.23298  0.78580  0.87696  1.0000
  C   C268      1.0  0.26702  0.21420  0.37696  1.0000
  C   C269      1.0  0.23298  0.71420  0.37696  1.0000
  C   C270      1.0  0.26702  0.28580  0.87696  1.0000
  C   C271      1.0  0.76702  0.21420  0.12304  1.0000
  C   C272      1.0  0.73298  0.78580  0.62304  1.0000
  H   H185      1.0  0.80250  0.33327  0.61176  1.0000
  H   H186      1.0  0.69750  0.66673  0.11176  1.0000
  H   H187      1.0  0.19750  0.83327  0.88824  1.0000
  H   H188      1.0  0.30250  0.16673  0.38824  1.0000
  H   H189      1.0  0.19750  0.66673  0.38824  1.0000
  H   H190      1.0  0.30250  0.33327  0.88824  1.0000
  H   H191      1.0  0.80250  0.16673  0.11176  1.0000
  H   H192      1.0  0.69750  0.83327  0.61176  1.0000
  C   C273      1.0  0.74385  0.31550  0.66210  1.0000
  C   C274      1.0  0.75615  0.68450  0.16210  1.0000
  C   C275      1.0  0.25615  0.81550  0.83790  1.0000
  C   C276      1.0  0.24385  0.18450  0.33790  1.0000
  C   C277      1.0  0.25615  0.68450  0.33790  1.0000
  C   C278      1.0  0.24385  0.31550  0.83790  1.0000
  C   C279      1.0  0.74385  0.18450  0.16210  1.0000
  C   C280      1.0  0.75615  0.81550  0.66210  1.0000
  H   H193      1.0  0.76411  0.38225  0.67763  1.0000
  H   H194      1.0  0.73589  0.61775  0.17763  1.0000
  H   H195      1.0  0.23589  0.88225  0.82237  1.0000
  H   H196      1.0  0.26411  0.11775  0.32237  1.0000
  H   H197      1.0  0.23589  0.61775  0.32237  1.0000
  H   H198      1.0  0.26411  0.38225  0.82237  1.0000
  H   H199      1.0  0.76411  0.11775  0.17763  1.0000
  H   H200      1.0  0.73589  0.88225  0.67763  1.0000
  C   C281      1.0  0.76408  0.15908  0.55784  1.0000
  C   C282      1.0  0.73592  0.84092  0.05784  1.0000
  C   C283      1.0  0.23592  0.65908  0.94216  1.0000
  C   C284      1.0  0.26408  0.34092  0.44216  1.0000
  C   C285      1.0  0.23592  0.84092  0.44216  1.0000
  C   C286      1.0  0.26408  0.15908  0.94216  1.0000
  C   C287      1.0  0.76408  0.34092  0.05784  1.0000
  C   C288      1.0  0.73592  0.65908  0.55784  1.0000
