data_image0
_chemical_formula_structural       Mn4O8H16O24H8O24C8H8C8H8C16H8C8H8C32H8C8H8C16H8C16N8
_chemical_formula_sum              "Mn4 O56 H80 C112 N8"
_cell_length_a       15.0525
_cell_length_b       11.6831
_cell_length_c       25.762
_cell_angle_alpha    90
_cell_angle_beta     99.408
_cell_angle_gamma    90

_space_group_name_H-M_alt    "P 1"
_space_group_IT_number       1

loop_
  _space_group_symop_operation_xyz
  'x, y, z'

loop_
  _atom_site_type_symbol
  _atom_site_label
  _atom_site_symmetry_multiplicity
  _atom_site_fract_x
  _atom_site_fract_y
  _atom_site_fract_z
  _atom_site_occupancy
  Mn  Mn1       1.0  0.00000  0.08850  0.75000  1.0000
  Mn  Mn2       1.0  0.50000  0.58850  0.75000  1.0000
  Mn  Mn3       1.0  0.00000  0.91150  0.25000  1.0000
  Mn  Mn4       1.0  0.50000  0.41150  0.25000  1.0000
  O   O1        1.0  0.89841  0.08095  0.80171  1.0000
  O   O2        1.0  0.10159  0.08095  0.69829  1.0000
  O   O3        1.0  0.39841  0.58095  0.80171  1.0000
  O   O4        1.0  0.60159  0.58095  0.69829  1.0000
  O   O5        1.0  0.10159  0.91905  0.19829  1.0000
  O   O6        1.0  0.89841  0.91905  0.30171  1.0000
  O   O7        1.0  0.60159  0.41905  0.19829  1.0000
  O   O8        1.0  0.39841  0.41905  0.30171  1.0000
  H   H1        1.0  0.84270  0.08670  0.77910  1.0000
  H   H2        1.0  0.15730  0.08670  0.72090  1.0000
  H   H3        1.0  0.34270  0.58670  0.77910  1.0000
  H   H4        1.0  0.65730  0.58670  0.72090  1.0000
  H   H5        1.0  0.15730  0.91330  0.22090  1.0000
  H   H6        1.0  0.84270  0.91330  0.27910  1.0000
  H   H7        1.0  0.65730  0.41330  0.22090  1.0000
  H   H8        1.0  0.34270  0.41330  0.27910  1.0000
  H   H9        1.0  0.90170  0.13440  0.82880  1.0000
  H   H10       1.0  0.09830  0.13440  0.67120  1.0000
  H   H11       1.0  0.40170  0.63440  0.82880  1.0000
  H   H12       1.0  0.59830  0.63440  0.67120  1.0000
  H   H13       1.0  0.09830  0.86560  0.17120  1.0000
  H   H14       1.0  0.90170  0.86560  0.32880  1.0000
  H   H15       1.0  0.59830  0.36560  0.17120  1.0000
  H   H16       1.0  0.40170  0.36560  0.32880  1.0000
  O   O9        1.0  0.11111  0.09097  0.81515  1.0000
  O   O10       1.0  0.88889  0.09097  0.68485  1.0000
  O   O11       1.0  0.61111  0.59097  0.81515  1.0000
  O   O12       1.0  0.38889  0.59097  0.68485  1.0000
  O   O13       1.0  0.88889  0.90903  0.18485  1.0000
  O   O14       1.0  0.11111  0.90903  0.31515  1.0000
  O   O15       1.0  0.38889  0.40903  0.18485  1.0000
  O   O16       1.0  0.61111  0.40903  0.31515  1.0000
  O   O17       1.0  0.23545  0.09065  0.77775  1.0000
  O   O18       1.0  0.76455  0.09065  0.72225  1.0000
  O   O19       1.0  0.73545  0.59065  0.77775  1.0000
  O   O20       1.0  0.26455  0.59065  0.72225  1.0000
  O   O21       1.0  0.76455  0.90935  0.22225  1.0000
  O   O22       1.0  0.23545  0.90935  0.27775  1.0000
  O   O23       1.0  0.26455  0.40935  0.22225  1.0000
  O   O24       1.0  0.73545  0.40935  0.27775  1.0000
  O   O25       1.0  0.21375  0.28338  0.87906  1.0000
  O   O26       1.0  0.78625  0.28338  0.62094  1.0000
  O   O27       1.0  0.71375  0.78338  0.87906  1.0000
  O   O28       1.0  0.28625  0.78338  0.62094  1.0000
  O   O29       1.0  0.78625  0.71662  0.12094  1.0000
  O   O30       1.0  0.21375  0.71662  0.37906  1.0000
  O   O31       1.0  0.28625  0.21662  0.12094  1.0000
  O   O32       1.0  0.71375  0.21662  0.37906  1.0000
  H   H17       1.0  0.18110  0.35270  0.88080  1.0000
  H   H18       1.0  0.81890  0.35270  0.61920  1.0000
  H   H19       1.0  0.68110  0.85270  0.88080  1.0000
  H   H20       1.0  0.31890  0.85270  0.61920  1.0000
  H   H21       1.0  0.81890  0.64730  0.11920  1.0000
  H   H22       1.0  0.18110  0.64730  0.38080  1.0000
  H   H23       1.0  0.31890  0.14730  0.11920  1.0000
  H   H24       1.0  0.68110  0.14730  0.38080  1.0000
  O   O33       1.0  0.15579  0.23823  0.95098  1.0000
  O   O34       1.0  0.84421  0.23823  0.54902  1.0000
  O   O35       1.0  0.65579  0.73823  0.95098  1.0000
  O   O36       1.0  0.34421  0.73823  0.54902  1.0000
  O   O37       1.0  0.84421  0.76177  0.04902  1.0000
  O   O38       1.0  0.15579  0.76177  0.45098  1.0000
  O   O39       1.0  0.34421  0.26177  0.04902  1.0000
  O   O40       1.0  0.65579  0.26177  0.45098  1.0000
  O   O41       1.0  0.40350  0.74555  0.87461  1.0000
  O   O42       1.0  0.59650  0.74555  0.62539  1.0000
  O   O43       1.0  0.90350  0.24555  0.87461  1.0000
  O   O44       1.0  0.09650  0.24555  0.62539  1.0000
  O   O45       1.0  0.59650  0.25445  0.12539  1.0000
  O   O46       1.0  0.40350  0.25445  0.37461  1.0000
  O   O47       1.0  0.09650  0.75445  0.12539  1.0000
  O   O48       1.0  0.90350  0.75445  0.37461  1.0000
  O   O49       1.0  0.38195  0.71312  0.95673  1.0000
  O   O50       1.0  0.61805  0.71312  0.54327  1.0000
  O   O51       1.0  0.88195  0.21312  0.95673  1.0000
  O   O52       1.0  0.11805  0.21312  0.54327  1.0000
  O   O53       1.0  0.61805  0.28688  0.04327  1.0000
  O   O54       1.0  0.38195  0.28688  0.45673  1.0000
  O   O55       1.0  0.11805  0.78688  0.04327  1.0000
  O   O56       1.0  0.88195  0.78688  0.45673  1.0000
  C   C1        1.0  0.92339  0.34330  0.74580  1.0000
  C   C2        1.0  0.07661  0.34330  0.75420  1.0000
  C   C3        1.0  0.42339  0.84330  0.74580  1.0000
  C   C4        1.0  0.57661  0.84330  0.75420  1.0000
  C   C5        1.0  0.07661  0.65670  0.25420  1.0000
  C   C6        1.0  0.92339  0.65670  0.24580  1.0000
  C   C7        1.0  0.57661  0.15670  0.25420  1.0000
  C   C8        1.0  0.42339  0.15670  0.24580  1.0000
  H   H25       1.0  0.86810  0.30250  0.74230  1.0000
  H   H26       1.0  0.13190  0.30250  0.75770  1.0000
  H   H27       1.0  0.36810  0.80250  0.74230  1.0000
  H   H28       1.0  0.63190  0.80250  0.75770  1.0000
  H   H29       1.0  0.13190  0.69750  0.25770  1.0000
  H   H30       1.0  0.86810  0.69750  0.24230  1.0000
  H   H31       1.0  0.63190  0.19750  0.25770  1.0000
  H   H32       1.0  0.36810  0.19750  0.24230  1.0000
  C   C9        1.0  0.92042  0.46135  0.74625  1.0000
  C   C10       1.0  0.07958  0.46135  0.75375  1.0000
  C   C11       1.0  0.42042  0.96135  0.74625  1.0000
  C   C12       1.0  0.57958  0.96135  0.75375  1.0000
  C   C13       1.0  0.07958  0.53865  0.25375  1.0000
  C   C14       1.0  0.92042  0.53865  0.24625  1.0000
  C   C15       1.0  0.57958  0.03865  0.25375  1.0000
  C   C16       1.0  0.42042  0.03865  0.24625  1.0000
  H   H33       1.0  0.86440  0.50000  0.74400  1.0000
  H   H34       1.0  0.13560  0.50000  0.75600  1.0000
  H   H35       1.0  0.36440  0.00000  0.74400  1.0000
  H   H36       1.0  0.63560  0.00000  0.75600  1.0000
  H   H37       1.0  0.13560  0.50000  0.25600  1.0000
  H   H38       1.0  0.86440  0.50000  0.24400  1.0000
  H   H39       1.0  0.63560  1.00000  0.25600  1.0000
  H   H40       1.0  0.36440  1.00000  0.24400  1.0000
  C   C17       1.0  0.00000  0.52330  0.75000  1.0000
  C   C18       1.0  0.50000  0.02330  0.75000  1.0000
  C   C19       1.0  0.00000  0.47670  0.25000  1.0000
  C   C20       1.0  0.50000  0.97670  0.25000  1.0000
  C   C21       1.0  0.00000  0.65060  0.75000  1.0000
  C   C22       1.0  0.50000  0.15060  0.75000  1.0000
  C   C23       1.0  0.00000  0.34940  0.25000  1.0000
  C   C24       1.0  0.50000  0.84940  0.25000  1.0000
  C   C25       1.0  0.93029  0.71303  0.76571  1.0000
  C   C26       1.0  0.06971  0.71303  0.73429  1.0000
  C   C27       1.0  0.43029  0.21303  0.76571  1.0000
  C   C28       1.0  0.56971  0.21303  0.73429  1.0000
  C   C29       1.0  0.06971  0.28697  0.23429  1.0000
  C   C30       1.0  0.93029  0.28697  0.26571  1.0000
  C   C31       1.0  0.56971  0.78697  0.23429  1.0000
  C   C32       1.0  0.43029  0.78697  0.26571  1.0000
  H   H41       1.0  0.88090  0.67470  0.77670  1.0000
  H   H42       1.0  0.11910  0.67470  0.72330  1.0000
  H   H43       1.0  0.38090  0.17470  0.77670  1.0000
  H   H44       1.0  0.61910  0.17470  0.72330  1.0000
  H   H45       1.0  0.11910  0.32530  0.22330  1.0000
  H   H46       1.0  0.88090  0.32530  0.27670  1.0000
  H   H47       1.0  0.61910  0.82530  0.22330  1.0000
  H   H48       1.0  0.38090  0.82530  0.27670  1.0000
  C   C33       1.0  0.93341  0.83112  0.76516  1.0000
  C   C34       1.0  0.06659  0.83112  0.73484  1.0000
  C   C35       1.0  0.43341  0.33112  0.76516  1.0000
  C   C36       1.0  0.56659  0.33112  0.73484  1.0000
  C   C37       1.0  0.06659  0.16888  0.23484  1.0000
  C   C38       1.0  0.93341  0.16888  0.26516  1.0000
  C   C39       1.0  0.56659  0.66888  0.23484  1.0000
  C   C40       1.0  0.43341  0.66888  0.26516  1.0000
  H   H49       1.0  0.88520  0.87200  0.77620  1.0000
  H   H50       1.0  0.11480  0.87200  0.72380  1.0000
  H   H51       1.0  0.38520  0.37200  0.77620  1.0000
  H   H52       1.0  0.61480  0.37200  0.72380  1.0000
  H   H53       1.0  0.11480  0.12800  0.22380  1.0000
  H   H54       1.0  0.88520  0.12800  0.27620  1.0000
  H   H55       1.0  0.61480  0.62800  0.22380  1.0000
  H   H56       1.0  0.38520  0.62800  0.27620  1.0000
  C   C41       1.0  0.19468  0.08025  0.81586  1.0000
  C   C42       1.0  0.80532  0.08025  0.68414  1.0000
  C   C43       1.0  0.69468  0.58025  0.81586  1.0000
  C   C44       1.0  0.30532  0.58025  0.68414  1.0000
  C   C45       1.0  0.80532  0.91975  0.18414  1.0000
  C   C46       1.0  0.19468  0.91975  0.31586  1.0000
  C   C47       1.0  0.30532  0.41975  0.18414  1.0000
  C   C48       1.0  0.69468  0.41975  0.31586  1.0000
  C   C49       1.0  0.24807  0.04265  0.86786  1.0000
  C   C50       1.0  0.75193  0.04265  0.63214  1.0000
  C   C51       1.0  0.74807  0.54265  0.86786  1.0000
  C   C52       1.0  0.25193  0.54265  0.63214  1.0000
  C   C53       1.0  0.75193  0.95735  0.13214  1.0000
  C   C54       1.0  0.24807  0.95735  0.36786  1.0000
  C   C55       1.0  0.25193  0.45735  0.13214  1.0000
  C   C56       1.0  0.74807  0.45735  0.36786  1.0000
  C   C57       1.0  0.24511  0.10027  0.91533  1.0000
  C   C58       1.0  0.75489  0.10027  0.58467  1.0000
  C   C59       1.0  0.74511  0.60027  0.91533  1.0000
  C   C60       1.0  0.25489  0.60027  0.58467  1.0000
  C   C61       1.0  0.75489  0.89973  0.08467  1.0000
  C   C62       1.0  0.24511  0.89973  0.41533  1.0000
  C   C63       1.0  0.25489  0.39973  0.08467  1.0000
  C   C64       1.0  0.74511  0.39973  0.41533  1.0000
  C   C65       1.0  0.28566  0.05178  0.96269  1.0000
  C   C66       1.0  0.71434  0.05178  0.53731  1.0000
  C   C67       1.0  0.78566  0.55178  0.96269  1.0000
  C   C68       1.0  0.21434  0.55178  0.53731  1.0000
  C   C69       1.0  0.71434  0.94822  0.03731  1.0000
  C   C70       1.0  0.28566  0.94822  0.46269  1.0000
  C   C71       1.0  0.21434  0.44822  0.03731  1.0000
  C   C72       1.0  0.78566  0.44822  0.46269  1.0000
  H   H57       1.0  0.28460  0.09160  0.99470  1.0000
  H   H58       1.0  0.71540  0.09160  0.50530  1.0000
  H   H59       1.0  0.78460  0.59160  0.99470  1.0000
  H   H60       1.0  0.21540  0.59160  0.50530  1.0000
  H   H61       1.0  0.71540  0.90840  0.00530  1.0000
  H   H62       1.0  0.28460  0.90840  0.49470  1.0000
  H   H63       1.0  0.21540  0.40840  0.00530  1.0000
  H   H64       1.0  0.78460  0.40840  0.49470  1.0000
  C   C73       1.0  0.32763  0.94596  0.96357  1.0000
  C   C74       1.0  0.67237  0.94596  0.53643  1.0000
  C   C75       1.0  0.82763  0.44596  0.96357  1.0000
  C   C76       1.0  0.17237  0.44596  0.53643  1.0000
  C   C77       1.0  0.67237  0.05404  0.03643  1.0000
  C   C78       1.0  0.32763  0.05404  0.46357  1.0000
  C   C79       1.0  0.17237  0.55404  0.03643  1.0000
  C   C80       1.0  0.82763  0.55404  0.46357  1.0000
  H   H65       1.0  0.35290  0.91210  0.99620  1.0000
  H   H66       1.0  0.64710  0.91210  0.50380  1.0000
  H   H67       1.0  0.85290  0.41210  0.99620  1.0000
  H   H68       1.0  0.14710  0.41210  0.50380  1.0000
  H   H69       1.0  0.64710  0.08790  0.00380  1.0000
  H   H70       1.0  0.35290  0.08790  0.49620  1.0000
  H   H71       1.0  0.14710  0.58790  0.00380  1.0000
  H   H72       1.0  0.85290  0.58790  0.49620  1.0000
  C   C81       1.0  0.33256  0.88952  0.91669  1.0000
  C   C82       1.0  0.66744  0.88952  0.58331  1.0000
  C   C83       1.0  0.83256  0.38952  0.91669  1.0000
  C   C84       1.0  0.16744  0.38952  0.58331  1.0000
  C   C85       1.0  0.66744  0.11048  0.08331  1.0000
  C   C86       1.0  0.33256  0.11048  0.41669  1.0000
  C   C87       1.0  0.16744  0.61048  0.08331  1.0000
  C   C88       1.0  0.83256  0.61048  0.41669  1.0000
  C   C89       1.0  0.29378  0.93949  0.86918  1.0000
  C   C90       1.0  0.70622  0.93949  0.63082  1.0000
  C   C91       1.0  0.79378  0.43949  0.86918  1.0000
  C   C92       1.0  0.20622  0.43949  0.63082  1.0000
  C   C93       1.0  0.70622  0.06051  0.13082  1.0000
  C   C94       1.0  0.29378  0.06051  0.36918  1.0000
  C   C95       1.0  0.20622  0.56051  0.13082  1.0000
  C   C96       1.0  0.79378  0.56051  0.36918  1.0000
  H   H73       1.0  0.29880  0.90200  0.83710  1.0000
  H   H74       1.0  0.70120  0.90200  0.66290  1.0000
  H   H75       1.0  0.79880  0.40200  0.83710  1.0000
  H   H76       1.0  0.20120  0.40200  0.66290  1.0000
  H   H77       1.0  0.70120  0.09800  0.16290  1.0000
  H   H78       1.0  0.29880  0.09800  0.33710  1.0000
  H   H79       1.0  0.20120  0.59800  0.16290  1.0000
  H   H80       1.0  0.79880  0.59800  0.33710  1.0000
  C   C97       1.0  0.19952  0.21370  0.91692  1.0000
  C   C98       1.0  0.80048  0.21370  0.58308  1.0000
  C   C99       1.0  0.69952  0.71370  0.91692  1.0000
  C   C100      1.0  0.30048  0.71370  0.58308  1.0000
  C   C101      1.0  0.80048  0.78630  0.08308  1.0000
  C   C102      1.0  0.19952  0.78630  0.41692  1.0000
  C   C103      1.0  0.30048  0.28630  0.08308  1.0000
  C   C104      1.0  0.69952  0.28630  0.41692  1.0000
  C   C105      1.0  0.37623  0.77468  0.91517  1.0000
  C   C106      1.0  0.62377  0.77468  0.58483  1.0000
  C   C107      1.0  0.87623  0.27468  0.91517  1.0000
  C   C108      1.0  0.12377  0.27468  0.58483  1.0000
  C   C109      1.0  0.62377  0.22532  0.08483  1.0000
  C   C110      1.0  0.37623  0.22532  0.41517  1.0000
  C   C111      1.0  0.12377  0.72532  0.08483  1.0000
  C   C112      1.0  0.87623  0.72532  0.41517  1.0000
  N   N1        1.0  0.00000  0.28308  0.75000  1.0000
  N   N2        1.0  0.50000  0.78308  0.75000  1.0000
  N   N3        1.0  0.00000  0.71692  0.25000  1.0000
  N   N4        1.0  0.50000  0.21692  0.25000  1.0000
  N   N5        1.0  0.00000  0.89131  0.75000  1.0000
  N   N6        1.0  0.50000  0.39131  0.75000  1.0000
  N   N7        1.0  0.00000  0.10869  0.25000  1.0000
  N   N8        1.0  0.50000  0.60869  0.25000  1.0000
