data_image0
_chemical_formula_structural       Cd3C6O6C12H6C6H6C12H6C6O18C6N6O12
_chemical_formula_sum              "Cd3 C48 O36 H18 N6"
_cell_length_a       14.218
_cell_length_b       14.218
_cell_length_c       13.0014
_cell_angle_alpha    90
_cell_angle_beta     90
_cell_angle_gamma    120

_space_group_name_H-M_alt    "P 1"
_space_group_IT_number       1

loop_
  _space_group_symop_operation_xyz
  'x, y, z'

loop_
  _atom_site_type_symbol
  _atom_site_label
  _atom_site_symmetry_multiplicity
  _atom_site_fract_x
  _atom_site_fract_y
  _atom_site_fract_z
  _atom_site_occupancy
  Cd  Cd1       1.0  0.52604  0.52604  0.00000  1.0000
  Cd  Cd2       1.0  0.47396  0.00000  0.33333  1.0000
  Cd  Cd3       1.0  0.00000  0.47396  0.66667  1.0000
  C   C1        1.0  0.52300  0.64700  0.83900  1.0000
  C   C2        1.0  0.35300  0.87600  0.17233  1.0000
  C   C3        1.0  0.12400  0.47700  0.50567  1.0000
  C   C4        1.0  0.87600  0.35300  0.82767  1.0000
  C   C5        1.0  0.47700  0.12400  0.49433  1.0000
  C   C6        1.0  0.64700  0.52300  0.16100  1.0000
  O   O1        1.0  0.43700  0.56800  0.87100  1.0000
  O   O2        1.0  0.43200  0.86900  0.20433  1.0000
  O   O3        1.0  0.13100  0.56300  0.53767  1.0000
  O   O4        1.0  0.86900  0.43200  0.79567  1.0000
  O   O5        1.0  0.56300  0.13100  0.46233  1.0000
  O   O6        1.0  0.56800  0.43700  0.12900  1.0000
  C   C7        1.0  0.51290  0.69850  0.74100  1.0000
  C   C8        1.0  0.30150  0.81440  0.07433  1.0000
  C   C9        1.0  0.18560  0.48710  0.40767  1.0000
  C   C10       1.0  0.81440  0.30150  0.92567  1.0000
  C   C11       1.0  0.48710  0.18560  0.59233  1.0000
  C   C12       1.0  0.69850  0.51290  0.25900  1.0000
  C   C13       1.0  0.42330  0.71280  0.73270  1.0000
  C   C14       1.0  0.28720  0.71050  0.06603  1.0000
  C   C15       1.0  0.28950  0.57670  0.39937  1.0000
  C   C16       1.0  0.71050  0.28720  0.93397  1.0000
  C   C17       1.0  0.57670  0.28950  0.60063  1.0000
  C   C18       1.0  0.71280  0.42330  0.26730  1.0000
  H   H1        1.0  0.37060  0.68660  0.78390  1.0000
  H   H2        1.0  0.31340  0.68400  0.11723  1.0000
  H   H3        1.0  0.31600  0.62940  0.45057  1.0000
  H   H4        1.0  0.68400  0.31340  0.88277  1.0000
  H   H5        1.0  0.62940  0.31600  0.54943  1.0000
  H   H6        1.0  0.68660  0.37060  0.21610  1.0000
  C   C19       1.0  0.41260  0.76610  0.64780  1.0000
  C   C20       1.0  0.23390  0.64650  0.98113  1.0000
  C   C21       1.0  0.35350  0.58740  0.31447  1.0000
  C   C22       1.0  0.64650  0.23390  0.01887  1.0000
  C   C23       1.0  0.58740  0.35350  0.68553  1.0000
  C   C24       1.0  0.76610  0.41260  0.35220  1.0000
  H   H7        1.0  0.35260  0.77570  0.64230  1.0000
  H   H8        1.0  0.22430  0.57690  0.97563  1.0000
  H   H9        1.0  0.42310  0.64740  0.30897  1.0000
  H   H10       1.0  0.57690  0.22430  0.02437  1.0000
  H   H11       1.0  0.64740  0.42310  0.69103  1.0000
  H   H12       1.0  0.77570  0.35260  0.35770  1.0000
  C   C25       1.0  0.49140  0.80530  0.57130  1.0000
  C   C26       1.0  0.19470  0.68610  0.90463  1.0000
  C   C27       1.0  0.31390  0.50860  0.23797  1.0000
  C   C28       1.0  0.68610  0.19470  0.09537  1.0000
  C   C29       1.0  0.50860  0.31390  0.76203  1.0000
  C   C30       1.0  0.80530  0.49140  0.42870  1.0000
  C   C31       1.0  0.58100  0.79110  0.57960  1.0000
  C   C32       1.0  0.20890  0.78990  0.91293  1.0000
  C   C33       1.0  0.21010  0.41900  0.24627  1.0000
  C   C34       1.0  0.78990  0.20890  0.08707  1.0000
  C   C35       1.0  0.41900  0.21010  0.75373  1.0000
  C   C36       1.0  0.79110  0.58100  0.42040  1.0000
  H   H13       1.0  0.63370  0.81730  0.52840  1.0000
  H   H14       1.0  0.18270  0.81640  0.86173  1.0000
  H   H15       1.0  0.18360  0.36630  0.19507  1.0000
  H   H16       1.0  0.81640  0.18270  0.13827  1.0000
  H   H17       1.0  0.36630  0.18360  0.80493  1.0000
  H   H18       1.0  0.81730  0.63370  0.47160  1.0000
  C   C37       1.0  0.59170  0.73800  0.66440  1.0000
  C   C38       1.0  0.26200  0.85370  0.99773  1.0000
  C   C39       1.0  0.14630  0.40830  0.33107  1.0000
  C   C40       1.0  0.85370  0.26200  0.00227  1.0000
  C   C41       1.0  0.40830  0.14630  0.66893  1.0000
  C   C42       1.0  0.73800  0.59170  0.33560  1.0000
  O   O7        1.0  0.61800  0.68600  0.88010  1.0000
  O   O8        1.0  0.31400  0.93200  0.21343  1.0000
  O   O9        1.0  0.06800  0.38200  0.54677  1.0000
  O   O10       1.0  0.93200  0.31400  0.78657  1.0000
  O   O11       1.0  0.38200  0.06800  0.45323  1.0000
  O   O12       1.0  0.68600  0.61800  0.11990  1.0000
  O   O13       1.0  0.39230  0.85950  0.46450  1.0000
  O   O14       1.0  0.14050  0.53280  0.79783  1.0000
  O   O15       1.0  0.46720  0.60770  0.13117  1.0000
  O   O16       1.0  0.53280  0.14050  0.20217  1.0000
  O   O17       1.0  0.60770  0.46720  0.86883  1.0000
  O   O18       1.0  0.85950  0.39230  0.53550  1.0000
  O   O19       1.0  0.55700  0.92200  0.42880  1.0000
  O   O20       1.0  0.07800  0.63500  0.76213  1.0000
  O   O21       1.0  0.36500  0.44300  0.09547  1.0000
  O   O22       1.0  0.63500  0.07800  0.23787  1.0000
  O   O23       1.0  0.44300  0.36500  0.90453  1.0000
  O   O24       1.0  0.92200  0.55700  0.57120  1.0000
  C   C43       1.0  0.47300  0.85600  0.47970  1.0000
  C   C44       1.0  0.14400  0.61700  0.81303  1.0000
  C   C45       1.0  0.38300  0.52700  0.14637  1.0000
  C   C46       1.0  0.61700  0.14400  0.18697  1.0000
  C   C47       1.0  0.52700  0.38300  0.85363  1.0000
  C   C48       1.0  0.85600  0.47300  0.52030  1.0000
  N   N1        1.0  0.68400  0.72800  0.65400  1.0000
  N   N2        1.0  0.27200  0.95600  0.98733  1.0000
  N   N3        1.0  0.04400  0.31600  0.32067  1.0000
  N   N4        1.0  0.95600  0.27200  0.01267  1.0000
  N   N5        1.0  0.31600  0.04400  0.67933  1.0000
  N   N6        1.0  0.72800  0.68400  0.34600  1.0000
  O   O25       1.0  0.65600  0.61800  0.66500  1.0000
  O   O26       1.0  0.38200  0.03800  0.99833  1.0000
  O   O27       1.0  0.96200  0.34400  0.33167  1.0000
  O   O28       1.0  0.03800  0.38200  0.00167  1.0000
  O   O29       1.0  0.34400  0.96200  0.66833  1.0000
  O   O30       1.0  0.61800  0.65600  0.33500  1.0000
  O   O31       1.0  0.75000  0.77000  0.56100  1.0000
  O   O32       1.0  0.23000  0.98000  0.89433  1.0000
  O   O33       1.0  0.02000  0.25000  0.22767  1.0000
  O   O34       1.0  0.98000  0.23000  0.10567  1.0000
  O   O35       1.0  0.25000  0.02000  0.77233  1.0000
  O   O36       1.0  0.77000  0.75000  0.43900  1.0000
