data_image0
_chemical_formula_structural       Cd3C6O6C6H6C18H6C12H6O12C6O6N6O12
_chemical_formula_sum              "Cd3 C48 O36 H18 N6"
_cell_length_a       14.8744
_cell_length_b       14.8744
_cell_length_c       12.7248
_cell_angle_alpha    90
_cell_angle_beta     90
_cell_angle_gamma    120

_space_group_name_H-M_alt    "P 1"
_space_group_IT_number       1

loop_
  _space_group_symop_operation_xyz
  'x, y, z'

loop_
  _atom_site_type_symbol
  _atom_site_label
  _atom_site_symmetry_multiplicity
  _atom_site_fract_x
  _atom_site_fract_y
  _atom_site_fract_z
  _atom_site_occupancy
  Cd  Cd1       1.0  0.50031  0.50031  0.00000  1.0000
  Cd  Cd2       1.0  0.49969  0.00000  0.33333  1.0000
  Cd  Cd3       1.0  0.00000  0.49969  0.66667  1.0000
  C   C1        1.0  0.50200  0.63170  0.84430  1.0000
  C   C2        1.0  0.36830  0.87030  0.17763  1.0000
  C   C3        1.0  0.12970  0.49800  0.51097  1.0000
  C   C4        1.0  0.87030  0.36830  0.82237  1.0000
  C   C5        1.0  0.49800  0.12970  0.48903  1.0000
  C   C6        1.0  0.63170  0.50200  0.15570  1.0000
  O   O1        1.0  0.41020  0.55980  0.88170  1.0000
  O   O2        1.0  0.44020  0.85040  0.21503  1.0000
  O   O3        1.0  0.14960  0.58980  0.54837  1.0000
  O   O4        1.0  0.85040  0.44020  0.78497  1.0000
  O   O5        1.0  0.58980  0.14960  0.45163  1.0000
  O   O6        1.0  0.55980  0.41020  0.11830  1.0000
  C   C7        1.0  0.40420  0.67000  0.70790  1.0000
  C   C8        1.0  0.33000  0.73420  0.04123  1.0000
  C   C9        1.0  0.26580  0.59580  0.37457  1.0000
  C   C10       1.0  0.73420  0.33000  0.95877  1.0000
  C   C11       1.0  0.59580  0.26580  0.62543  1.0000
  C   C12       1.0  0.67000  0.40420  0.29210  1.0000
  H   H1        1.0  0.34134  0.61364  0.73377  1.0000
  H   H2        1.0  0.38636  0.72770  0.06710  1.0000
  H   H3        1.0  0.27230  0.65866  0.40044  1.0000
  H   H4        1.0  0.72770  0.38636  0.93290  1.0000
  H   H5        1.0  0.65866  0.27230  0.59956  1.0000
  H   H6        1.0  0.61364  0.34134  0.26623  1.0000
  C   C13       1.0  0.49770  0.69730  0.75750  1.0000
  C   C14       1.0  0.30270  0.80040  0.09083  1.0000
  C   C15       1.0  0.19960  0.50230  0.42417  1.0000
  C   C16       1.0  0.80040  0.30270  0.90917  1.0000
  C   C17       1.0  0.50230  0.19960  0.57583  1.0000
  C   C18       1.0  0.69730  0.49770  0.24250  1.0000
  C   C19       1.0  0.58970  0.77980  0.71960  1.0000
  C   C20       1.0  0.22020  0.80990  0.05293  1.0000
  C   C21       1.0  0.19010  0.41030  0.38627  1.0000
  C   C22       1.0  0.80990  0.22020  0.94707  1.0000
  C   C23       1.0  0.41030  0.19010  0.61373  1.0000
  C   C24       1.0  0.77980  0.58970  0.28040  1.0000
  C   C25       1.0  0.58830  0.83500  0.63210  1.0000
  C   C26       1.0  0.16500  0.75330  0.96543  1.0000
  C   C27       1.0  0.24670  0.41170  0.29877  1.0000
  C   C28       1.0  0.75330  0.16500  0.03457  1.0000
  C   C29       1.0  0.41170  0.24670  0.70123  1.0000
  C   C30       1.0  0.83500  0.58830  0.36790  1.0000
  H   H7        1.0  0.65124  0.89133  0.60624  1.0000
  H   H8        1.0  0.10867  0.75991  0.93957  1.0000
  H   H9        1.0  0.24009  0.34876  0.27291  1.0000
  H   H10       1.0  0.75991  0.10867  0.06043  1.0000
  H   H11       1.0  0.34876  0.24009  0.72709  1.0000
  H   H12       1.0  0.89133  0.65124  0.39376  1.0000
  C   C31       1.0  0.49490  0.80770  0.58250  1.0000
  C   C32       1.0  0.19230  0.68720  0.91583  1.0000
  C   C33       1.0  0.31280  0.50510  0.24917  1.0000
  C   C34       1.0  0.68720  0.19230  0.08417  1.0000
  C   C35       1.0  0.50510  0.31280  0.75083  1.0000
  C   C36       1.0  0.80770  0.49490  0.41750  1.0000
  C   C37       1.0  0.40280  0.72520  0.62040  1.0000
  C   C38       1.0  0.27480  0.67760  0.95373  1.0000
  C   C39       1.0  0.32240  0.59720  0.28707  1.0000
  C   C40       1.0  0.67760  0.27480  0.04627  1.0000
  C   C41       1.0  0.59720  0.32240  0.71293  1.0000
  C   C42       1.0  0.72520  0.40280  0.37960  1.0000
  H   H13       1.0  0.33895  0.70658  0.58645  1.0000
  H   H14       1.0  0.29342  0.63237  0.91978  1.0000
  H   H15       1.0  0.36763  0.66105  0.25312  1.0000
  H   H16       1.0  0.63237  0.29342  0.08022  1.0000
  H   H17       1.0  0.66105  0.36763  0.74688  1.0000
  H   H18       1.0  0.70658  0.33895  0.41355  1.0000
  O   O7        1.0  0.57810  0.64680  0.88730  1.0000
  O   O8        1.0  0.35320  0.93130  0.22063  1.0000
  O   O9        1.0  0.06870  0.42190  0.55397  1.0000
  O   O10       1.0  0.93130  0.35320  0.77937  1.0000
  O   O11       1.0  0.42190  0.06870  0.44603  1.0000
  O   O12       1.0  0.64680  0.57810  0.11270  1.0000
  O   O13       1.0  0.57360  0.92670  0.44330  1.0000
  O   O14       1.0  0.07330  0.64690  0.77663  1.0000
  O   O15       1.0  0.35310  0.42640  0.10997  1.0000
  O   O16       1.0  0.64690  0.07330  0.22337  1.0000
  O   O17       1.0  0.42640  0.35310  0.89003  1.0000
  O   O18       1.0  0.92670  0.57360  0.55670  1.0000
  C   C43       1.0  0.48540  0.86530  0.48550  1.0000
  C   C44       1.0  0.13470  0.62010  0.81883  1.0000
  C   C45       1.0  0.37990  0.51460  0.15217  1.0000
  C   C46       1.0  0.62010  0.13470  0.18117  1.0000
  C   C47       1.0  0.51460  0.37990  0.84783  1.0000
  C   C48       1.0  0.86530  0.48540  0.51450  1.0000
  O   O19       1.0  0.40650  0.86190  0.46590  1.0000
  O   O20       1.0  0.13810  0.54460  0.79923  1.0000
  O   O21       1.0  0.45540  0.59350  0.13257  1.0000
  O   O22       1.0  0.54460  0.13810  0.20077  1.0000
  O   O23       1.0  0.59350  0.45540  0.86743  1.0000
  O   O24       1.0  0.86190  0.40650  0.53410  1.0000
  N   N1        1.0  0.68350  0.82280  0.76520  1.0000
  N   N2        1.0  0.17720  0.86070  0.09853  1.0000
  N   N3        1.0  0.13930  0.31650  0.43187  1.0000
  N   N4        1.0  0.86070  0.17720  0.90147  1.0000
  N   N5        1.0  0.31650  0.13930  0.56813  1.0000
  N   N6        1.0  0.82280  0.68350  0.23480  1.0000
  O   O25       1.0  0.75400  0.81800  0.72400  1.0000
  O   O26       1.0  0.18200  0.93600  0.05733  1.0000
  O   O27       1.0  0.06400  0.24600  0.39067  1.0000
  O   O28       1.0  0.93600  0.18200  0.94267  1.0000
  O   O29       1.0  0.24600  0.06400  0.60933  1.0000
  O   O30       1.0  0.81800  0.75400  0.27600  1.0000
  O   O31       1.0  0.70000  0.86600  0.85800  1.0000
  O   O32       1.0  0.13400  0.83400  0.19133  1.0000
  O   O33       1.0  0.16600  0.30000  0.52467  1.0000
  O   O34       1.0  0.83400  0.13400  0.80867  1.0000
  O   O35       1.0  0.30000  0.16600  0.47533  1.0000
  O   O36       1.0  0.86600  0.70000  0.14200  1.0000
