data_image0
_chemical_formula_structural       U4S6O30H2O8N2C6H2C2H2C10H2C2H2C10H2C2H2C4
_chemical_formula_sum              "U4 S6 O38 H14 N2 C36"
_cell_length_a       13.8935
_cell_length_b       14.0662
_cell_length_c       18.2195
_cell_angle_alpha    108.577
_cell_angle_beta     110.263
_cell_angle_gamma    97.592

_space_group_name_H-M_alt    "P 1"
_space_group_IT_number       1

loop_
  _space_group_symop_operation_xyz
  'x, y, z'

loop_
  _atom_site_type_symbol
  _atom_site_label
  _atom_site_symmetry_multiplicity
  _atom_site_fract_x
  _atom_site_fract_y
  _atom_site_fract_z
  _atom_site_occupancy
  U   U1        1.0  0.22104  0.55626  0.87835  1.0000
  U   U2        1.0  0.77896  0.44374  0.12165  1.0000
  U   U3        1.0  0.78269  0.75827  0.63696  1.0000
  U   U4        1.0  0.21731  0.24173  0.36304  1.0000
  S   S1        1.0  0.49351  0.66012  0.74858  1.0000
  S   S2        1.0  0.50649  0.33988  0.25142  1.0000
  S   S3        1.0  0.00119  0.16101  0.75893  1.0000
  S   S4        1.0  0.99881  0.83899  0.24107  1.0000
  S   S5        1.0  0.02042  0.71014  0.46463  1.0000
  S   S6        1.0  0.97958  0.28986  0.53537  1.0000
  O   O1        1.0  0.12290  0.60220  0.81990  1.0000
  O   O2        1.0  0.87710  0.39780  0.18010  1.0000
  O   O3        1.0  0.32270  0.51740  0.94250  1.0000
  O   O4        1.0  0.67730  0.48260  0.05750  1.0000
  O   O5        1.0  0.69340  0.77380  0.54790  1.0000
  O   O6        1.0  0.30660  0.22620  0.45210  1.0000
  O   O7        1.0  0.87300  0.74250  0.72530  1.0000
  O   O8        1.0  0.12700  0.25750  0.27470  1.0000
  O   O9        1.0  0.35290  0.63860  0.84000  1.0000
  O   O10       1.0  0.64710  0.36140  0.16000  1.0000
  O   O11       1.0  0.26380  0.47510  0.75780  1.0000
  O   O12       1.0  0.73620  0.52490  0.24220  1.0000
  O   O13       1.0  0.64470  0.59850  0.60050  1.0000
  O   O14       1.0  0.35530  0.40150  0.39950  1.0000
  O   O15       1.0  0.64700  0.74520  0.69360  1.0000
  O   O16       1.0  0.35300  0.25480  0.30640  1.0000
  O   O17       1.0  0.12260  0.37430  0.79770  1.0000
  O   O18       1.0  0.87740  0.62570  0.20230  1.0000
  O   O19       1.0  0.08580  0.45750  0.90470  1.0000
  O   O20       1.0  0.91420  0.54250  0.09530  1.0000
  O   O21       1.0  0.78490  0.92980  0.73590  1.0000
  O   O22       1.0  0.21510  0.07020  0.26410  1.0000
  O   O23       1.0  0.90100  0.93140  0.67910  1.0000
  O   O24       1.0  0.09900  0.06860  0.32090  1.0000
  O   O25       1.0  0.91530  0.75840  0.57740  1.0000
  O   O26       1.0  0.08470  0.24160  0.42260  1.0000
  O   O27       1.0  0.80970  0.60330  0.53730  1.0000
  O   O28       1.0  0.19030  0.39670  0.46270  1.0000
  O   O29       1.0  0.12970  0.56140  0.30520  1.0000
  O   O30       1.0  0.87030  0.43860  0.69480  1.0000
  H   H1        1.0  0.17980  0.58020  0.28280  1.0000
  H   H2        1.0  0.82020  0.41980  0.71720  1.0000
  O   O31       1.0  0.16480  0.73250  0.37900  1.0000
  O   O32       1.0  0.83520  0.26750  0.62100  1.0000
  O   O33       1.0  0.20580  0.65880  0.01380  1.0000
  O   O34       1.0  0.79420  0.34120  0.98620  1.0000
  O   O35       1.0  0.31730  0.73980  0.98110  1.0000
  O   O36       1.0  0.68270  0.26020  0.01890  1.0000
  O   O37       1.0  0.30790  0.81430  0.10230  1.0000
  O   O38       1.0  0.69210  0.18570  0.89770  1.0000
  N   N1        1.0  0.27780  0.74110  0.03540  1.0000
  N   N2        1.0  0.72220  0.25890  0.96460  1.0000
  C   C1        1.0  0.33320  0.55670  0.77640  1.0000
  C   C2        1.0  0.66680  0.44330  0.22360  1.0000
  C   C3        1.0  0.39390  0.55280  0.72250  1.0000
  C   C4        1.0  0.60610  0.44720  0.27750  1.0000
  C   C5        1.0  0.38330  0.47090  0.65280  1.0000
  C   C6        1.0  0.61670  0.52910  0.34720  1.0000
  H   H3        1.0  0.33180  0.40560  0.62910  1.0000
  H   H4        1.0  0.66820  0.59440  0.37090  1.0000
  C   C7        1.0  0.45700  0.49400  0.61990  1.0000
  C   C8        1.0  0.54300  0.50600  0.38010  1.0000
  H   H5        1.0  0.46060  0.44600  0.57120  1.0000
  H   H6        1.0  0.53940  0.55400  0.42880  1.0000
  C   C9        1.0  0.52280  0.59260  0.66550  1.0000
  C   C10       1.0  0.47720  0.40740  0.33450  1.0000
  C   C11       1.0  0.60830  0.64810  0.65190  1.0000
  C   C12       1.0  0.39170  0.35190  0.34810  1.0000
  C   C13       1.0  0.07240  0.37480  0.84470  1.0000
  C   C14       1.0  0.92760  0.62520  0.15530  1.0000
  C   C15       1.0  0.99960  0.27620  0.82810  1.0000
  C   C16       1.0  0.00040  0.72380  0.17190  1.0000
  C   C17       1.0  0.92720  0.26320  0.86040  1.0000
  C   C18       1.0  0.07280  0.73680  0.13960  1.0000
  H   H7        1.0  0.91620  0.31880  0.90000  1.0000
  H   H8        1.0  0.08380  0.68120  0.10000  1.0000
  C   C19       1.0  0.86970  0.15760  0.82880  1.0000
  C   C20       1.0  0.13030  0.84240  0.17120  1.0000
  H   H9        1.0  0.81520  0.13410  0.84420  1.0000
  H   H10       1.0  0.18480  0.86590  0.15580  1.0000
  C   C21       1.0  0.90190  0.09270  0.77290  1.0000
  C   C22       1.0  0.09810  0.90730  0.22710  1.0000
  C   C23       1.0  0.86030  0.97890  0.72740  1.0000
  C   C24       1.0  0.13970  0.02110  0.27260  1.0000
  C   C25       1.0  0.88190  0.66160  0.53220  1.0000
  C   C26       1.0  0.11810  0.33840  0.46780  1.0000
  C   C27       1.0  0.93120  0.62080  0.47230  1.0000
  C   C28       1.0  0.06880  0.37920  0.52770  1.0000
  C   C29       1.0  0.91930  0.52120  0.42190  1.0000
  C   C30       1.0  0.08070  0.47880  0.57810  1.0000
  H   H11       1.0  0.87260  0.46180  0.41740  1.0000
  H   H12       1.0  0.12740  0.53820  0.58260  1.0000
  C   C31       1.0  0.98610  0.51620  0.37590  1.0000
  C   C32       1.0  0.01390  0.48380  0.62410  1.0000
  H   H13       1.0  0.98960  0.45320  0.33840  1.0000
  H   H14       1.0  0.01040  0.54680  0.66160  1.0000
  C   C33       1.0  0.04310  0.61250  0.39280  1.0000
  C   C34       1.0  0.95690  0.38750  0.60720  1.0000
  C   C35       1.0  0.11890  0.64290  0.35850  1.0000
  C   C36       1.0  0.88110  0.35710  0.64150  1.0000
