data_image0
_chemical_formula_structural       U4S8O32H2O8H2C6H2C2H2C10H2C2H2C10H2C2H2C10H2C2H2C4
_chemical_formula_sum              "U4 S8 O40 H20 C48"
_cell_length_a       10.8016
_cell_length_b       20.409
_cell_length_c       12.8547
_cell_angle_alpha    90
_cell_angle_beta     105.973
_cell_angle_gamma    90

_space_group_name_H-M_alt    "P 1"
_space_group_IT_number       1

loop_
  _space_group_symop_operation_xyz
  'x, y, z'

loop_
  _atom_site_type_symbol
  _atom_site_label
  _atom_site_symmetry_multiplicity
  _atom_site_fract_x
  _atom_site_fract_y
  _atom_site_fract_z
  _atom_site_occupancy
  U   U1        1.0  0.52394  0.36918  0.22439  1.0000
  U   U2        1.0  0.47606  0.86918  0.77561  1.0000
  U   U3        1.0  0.03812  0.62845  0.73694  1.0000
  U   U4        1.0  0.96188  0.12845  0.26306  1.0000
  S   S1        1.0  0.26700  0.48830  0.47610  1.0000
  S   S2        1.0  0.73300  0.98830  0.52390  1.0000
  S   S3        1.0  0.76220  0.50825  0.97460  1.0000
  S   S4        1.0  0.23780  0.00825  0.02540  1.0000
  S   S5        1.0  0.40930  0.13130  0.36560  1.0000
  S   S6        1.0  0.59070  0.63130  0.63440  1.0000
  S   S7        1.0  0.91500  0.86740  0.86700  1.0000
  S   S8        1.0  0.08500  0.36740  0.13300  1.0000
  O   O1        1.0  0.66620  0.37430  0.33420  1.0000
  O   O2        1.0  0.33380  0.87430  0.66580  1.0000
  O   O3        1.0  0.38280  0.36590  0.11520  1.0000
  O   O4        1.0  0.61720  0.86590  0.88480  1.0000
  O   O5        1.0  0.18200  0.62370  0.84310  1.0000
  O   O6        1.0  0.81800  0.12370  0.15690  1.0000
  O   O7        1.0  0.89510  0.63330  0.63020  1.0000
  O   O8        1.0  0.10490  0.13330  0.36980  1.0000
  O   O9        1.0  0.39420  0.40370  0.34750  1.0000
  O   O10       1.0  0.60580  0.90370  0.65250  1.0000
  O   O11       1.0  0.46380  0.48290  0.26030  1.0000
  O   O12       1.0  0.53620  0.98290  0.73970  1.0000
  O   O13       1.0  0.15710  0.64670  0.60070  1.0000
  O   O14       1.0  0.84290  0.14670  0.39930  1.0000
  O   O15       1.0  0.12630  0.54370  0.63420  1.0000
  O   O16       1.0  0.87370  0.04370  0.36580  1.0000
  O   O17       1.0  0.61250  0.45290  0.12580  1.0000
  O   O18       1.0  0.38750  0.95290  0.87420  1.0000
  O   O19       1.0  0.64830  0.34990  0.09550  1.0000
  O   O20       1.0  0.35170  0.84990  0.90450  1.0000
  O   O21       1.0  0.97710  0.51660  0.77340  1.0000
  O   O22       1.0  0.02290  0.01660  0.22660  1.0000
  O   O23       1.0  0.90940  0.59530  0.86060  1.0000
  O   O24       1.0  0.09060  0.09530  0.13940  1.0000
  O   O25       1.0  0.55700  0.25190  0.19350  1.0000
  O   O26       1.0  0.44300  0.75190  0.80650  1.0000
  O   O27       1.0  0.45070  0.27290  0.31030  1.0000
  O   O28       1.0  0.54930  0.77290  0.68970  1.0000
  O   O29       1.0  0.34060  0.00280  0.45940  1.0000
  O   O30       1.0  0.65940  0.50280  0.54060  1.0000
  O   O31       1.0  0.42620  0.93920  0.35510  1.0000
  O   O32       1.0  0.57380  0.43920  0.64490  1.0000
  H   H1        1.0  0.40090  0.90660  0.39150  1.0000
  H   H2        1.0  0.59910  0.40660  0.60850  1.0000
  O   O33       1.0  0.97820  0.72400  0.83440  1.0000
  O   O34       1.0  0.02180  0.22400  0.16560  1.0000
  O   O35       1.0  0.07380  0.74450  0.70540  1.0000
  O   O36       1.0  0.92620  0.24450  0.29460  1.0000
  O   O37       1.0  0.83400  0.99460  0.94630  1.0000
  O   O38       1.0  0.16600  0.49460  0.05370  1.0000
  O   O39       1.0  0.94020  0.05910  0.85770  1.0000
  O   O40       1.0  0.05980  0.55910  0.14230  1.0000
  H   H3        1.0  0.88820  0.08440  0.88300  1.0000
  H   H4        1.0  0.11180  0.58440  0.11700  1.0000
  C   C1        1.0  0.40110  0.46400  0.32570  1.0000
  C   C2        1.0  0.59890  0.96400  0.67430  1.0000
  C   C3        1.0  0.33520  0.51230  0.37780  1.0000
  C   C4        1.0  0.66480  0.01230  0.62220  1.0000
  C   C5        1.0  0.32450  0.57590  0.35670  1.0000
  C   C6        1.0  0.67550  0.07590  0.64330  1.0000
  H   H5        1.0  0.35290  0.59630  0.30100  1.0000
  H   H6        1.0  0.64710  0.09630  0.69900  1.0000
  C   C7        1.0  0.26500  0.61060  0.42790  1.0000
  C   C8        1.0  0.73500  0.11060  0.57210  1.0000
  H   H7        1.0  0.25290  0.65670  0.42710  1.0000
  H   H8        1.0  0.74710  0.15670  0.57290  1.0000
  C   C9        1.0  0.22830  0.56900  0.49640  1.0000
  C   C10       1.0  0.77170  0.06900  0.50360  1.0000
  C   C11       1.0  0.16800  0.58700  0.58220  1.0000
  C   C12       1.0  0.83200  0.08700  0.41780  1.0000
  C   C13       1.0  0.66350  0.40930  0.07720  1.0000
  C   C14       1.0  0.33650  0.90930  0.92280  1.0000
  C   C15       1.0  0.73040  0.42900  0.99730  1.0000
  C   C16       1.0  0.26960  0.92900  0.00270  1.0000
  C   C17       1.0  0.78170  0.38480  0.93630  1.0000
  C   C18       1.0  0.21830  0.88480  0.06370  1.0000
  H   H9        1.0  0.77440  0.33840  0.93860  1.0000
  H   H10       1.0  0.22560  0.83840  0.06140  1.0000
  C   C19       1.0  0.84470  0.41870  0.87180  1.0000
  C   C20       1.0  0.15530  0.91870  0.12820  1.0000
  H   H11       1.0  0.88310  0.39710  0.82310  1.0000
  H   H12       1.0  0.11690  0.89710  0.17690  1.0000
  C   C21       1.0  0.84730  0.48570  0.88380  1.0000
  C   C22       1.0  0.15270  0.98570  0.11620  1.0000
  C   C23       1.0  0.91390  0.53630  0.83590  1.0000
  C   C24       1.0  0.08610  0.03630  0.16410  1.0000
  C   C25       1.0  0.50090  0.23060  0.26220  1.0000
  C   C26       1.0  0.49910  0.73060  0.73780  1.0000
  C   C27       1.0  0.48710  0.16210  0.27630  1.0000
  C   C28       1.0  0.51290  0.66210  0.72370  1.0000
  C   C29       1.0  0.53660  0.11240  0.22740  1.0000
  C   C30       1.0  0.46340  0.61240  0.77260  1.0000
  H   H13       1.0  0.58550  0.11960  0.17730  1.0000
  H   H14       1.0  0.41450  0.61960  0.82270  1.0000
  C   C31       1.0  0.50670  0.04960  0.25950  1.0000
  C   C32       1.0  0.49330  0.54960  0.74050  1.0000
  H   H15       1.0  0.53040  0.00980  0.23160  1.0000
  H   H16       1.0  0.46960  0.50980  0.76840  1.0000
  C   C33       1.0  0.43960  0.05260  0.33550  1.0000
  C   C34       1.0  0.56040  0.55260  0.66450  1.0000
  C   C35       1.0  0.39630  0.99760  0.38990  1.0000
  C   C36       1.0  0.60370  0.49760  0.61010  1.0000
  C   C37       1.0  0.01590  0.76480  0.77440  1.0000
  C   C38       1.0  0.98410  0.26480  0.22560  1.0000
  C   C39       1.0  0.00040  0.83620  0.78410  1.0000
  C   C40       1.0  0.99960  0.33620  0.21590  1.0000
  C   C41       1.0  0.04650  0.88450  0.73150  1.0000
  C   C42       1.0  0.95350  0.38450  0.26850  1.0000
  H   H17       1.0  0.09390  0.87620  0.68070  1.0000
  H   H18       1.0  0.90610  0.37620  0.31930  1.0000
  C   C43       1.0  0.01680  0.94750  0.76000  1.0000
  C   C44       1.0  0.98320  0.44750  0.24000  1.0000
  H   H19       1.0  0.04280  0.98650  0.73160  1.0000
  H   H20       1.0  0.95720  0.48650  0.26840  1.0000
  C   C45       1.0  0.94630  0.94670  0.83310  1.0000
  C   C46       1.0  0.05370  0.44670  0.16690  1.0000
  C   C47       1.0  0.89990  0.00170  0.88490  1.0000
  C   C48       1.0  0.10010  0.50170  0.11510  1.0000
