data_image0
_chemical_formula_structural       U2O2H4C2H2UO20C4H2C2H2C2H2O2C8H2C2H2C12
_chemical_formula_sum              "U3 O24 H16 C32"
_cell_length_a       9.6707
_cell_length_b       10.5286
_cell_length_c       11.7306
_cell_angle_alpha    80.345
_cell_angle_beta     82.387
_cell_angle_gamma    66.253

_space_group_name_H-M_alt    "P 1"
_space_group_IT_number       1

loop_
  _space_group_symop_operation_xyz
  'x, y, z'

loop_
  _atom_site_type_symbol
  _atom_site_label
  _atom_site_symmetry_multiplicity
  _atom_site_fract_x
  _atom_site_fract_y
  _atom_site_fract_z
  _atom_site_occupancy
  U   U1        1.0  0.54944  0.22311  0.55605  1.0000
  U   U2        1.0  0.45056  0.77689  0.44395  1.0000
  O   O1        1.0  0.70570  0.13310  0.72440  1.0000
  O   O2        1.0  0.29430  0.86690  0.27560  1.0000
  H   H1        1.0  0.76810  0.17250  0.71850  1.0000
  H   H2        1.0  0.23190  0.82750  0.28150  1.0000
  H   H3        1.0  0.76100  0.04700  0.72170  1.0000
  H   H4        1.0  0.23900  0.95300  0.27830  1.0000
  C   C1        1.0  0.57880  0.41780  0.16100  1.0000
  C   C2        1.0  0.42120  0.58220  0.83900  1.0000
  H   H5        1.0  0.64180  0.46230  0.17010  1.0000
  H   H6        1.0  0.35820  0.53770  0.82990  1.0000
  U   U3        1.0  0.00000  0.50000  0.00000  1.0000
  O   O3        1.0  0.40670  0.43110  0.44550  1.0000
  O   O4        1.0  0.59330  0.56890  0.55450  1.0000
  O   O5        1.0  0.39100  0.20960  0.64320  1.0000
  O   O6        1.0  0.60900  0.79040  0.35680  1.0000
  O   O7        1.0  0.47150  0.13960  0.40700  1.0000
  O   O8        1.0  0.52850  0.86040  0.59300  1.0000
  O   O9        1.0  0.70710  0.23010  0.46390  1.0000
  O   O10       1.0  0.29290  0.76990  0.53610  1.0000
  O   O11       1.0  0.14710  0.49130  0.89160  1.0000
  O   O12       1.0  0.85290  0.50870  0.10840  1.0000
  O   O13       1.0  0.46740  0.59920  0.33820  1.0000
  O   O14       1.0  0.53260  0.40080  0.66180  1.0000
  O   O15       1.0  0.08600  0.62170  0.10000  1.0000
  O   O16       1.0  0.91400  0.37830  0.90000  1.0000
  O   O17       1.0  0.15370  0.28640  0.09210  1.0000
  O   O18       1.0  0.84630  0.71360  0.90790  1.0000
  O   O19       1.0  0.32070  0.02190  0.42830  1.0000
  O   O20       1.0  0.67930  0.97810  0.57170  1.0000
  O   O21       1.0  0.34340  0.08380  0.13400  1.0000
  O   O22       1.0  0.65660  0.91620  0.86600  1.0000
  C   C3        1.0  0.45840  0.42330  0.24290  1.0000
  C   C4        1.0  0.54160  0.57670  0.75710  1.0000
  C   C5        1.0  0.06670  0.27770  0.43940  1.0000
  C   C6        1.0  0.93330  0.72230  0.56060  1.0000
  H   H7        1.0  0.05770  0.20190  0.48850  1.0000
  H   H8        1.0  0.94230  0.79810  0.51150  1.0000
  C   C7        1.0  0.51210  0.28010  0.05320  1.0000
  C   C8        1.0  0.48790  0.71990  0.94680  1.0000
  H   H9        1.0  0.53170  0.22990  0.99080  1.0000
  H   H10       1.0  0.46830  0.77010  0.00920  1.0000
  C   C9        1.0  0.60460  0.34660  0.06650  1.0000
  C   C10       1.0  0.39540  0.65340  0.93350  1.0000
  H   H11       1.0  0.68460  0.34350  0.01190  1.0000
  H   H12       1.0  0.31540  0.65650  0.98810  1.0000
  O   O23       1.0  0.12500  0.71810  0.23930  1.0000
  O   O24       1.0  0.87500  0.28190  0.76070  1.0000
  C   C11       1.0  0.21920  0.37810  0.30540  1.0000
  C   C12       1.0  0.78080  0.62190  0.69460  1.0000
  C   C13       1.0  0.38910  0.28770  0.13280  1.0000
  C   C14       1.0  0.61090  0.71230  0.86720  1.0000
  C   C15       1.0  0.36010  0.36150  0.22780  1.0000
  C   C16       1.0  0.63990  0.63850  0.77220  1.0000
  C   C17       1.0  0.95500  0.51300  0.35030  1.0000
  C   C18       1.0  0.04500  0.48700  0.64970  1.0000
  H   H13       1.0  0.87080  0.59670  0.34090  1.0000
  H   H14       1.0  0.12920  0.40330  0.65910  1.0000
  C   C19       1.0  0.94150  0.40040  0.42310  1.0000
  C   C20       1.0  0.05850  0.59960  0.57690  1.0000
  H   H15       1.0  0.84830  0.40760  0.46090  1.0000
  H   H16       1.0  0.15170  0.59240  0.53910  1.0000
  C   C21       1.0  0.20760  0.26550  0.38290  1.0000
  C   C22       1.0  0.79240  0.73450  0.61710  1.0000
  C   C23       1.0  0.44170  0.49030  0.34960  1.0000
  C   C24       1.0  0.55830  0.50970  0.65040  1.0000
  C   C25       1.0  0.09160  0.50330  0.29120  1.0000
  C   C26       1.0  0.90840  0.49670  0.70880  1.0000
  C   C27       1.0  0.34270  0.13400  0.40670  1.0000
  C   C28       1.0  0.65730  0.86600  0.59330  1.0000
  C   C29       1.0  0.29070  0.21180  0.11850  1.0000
  C   C30       1.0  0.70930  0.78820  0.88150  1.0000
  C   C31       1.0  0.10320  0.62480  0.20570  1.0000
  C   C32       1.0  0.89680  0.37520  0.79430  1.0000
