data_image0
_chemical_formula_structural       C64O128Cu16
_chemical_formula_sum              "C64 O128 Cu16"
_cell_length_a       19.721
_cell_length_b       17.579
_cell_length_c       30.185
_cell_angle_alpha    90
_cell_angle_beta     127.716
_cell_angle_gamma    90

_space_group_name_H-M_alt    "P 1"
_space_group_IT_number       1

loop_
  _space_group_symop_operation_xyz
  'x, y, z'

loop_
  _atom_site_type_symbol
  _atom_site_label
  _atom_site_symmetry_multiplicity
  _atom_site_fract_x
  _atom_site_fract_y
  _atom_site_fract_z
  _atom_site_occupancy
  C   C1        1.0  0.01190  0.28135  0.16159  1.0000
  C   C2        1.0  0.98810  0.78135  0.33841  1.0000
  C   C3        1.0  0.98810  0.71865  0.83841  1.0000
  C   C4        1.0  0.01190  0.21865  0.66159  1.0000
  C   C5        1.0  0.05360  0.21267  0.15411  1.0000
  C   C6        1.0  0.94640  0.71267  0.34589  1.0000
  C   C7        1.0  0.94640  0.78733  0.84589  1.0000
  C   C8        1.0  0.05360  0.28733  0.65411  1.0000
  C   C9        1.0  0.74090  0.28847  0.98429  1.0000
  C   C10       1.0  0.25910  0.78847  0.51571  1.0000
  C   C11       1.0  0.25910  0.71153  0.01571  1.0000
  C   C12       1.0  0.74090  0.21153  0.48429  1.0000
  C   C13       1.0  0.02560  0.30616  0.01414  1.0000
  C   C14       1.0  0.97440  0.80616  0.48586  1.0000
  C   C15       1.0  0.97440  0.69384  0.98586  1.0000
  C   C16       1.0  0.02560  0.19384  0.51414  1.0000
  C   C17       1.0  0.97000  0.23645  0.98039  1.0000
  C   C18       1.0  0.03000  0.73645  0.51961  1.0000
  C   C19       1.0  0.03000  0.76355  0.01961  1.0000
  C   C20       1.0  0.97000  0.26355  0.48039  1.0000
  C   C21       1.0  0.97510  0.21045  0.83529  1.0000
  C   C22       1.0  0.02490  0.71045  0.66471  1.0000
  C   C23       1.0  0.02490  0.78955  0.16471  1.0000
  C   C24       1.0  0.97510  0.28955  0.33529  1.0000
  C   C25       1.0  0.93030  0.28695  0.82878  1.0000
  C   C26       1.0  0.06970  0.78695  0.67122  1.0000
  C   C27       1.0  0.06970  0.71305  0.17122  1.0000
  C   C28       1.0  0.93030  0.21305  0.32878  1.0000
  C   C29       1.0  0.23610  0.29004  0.98085  1.0000
  C   C30       1.0  0.76390  0.79004  0.51915  1.0000
  C   C31       1.0  0.76390  0.70996  0.01915  1.0000
  C   C32       1.0  0.23610  0.20996  0.48085  1.0000
  C   C33       1.0  0.25050  0.21459  0.01340  1.0000
  C   C34       1.0  0.74950  0.71459  0.48660  1.0000
  C   C35       1.0  0.74950  0.78541  0.98660  1.0000
  C   C36       1.0  0.25050  0.28541  0.51340  1.0000
  C   C37       1.0  0.51090  0.29096  0.15907  1.0000
  C   C38       1.0  0.48910  0.79096  0.34093  1.0000
  C   C39       1.0  0.48910  0.70904  0.84093  1.0000
  C   C40       1.0  0.51090  0.20904  0.65907  1.0000
  C   C41       1.0  0.55630  0.21352  0.16725  1.0000
  C   C42       1.0  0.44370  0.71352  0.33275  1.0000
  C   C43       1.0  0.44370  0.78648  0.83275  1.0000
  C   C44       1.0  0.55630  0.28648  0.66725  1.0000
  C   C45       1.0  0.45410  0.19665  0.97570  1.0000
  C   C46       1.0  0.54590  0.69665  0.52430  1.0000
  C   C47       1.0  0.54590  0.80335  0.02430  1.0000
  C   C48       1.0  0.45410  0.30335  0.47570  1.0000
  C   C49       1.0  0.51570  0.26258  0.01219  1.0000
  C   C50       1.0  0.48430  0.76258  0.48781  1.0000
  C   C51       1.0  0.48430  0.73742  0.98781  1.0000
  C   C52       1.0  0.51570  0.23742  0.51219  1.0000
  C   C53       1.0  0.43810  0.29558  0.83883  1.0000
  C   C54       1.0  0.56190  0.79558  0.66117  1.0000
  C   C55       1.0  0.56190  0.70442  0.16117  1.0000
  C   C56       1.0  0.43810  0.20442  0.33883  1.0000
  C   C57       1.0  0.47450  0.22420  0.83024  1.0000
  C   C58       1.0  0.52550  0.72420  0.66976  1.0000
  C   C59       1.0  0.52550  0.77580  0.16976  1.0000
  C   C60       1.0  0.47450  0.27580  0.33024  1.0000
  C   C61       1.0  0.74340  0.20810  0.00809  1.0000
  C   C62       1.0  0.25660  0.70810  0.49191  1.0000
  C   C63       1.0  0.25660  0.79190  0.99191  1.0000
  C   C64       1.0  0.74340  0.29190  0.50809  1.0000
  O   O1        1.0  0.01818  0.19347  0.10365  1.0000
  O   O2        1.0  0.98182  0.69347  0.39635  1.0000
  O   O3        1.0  0.98182  0.80653  0.89635  1.0000
  O   O4        1.0  0.01818  0.30653  0.60365  1.0000
  O   O5        1.0  0.94637  0.30939  0.11598  1.0000
  O   O6        1.0  0.05363  0.80939  0.38402  1.0000
  O   O7        1.0  0.05363  0.69061  0.88402  1.0000
  O   O8        1.0  0.94637  0.19061  0.61598  1.0000
  O   O9        1.0  0.11705  0.18161  0.19641  1.0000
  O   O10       1.0  0.88295  0.68161  0.30359  1.0000
  O   O11       1.0  0.88295  0.81839  0.80359  1.0000
  O   O12       1.0  0.11705  0.31839  0.69641  1.0000
  O   O13       1.0  0.04536  0.30429  0.20947  1.0000
  O   O14       1.0  0.95464  0.80429  0.29053  1.0000
  O   O15       1.0  0.95464  0.69571  0.79053  1.0000
  O   O16       1.0  0.04536  0.19571  0.70947  1.0000
  O   O17       1.0  0.81434  0.17625  0.03902  1.0000
  O   O18       1.0  0.18566  0.67625  0.46098  1.0000
  O   O19       1.0  0.18566  0.82375  0.96098  1.0000
  O   O20       1.0  0.81434  0.32375  0.53902  1.0000
  O   O21       1.0  0.81098  0.31444  0.99718  1.0000
  O   O22       1.0  0.18902  0.81444  0.50282  1.0000
  O   O23       1.0  0.18902  0.68556  0.00282  1.0000
  O   O24       1.0  0.81098  0.18556  0.49718  1.0000
  O   O25       1.0  0.91503  0.21359  0.98591  1.0000
  O   O26       1.0  0.08497  0.71359  0.51409  1.0000
  O   O27       1.0  0.08497  0.78641  0.01409  1.0000
  O   O28       1.0  0.91503  0.28641  0.48591  1.0000
  O   O29       1.0  0.01312  0.33844  0.04495  1.0000
  O   O30       1.0  0.98688  0.83844  0.45505  1.0000
  O   O31       1.0  0.98688  0.66156  0.95505  1.0000
  O   O32       1.0  0.01312  0.16156  0.54495  1.0000
  O   O33       1.0  0.98182  0.20697  0.94756  1.0000
  O   O34       1.0  0.01818  0.70697  0.55244  1.0000
  O   O35       1.0  0.01818  0.79303  0.05244  1.0000
  O   O36       1.0  0.98182  0.29303  0.44756  1.0000
  O   O37       1.0  0.07906  0.32605  0.00556  1.0000
  O   O38       1.0  0.92094  0.82605  0.49444  1.0000
  O   O39       1.0  0.92094  0.67395  0.99444  1.0000
  O   O40       1.0  0.07906  0.17395  0.50556  1.0000
  O   O41       1.0  0.04209  0.19323  0.88440  1.0000
  O   O42       1.0  0.95791  0.69323  0.61560  1.0000
  O   O43       1.0  0.95791  0.80677  0.11560  1.0000
  O   O44       1.0  0.04209  0.30677  0.38440  1.0000
  O   O45       1.0  0.96876  0.32940  0.87089  1.0000
  O   O46       1.0  0.03124  0.82940  0.62911  1.0000
  O   O47       1.0  0.03124  0.67060  0.12911  1.0000
  O   O48       1.0  0.96876  0.17060  0.37089  1.0000
  O   O49       1.0  0.94401  0.17112  0.79300  1.0000
  O   O50       1.0  0.05599  0.67112  0.70700  1.0000
  O   O51       1.0  0.05599  0.82888  0.20700  1.0000
  O   O52       1.0  0.94401  0.32888  0.29300  1.0000
  O   O53       1.0  0.86040  0.29950  0.78235  1.0000
  O   O54       1.0  0.13960  0.79950  0.71765  1.0000
  O   O55       1.0  0.13960  0.70050  0.21765  1.0000
  O   O56       1.0  0.86040  0.20050  0.28235  1.0000
  O   O57       1.0  0.16145  0.31797  0.95187  1.0000
  O   O58       1.0  0.83855  0.81797  0.54813  1.0000
  O   O59       1.0  0.83855  0.68203  0.04813  1.0000
  O   O60       1.0  0.16145  0.18203  0.45187  1.0000
  O   O61       1.0  0.18762  0.18799  0.00815  1.0000
  O   O62       1.0  0.81238  0.68799  0.49185  1.0000
  O   O63       1.0  0.81238  0.81201  0.99185  1.0000
  O   O64       1.0  0.18762  0.31201  0.50815  1.0000
  O   O65       1.0  0.29856  0.31695  0.98613  1.0000
  O   O66       1.0  0.70144  0.81695  0.51387  1.0000
  O   O67       1.0  0.70144  0.68305  0.01387  1.0000
  O   O68       1.0  0.29856  0.18305  0.48613  1.0000
  O   O69       1.0  0.32467  0.18617  0.04229  1.0000
  O   O70       1.0  0.67533  0.68617  0.45771  1.0000
  O   O71       1.0  0.67533  0.81383  0.95771  1.0000
  O   O72       1.0  0.32467  0.31383  0.54229  1.0000
  O   O73       1.0  0.44575  0.30765  0.10933  1.0000
  O   O74       1.0  0.55425  0.80765  0.39067  1.0000
  O   O75       1.0  0.55425  0.69235  0.89067  1.0000
  O   O76       1.0  0.44575  0.19235  0.60933  1.0000
  O   O77       1.0  0.51878  0.16985  0.12533  1.0000
  O   O78       1.0  0.48122  0.66985  0.37467  1.0000
  O   O79       1.0  0.48122  0.83015  0.87467  1.0000
  O   O80       1.0  0.51878  0.33015  0.62533  1.0000
  O   O81       1.0  0.54019  0.33082  0.20073  1.0000
  O   O82       1.0  0.45981  0.83082  0.29927  1.0000
  O   O83       1.0  0.45981  0.66918  0.79927  1.0000
  O   O84       1.0  0.54019  0.16918  0.70073  1.0000
  O   O85       1.0  0.62560  0.20235  0.21389  1.0000
  O   O86       1.0  0.37440  0.70235  0.28611  1.0000
  O   O87       1.0  0.37440  0.79765  0.78611  1.0000
  O   O88       1.0  0.62560  0.29765  0.71389  1.0000
  O   O89       1.0  0.50714  0.29039  0.04721  1.0000
  O   O90       1.0  0.49286  0.79039  0.45279  1.0000
  O   O91       1.0  0.49286  0.70961  0.95279  1.0000
  O   O92       1.0  0.50714  0.20961  0.54721  1.0000
  O   O93       1.0  0.40199  0.17758  0.98577  1.0000
  O   O94       1.0  0.59801  0.67758  0.51423  1.0000
  O   O95       1.0  0.59801  0.82242  0.01423  1.0000
  O   O96       1.0  0.40199  0.32242  0.48577  1.0000
  O   O97       1.0  0.57054  0.28352  0.00672  1.0000
  O   O98       1.0  0.42946  0.78352  0.49328  1.0000
  O   O99       1.0  0.42946  0.71648  0.99328  1.0000
  O   O100      1.0  0.57054  0.21648  0.50672  1.0000
  O   O101      1.0  0.46082  0.16677  0.94145  1.0000
  O   O102      1.0  0.53918  0.66677  0.55855  1.0000
  O   O103      1.0  0.53918  0.83323  0.05855  1.0000
  O   O104      1.0  0.46082  0.33323  0.44145  1.0000
  O   O105      1.0  0.47184  0.31174  0.88965  1.0000
  O   O106      1.0  0.52816  0.81174  0.61035  1.0000
  O   O107      1.0  0.52816  0.68826  0.11035  1.0000
  O   O108      1.0  0.47184  0.18826  0.38965  1.0000
  O   O109      1.0  0.53586  0.19118  0.87425  1.0000
  O   O110      1.0  0.46414  0.69118  0.62575  1.0000
  O   O111      1.0  0.46414  0.80882  0.12575  1.0000
  O   O112      1.0  0.53586  0.30882  0.37425  1.0000
  O   O113      1.0  0.37939  0.33118  0.79701  1.0000
  O   O114      1.0  0.62061  0.83118  0.70299  1.0000
  O   O115      1.0  0.62061  0.66882  0.20299  1.0000
  O   O116      1.0  0.37939  0.16882  0.29701  1.0000
  O   O117      1.0  0.44099  0.20426  0.78114  1.0000
  O   O118      1.0  0.55901  0.70426  0.71886  1.0000
  O   O119      1.0  0.55901  0.79574  0.21886  1.0000
  O   O120      1.0  0.44099  0.29574  0.28114  1.0000
  O   O121      1.0  0.67237  0.18214  0.99393  1.0000
  O   O122      1.0  0.32763  0.68214  0.50607  1.0000
  O   O123      1.0  0.32763  0.81786  0.00607  1.0000
  O   O124      1.0  0.67237  0.31786  0.49393  1.0000
  O   O125      1.0  0.67016  0.32112  0.95388  1.0000
  O   O126      1.0  0.32984  0.82112  0.54612  1.0000
  O   O127      1.0  0.32984  0.67888  0.04612  1.0000
  O   O128      1.0  0.67016  0.17888  0.45388  1.0000
  Cu  Cu1       1.0  0.91762  0.25652  0.04859  1.0000
  Cu  Cu2       1.0  0.08238  0.75652  0.45141  1.0000
  Cu  Cu3       1.0  0.08238  0.74348  0.95141  1.0000
  Cu  Cu4       1.0  0.91762  0.24348  0.54859  1.0000
  Cu  Cu5       1.0  0.07079  0.26173  0.94802  1.0000
  Cu  Cu6       1.0  0.92921  0.76173  0.55198  1.0000
  Cu  Cu7       1.0  0.92921  0.73827  0.05198  1.0000
  Cu  Cu8       1.0  0.07079  0.23827  0.44802  1.0000
  Cu  Cu9       1.0  0.41653  0.23918  0.04616  1.0000
  Cu  Cu10      1.0  0.58347  0.73918  0.45384  1.0000
  Cu  Cu11      1.0  0.58347  0.76082  0.95384  1.0000
  Cu  Cu12      1.0  0.41653  0.26082  0.54616  1.0000
  Cu  Cu13      1.0  0.56766  0.24318  0.94334  1.0000
  Cu  Cu14      1.0  0.43234  0.74318  0.55666  1.0000
  Cu  Cu15      1.0  0.43234  0.75682  0.05666  1.0000
  Cu  Cu16      1.0  0.56766  0.25682  0.44334  1.0000
