data_image0
_chemical_formula_structural       C64O128Cu16
_chemical_formula_sum              "C64 O128 Cu16"
_cell_length_a       19.966
_cell_length_b       17.741
_cell_length_c       23.868
_cell_angle_alpha    90
_cell_angle_beta     92.42
_cell_angle_gamma    90

_space_group_name_H-M_alt    "P 1"
_space_group_IT_number       1

loop_
  _space_group_symop_operation_xyz
  'x, y, z'

loop_
  _atom_site_type_symbol
  _atom_site_label
  _atom_site_symmetry_multiplicity
  _atom_site_fract_x
  _atom_site_fract_y
  _atom_site_fract_z
  _atom_site_occupancy
  C   C1        1.0  0.14589  0.79019  0.15992  1.0000
  C   C2        1.0  0.85411  0.79019  0.34008  1.0000
  C   C3        1.0  0.64589  0.29019  0.15992  1.0000
  C   C4        1.0  0.35411  0.29019  0.34008  1.0000
  C   C5        1.0  0.85411  0.20981  0.84008  1.0000
  C   C6        1.0  0.14589  0.20981  0.65992  1.0000
  C   C7        1.0  0.35411  0.70981  0.84008  1.0000
  C   C8        1.0  0.64589  0.70981  0.65992  1.0000
  C   C9        1.0  0.10893  0.71434  0.16817  1.0000
  C   C10       1.0  0.89107  0.71434  0.33183  1.0000
  C   C11       1.0  0.60893  0.21434  0.16817  1.0000
  C   C12       1.0  0.39107  0.21434  0.33183  1.0000
  C   C13       1.0  0.89107  0.28566  0.83183  1.0000
  C   C14       1.0  0.10893  0.28566  0.66817  1.0000
  C   C15       1.0  0.39107  0.78566  0.83183  1.0000
  C   C16       1.0  0.60893  0.78566  0.66817  1.0000
  C   C17       1.0  0.24182  0.78699  0.98358  1.0000
  C   C18       1.0  0.75818  0.78699  0.51642  1.0000
  C   C19       1.0  0.74182  0.28699  0.98358  1.0000
  C   C20       1.0  0.25818  0.28699  0.51642  1.0000
  C   C21       1.0  0.75818  0.21301  0.01642  1.0000
  C   C22       1.0  0.24182  0.21301  0.48358  1.0000
  C   C23       1.0  0.25818  0.71301  0.01642  1.0000
  C   C24       1.0  0.74182  0.71301  0.48358  1.0000
  C   C25       1.0  0.01591  0.69526  0.98089  1.0000
  C   C26       1.0  0.98409  0.69526  0.51911  1.0000
  C   C27       1.0  0.51591  0.19526  0.98089  1.0000
  C   C28       1.0  0.48409  0.19526  0.51911  1.0000
  C   C29       1.0  0.98409  0.30474  0.01911  1.0000
  C   C30       1.0  0.01591  0.30474  0.48089  1.0000
  C   C31       1.0  0.48409  0.80474  0.01911  1.0000
  C   C32       1.0  0.51591  0.80474  0.48089  1.0000
  C   C33       1.0  0.99297  0.76379  0.01508  1.0000
  C   C34       1.0  0.00703  0.76379  0.48492  1.0000
  C   C35       1.0  0.49297  0.26379  0.01508  1.0000
  C   C36       1.0  0.50703  0.26379  0.48492  1.0000
  C   C37       1.0  0.00703  0.23621  0.98492  1.0000
  C   C38       1.0  0.99297  0.23621  0.51508  1.0000
  C   C39       1.0  0.50703  0.73621  0.98492  1.0000
  C   C40       1.0  0.49297  0.73621  0.51508  1.0000
  C   C41       1.0  0.76033  0.71053  0.01194  1.0000
  C   C42       1.0  0.23967  0.71053  0.48806  1.0000
  C   C43       1.0  0.26033  0.21053  0.01194  1.0000
  C   C44       1.0  0.73967  0.21053  0.48806  1.0000
  C   C45       1.0  0.23967  0.28947  0.98806  1.0000
  C   C46       1.0  0.76033  0.28947  0.51194  1.0000
  C   C47       1.0  0.73967  0.78947  0.98806  1.0000
  C   C48       1.0  0.26033  0.78947  0.51194  1.0000
  C   C49       1.0  0.89904  0.79131  0.84304  1.0000
  C   C50       1.0  0.10096  0.79131  0.65696  1.0000
  C   C51       1.0  0.39904  0.29131  0.84304  1.0000
  C   C52       1.0  0.60096  0.29131  0.65696  1.0000
  C   C53       1.0  0.10096  0.20869  0.15696  1.0000
  C   C54       1.0  0.89904  0.20869  0.34304  1.0000
  C   C55       1.0  0.60096  0.70869  0.15696  1.0000
  C   C56       1.0  0.39904  0.70869  0.34304  1.0000
  C   C57       1.0  0.85346  0.72150  0.83548  1.0000
  C   C58       1.0  0.14654  0.72150  0.66452  1.0000
  C   C59       1.0  0.35346  0.22150  0.83548  1.0000
  C   C60       1.0  0.64654  0.22150  0.66452  1.0000
  C   C61       1.0  0.14654  0.27850  0.16452  1.0000
  C   C62       1.0  0.85346  0.27850  0.33548  1.0000
  C   C63       1.0  0.64654  0.77850  0.16452  1.0000
  C   C64       1.0  0.35346  0.77850  0.33548  1.0000
  O   O1        1.0  0.15907  0.80809  0.11000  1.0000
  O   O2        1.0  0.84093  0.80809  0.39000  1.0000
  O   O3        1.0  0.65907  0.30809  0.11000  1.0000
  O   O4        1.0  0.34093  0.30809  0.39000  1.0000
  O   O5        1.0  0.84093  0.19191  0.89000  1.0000
  O   O6        1.0  0.15907  0.19191  0.61000  1.0000
  O   O7        1.0  0.34093  0.69191  0.89000  1.0000
  O   O8        1.0  0.65907  0.69191  0.61000  1.0000
  O   O9        1.0  0.10038  0.67335  0.12576  1.0000
  O   O10       1.0  0.89962  0.67335  0.37424  1.0000
  O   O11       1.0  0.60038  0.17335  0.12576  1.0000
  O   O12       1.0  0.39962  0.17335  0.37424  1.0000
  O   O13       1.0  0.89962  0.32665  0.87424  1.0000
  O   O14       1.0  0.10038  0.32665  0.62576  1.0000
  O   O15       1.0  0.39962  0.82665  0.87424  1.0000
  O   O16       1.0  0.60038  0.82665  0.62576  1.0000
  O   O17       1.0  0.16033  0.82793  0.20185  1.0000
  O   O18       1.0  0.83967  0.82793  0.29815  1.0000
  O   O19       1.0  0.66033  0.32793  0.20185  1.0000
  O   O20       1.0  0.33967  0.32793  0.29815  1.0000
  O   O21       1.0  0.83967  0.17207  0.79815  1.0000
  O   O22       1.0  0.16033  0.17207  0.70185  1.0000
  O   O23       1.0  0.33967  0.67207  0.79815  1.0000
  O   O24       1.0  0.66033  0.67207  0.70185  1.0000
  O   O25       1.0  0.09030  0.70074  0.21575  1.0000
  O   O26       1.0  0.90970  0.70074  0.28425  1.0000
  O   O27       1.0  0.59030  0.20074  0.21575  1.0000
  O   O28       1.0  0.40970  0.20074  0.28425  1.0000
  O   O29       1.0  0.90970  0.29926  0.78425  1.0000
  O   O30       1.0  0.09030  0.29926  0.71575  1.0000
  O   O31       1.0  0.40970  0.79926  0.78425  1.0000
  O   O32       1.0  0.59030  0.79926  0.71575  1.0000
  O   O33       1.0  0.28847  0.81510  0.95623  1.0000
  O   O34       1.0  0.71153  0.81510  0.54377  1.0000
  O   O35       1.0  0.78847  0.31510  0.95623  1.0000
  O   O36       1.0  0.21153  0.31510  0.54377  1.0000
  O   O37       1.0  0.71153  0.18490  0.04377  1.0000
  O   O38       1.0  0.28847  0.18490  0.45623  1.0000
  O   O39       1.0  0.21153  0.68490  0.04377  1.0000
  O   O40       1.0  0.78847  0.68490  0.45623  1.0000
  O   O41       1.0  0.18469  0.81331  0.98655  1.0000
  O   O42       1.0  0.81531  0.81331  0.51345  1.0000
  O   O43       1.0  0.68469  0.31331  0.98655  1.0000
  O   O44       1.0  0.31531  0.31331  0.51345  1.0000
  O   O45       1.0  0.81531  0.18669  0.01345  1.0000
  O   O46       1.0  0.18469  0.18669  0.48655  1.0000
  O   O47       1.0  0.31531  0.68669  0.01345  1.0000
  O   O48       1.0  0.68469  0.68669  0.48655  1.0000
  O   O49       1.0  0.07704  0.67659  0.98941  1.0000
  O   O50       1.0  0.92296  0.67659  0.51059  1.0000
  O   O51       1.0  0.57704  0.17659  0.98941  1.0000
  O   O52       1.0  0.42296  0.17659  0.51059  1.0000
  O   O53       1.0  0.92296  0.32341  0.01059  1.0000
  O   O54       1.0  0.07704  0.32341  0.48941  1.0000
  O   O55       1.0  0.42296  0.82341  0.01059  1.0000
  O   O56       1.0  0.57704  0.82341  0.48941  1.0000
  O   O57       1.0  0.03703  0.79400  0.04715  1.0000
  O   O58       1.0  0.96297  0.79400  0.45285  1.0000
  O   O59       1.0  0.53703  0.29400  0.04715  1.0000
  O   O60       1.0  0.46297  0.29400  0.45285  1.0000
  O   O61       1.0  0.96297  0.20600  0.95285  1.0000
  O   O62       1.0  0.03703  0.20600  0.54715  1.0000
  O   O63       1.0  0.46297  0.70600  0.95285  1.0000
  O   O64       1.0  0.53703  0.70600  0.54715  1.0000
  O   O65       1.0  0.97419  0.66355  0.94956  1.0000
  O   O66       1.0  0.02581  0.66355  0.55044  1.0000
  O   O67       1.0  0.47419  0.16355  0.94956  1.0000
  O   O68       1.0  0.52581  0.16355  0.55044  1.0000
  O   O69       1.0  0.02581  0.33645  0.05044  1.0000
  O   O70       1.0  0.97419  0.33645  0.44956  1.0000
  O   O71       1.0  0.52581  0.83645  0.05044  1.0000
  O   O72       1.0  0.47419  0.83645  0.44956  1.0000
  O   O73       1.0  0.93338  0.78503  0.01046  1.0000
  O   O74       1.0  0.06662  0.78503  0.48954  1.0000
  O   O75       1.0  0.43338  0.28503  0.01046  1.0000
  O   O76       1.0  0.56662  0.28503  0.48954  1.0000
  O   O77       1.0  0.06662  0.21497  0.98954  1.0000
  O   O78       1.0  0.93338  0.21497  0.51046  1.0000
  O   O79       1.0  0.56662  0.71497  0.98954  1.0000
  O   O80       1.0  0.43338  0.71497  0.51046  1.0000
  O   O81       1.0  0.91540  0.80840  0.89335  1.0000
  O   O82       1.0  0.08460  0.80840  0.60665  1.0000
  O   O83       1.0  0.41540  0.30840  0.89335  1.0000
  O   O84       1.0  0.58460  0.30840  0.60665  1.0000
  O   O85       1.0  0.08460  0.19160  0.10665  1.0000
  O   O86       1.0  0.91540  0.19160  0.39335  1.0000
  O   O87       1.0  0.58460  0.69160  0.10665  1.0000
  O   O88       1.0  0.41540  0.69160  0.39335  1.0000
  O   O89       1.0  0.83478  0.69166  0.88059  1.0000
  O   O90       1.0  0.16522  0.69166  0.61941  1.0000
  O   O91       1.0  0.33478  0.19166  0.88059  1.0000
  O   O92       1.0  0.66522  0.19166  0.61941  1.0000
  O   O93       1.0  0.16522  0.30834  0.11941  1.0000
  O   O94       1.0  0.83478  0.30834  0.38059  1.0000
  O   O95       1.0  0.66522  0.80834  0.11941  1.0000
  O   O96       1.0  0.33478  0.80834  0.38059  1.0000
  O   O97       1.0  0.91692  0.82497  0.80088  1.0000
  O   O98       1.0  0.08308  0.82497  0.69912  1.0000
  O   O99       1.0  0.41692  0.32497  0.80088  1.0000
  O   O100      1.0  0.58308  0.32497  0.69912  1.0000
  O   O101      1.0  0.08308  0.17503  0.19912  1.0000
  O   O102      1.0  0.91692  0.17503  0.30088  1.0000
  O   O103      1.0  0.58308  0.67503  0.19912  1.0000
  O   O104      1.0  0.41692  0.67503  0.30088  1.0000
  O   O105      1.0  0.83810  0.70072  0.78743  1.0000
  O   O106      1.0  0.16190  0.70072  0.71257  1.0000
  O   O107      1.0  0.33810  0.20072  0.78743  1.0000
  O   O108      1.0  0.66190  0.20072  0.71257  1.0000
  O   O109      1.0  0.16190  0.29928  0.21257  1.0000
  O   O110      1.0  0.83810  0.29928  0.28743  1.0000
  O   O111      1.0  0.66190  0.79928  0.21257  1.0000
  O   O112      1.0  0.33810  0.79928  0.28743  1.0000
  O   O113      1.0  0.81778  0.68584  0.99990  1.0000
  O   O114      1.0  0.18222  0.68584  0.50010  1.0000
  O   O115      1.0  0.31778  0.18584  0.99990  1.0000
  O   O116      1.0  0.68222  0.18584  0.50010  1.0000
  O   O117      1.0  0.18222  0.31416  0.00010  1.0000
  O   O118      1.0  0.81778  0.31416  0.49990  1.0000
  O   O119      1.0  0.68222  0.81416  0.00010  1.0000
  O   O120      1.0  0.31778  0.81416  0.49990  1.0000
  O   O121      1.0  0.71961  0.67757  0.04110  1.0000
  O   O122      1.0  0.28039  0.67757  0.45890  1.0000
  O   O123      1.0  0.21961  0.17757  0.04110  1.0000
  O   O124      1.0  0.78039  0.17757  0.45890  1.0000
  O   O125      1.0  0.28039  0.32243  0.95890  1.0000
  O   O126      1.0  0.71961  0.32243  0.54110  1.0000
  O   O127      1.0  0.78039  0.82243  0.95890  1.0000
  O   O128      1.0  0.21961  0.82243  0.54110  1.0000
  Cu  Cu1       1.0  0.12501  0.74007  0.04705  1.0000
  Cu  Cu2       1.0  0.87499  0.74007  0.45295  1.0000
  Cu  Cu3       1.0  0.62501  0.24007  0.04705  1.0000
  Cu  Cu4       1.0  0.37499  0.24007  0.45295  1.0000
  Cu  Cu5       1.0  0.87499  0.25993  0.95295  1.0000
  Cu  Cu6       1.0  0.12501  0.25993  0.54705  1.0000
  Cu  Cu7       1.0  0.37499  0.75993  0.95295  1.0000
  Cu  Cu8       1.0  0.62501  0.75993  0.54705  1.0000
  Cu  Cu9       1.0  0.87264  0.74368  0.94849  1.0000
  Cu  Cu10      1.0  0.12736  0.74368  0.55151  1.0000
  Cu  Cu11      1.0  0.37264  0.24368  0.94849  1.0000
  Cu  Cu12      1.0  0.62736  0.24368  0.55151  1.0000
  Cu  Cu13      1.0  0.12736  0.25632  0.05151  1.0000
  Cu  Cu14      1.0  0.87264  0.25632  0.44849  1.0000
  Cu  Cu15      1.0  0.62736  0.75632  0.05151  1.0000
  Cu  Cu16      1.0  0.37264  0.75632  0.44849  1.0000
