data_image0
_chemical_formula_structural       Fe8P4H4O36C12
_chemical_formula_sum              "Fe8 P4 H4 O36 C12"
_cell_length_a       7.7286
_cell_length_b       7.5874
_cell_length_c       17.9816
_cell_angle_alpha    90
_cell_angle_beta     98.214
_cell_angle_gamma    90

_space_group_name_H-M_alt    "P 1"
_space_group_IT_number       1

loop_
  _space_group_symop_operation_xyz
  'x, y, z'

loop_
  _atom_site_type_symbol
  _atom_site_label
  _atom_site_symmetry_multiplicity
  _atom_site_fract_x
  _atom_site_fract_y
  _atom_site_fract_z
  _atom_site_occupancy
  Fe  Fe1       1.0  0.62459  0.93867  0.36313  1.0000
  Fe  Fe2       1.0  0.37541  0.43867  0.13687  1.0000
  Fe  Fe3       1.0  0.37541  0.06133  0.63687  1.0000
  Fe  Fe4       1.0  0.62459  0.56133  0.86313  1.0000
  Fe  Fe5       1.0  0.72445  0.81528  0.69250  1.0000
  Fe  Fe6       1.0  0.27555  0.31528  0.80750  1.0000
  Fe  Fe7       1.0  0.27555  0.18472  0.30750  1.0000
  Fe  Fe8       1.0  0.72445  0.68472  0.19250  1.0000
  P   P1        1.0  0.55016  0.07134  0.19010  1.0000
  P   P2        1.0  0.44984  0.57134  0.30990  1.0000
  P   P3        1.0  0.44984  0.92866  0.80990  1.0000
  P   P4        1.0  0.55016  0.42866  0.69010  1.0000
  H   H1        1.0  0.65800  0.14030  0.20110  1.0000
  H   H2        1.0  0.34200  0.64030  0.29890  1.0000
  H   H3        1.0  0.34200  0.85970  0.79890  1.0000
  H   H4        1.0  0.65800  0.35970  0.70110  1.0000
  O   O1        1.0  0.42310  0.17970  0.13555  1.0000
  O   O2        1.0  0.57690  0.67970  0.36445  1.0000
  O   O3        1.0  0.57690  0.82030  0.86445  1.0000
  O   O4        1.0  0.42310  0.32030  0.63555  1.0000
  O   O5        1.0  0.20770  0.65380  0.12343  1.0000
  O   O6        1.0  0.79230  0.15380  0.37657  1.0000
  O   O7        1.0  0.79230  0.34620  0.87657  1.0000
  O   O8        1.0  0.20770  0.84620  0.62343  1.0000
  O   O9        1.0  0.59340  0.96140  0.59293  1.0000
  O   O10       1.0  0.40660  0.46140  0.90707  1.0000
  O   O11       1.0  0.40660  0.03860  0.40707  1.0000
  O   O12       1.0  0.59340  0.53860  0.09293  1.0000
  O   O13       1.0  0.47900  0.04550  0.26443  1.0000
  O   O14       1.0  0.52100  0.54550  0.23557  1.0000
  O   O15       1.0  0.52100  0.95450  0.73557  1.0000
  O   O16       1.0  0.47900  0.45450  0.76443  1.0000
  O   O17       1.0  0.29890  0.09090  0.51394  1.0000
  O   O18       1.0  0.70110  0.59090  0.98606  1.0000
  O   O19       1.0  0.70110  0.90910  0.48606  1.0000
  O   O20       1.0  0.29890  0.40910  0.01394  1.0000
  O   O21       1.0  0.15490  0.35920  0.20149  1.0000
  O   O22       1.0  0.84510  0.85920  0.29851  1.0000
  O   O23       1.0  0.84510  0.64080  0.79851  1.0000
  O   O24       1.0  0.15490  0.14080  0.70149  1.0000
  O   O25       1.0  0.59730  0.90110  0.15513  1.0000
  O   O26       1.0  0.40270  0.40110  0.34487  1.0000
  O   O27       1.0  0.40270  0.09890  0.84487  1.0000
  O   O28       1.0  0.59730  0.59890  0.65513  1.0000
  O   O29       1.0  0.89770  0.47170  0.22425  1.0000
  O   O30       1.0  0.10230  0.97170  0.27575  1.0000
  O   O31       1.0  0.10230  0.52830  0.77575  1.0000
  O   O32       1.0  0.89770  0.02830  0.72425  1.0000
  O   O33       1.0  0.94760  0.75290  0.14086  1.0000
  O   O34       1.0  0.05240  0.25290  0.35914  1.0000
  O   O35       1.0  0.05240  0.24710  0.85914  1.0000
  O   O36       1.0  0.94760  0.74710  0.64086  1.0000
  C   C1        1.0  0.03690  0.47530  0.19630  1.0000
  C   C2        1.0  0.96310  0.97530  0.30370  1.0000
  C   C3        1.0  0.96310  0.52470  0.80370  1.0000
  C   C4        1.0  0.03690  0.02470  0.69630  1.0000
  C   C5        1.0  0.06680  0.64120  0.14950  1.0000
  C   C6        1.0  0.93320  0.14120  0.35050  1.0000
  C   C7        1.0  0.93320  0.35880  0.85050  1.0000
  C   C8        1.0  0.06680  0.85880  0.64950  1.0000
  C   C9        1.0  0.58640  0.96180  0.52180  1.0000
  C   C10       1.0  0.41360  0.46180  0.97820  1.0000
  C   C11       1.0  0.41360  0.03820  0.47820  1.0000
  C   C12       1.0  0.58640  0.53820  0.02180  1.0000
