data_image0
_chemical_formula_structural       Cu2O16C8
_chemical_formula_sum              "Cu2 O16 C8"
_cell_length_a       9.316
_cell_length_b       12.875
_cell_length_c       12.988
_cell_angle_alpha    63.767
_cell_angle_beta     87.54
_cell_angle_gamma    73.539

_space_group_name_H-M_alt    "P 1"
_space_group_IT_number       1

loop_
  _space_group_symop_operation_xyz
  'x, y, z'

loop_
  _atom_site_type_symbol
  _atom_site_label
  _atom_site_symmetry_multiplicity
  _atom_site_fract_x
  _atom_site_fract_y
  _atom_site_fract_z
  _atom_site_occupancy
  Cu  Cu1       1.0  0.23343  0.03202  0.60363  1.0000
  Cu  Cu2       1.0  0.76657  0.96798  0.39637  1.0000
  O   O1        1.0  0.98730  0.13620  0.50450  1.0000
  O   O2        1.0  0.01270  0.86380  0.49550  1.0000
  O   O3        1.0  0.81550  0.08640  0.43580  1.0000
  O   O4        1.0  0.18450  0.91360  0.56420  1.0000
  O   O5        1.0  0.32030  0.10730  0.45680  1.0000
  O   O6        1.0  0.67970  0.89270  0.54320  1.0000
  O   O7        1.0  0.51890  0.09120  0.35640  1.0000
  O   O8        1.0  0.48110  0.90880  0.64360  1.0000
  O   O9        1.0  0.25610  0.15290  0.65040  1.0000
  O   O10       1.0  0.74390  0.84710  0.34960  1.0000
  O   O11       1.0  0.15320  0.96580  0.75270  1.0000
  O   O12       1.0  0.84680  0.03420  0.24730  1.0000
  O   O13       1.0  0.19990  0.20660  0.79300  1.0000
  O   O14       1.0  0.80010  0.79340  0.20700  1.0000
  O   O15       1.0  0.07040  0.02090  0.89060  1.0000
  O   O16       1.0  0.92960  0.97910  0.10940  1.0000
  C   C1        1.0  0.94280  0.06430  0.48280  1.0000
  C   C2        1.0  0.05720  0.93570  0.51720  1.0000
  C   C3        1.0  0.45530  0.05730  0.44550  1.0000
  C   C4        1.0  0.54470  0.94270  0.55450  1.0000
  C   C5        1.0  0.20310  0.14090  0.74500  1.0000
  C   C6        1.0  0.79690  0.85910  0.25500  1.0000
  C   C7        1.0  0.13680  0.03340  0.80330  1.0000
  C   C8        1.0  0.86320  0.96660  0.19670  1.0000
