data_image0
_chemical_formula_structural       Zn4P6O2H2O8H2O2H2O8H2O4N12C2H2C2H4C2H4C6H2C2H2C2H2C2H2C2H2C2H4C2H4C4H2C2H2C2H2C2H2C4H2C2H4C2H4C4H2C2H2C2H2C2H2C2
_chemical_formula_sum              "Zn4 P6 O24 H62 N12 C54"
_cell_length_a       10.3187
_cell_length_b       13.6651
_cell_length_c       16.1419
_cell_angle_alpha    102.047
_cell_angle_beta     108.58
_cell_angle_gamma    99.147

_space_group_name_H-M_alt    "P 1"
_space_group_IT_number       1

loop_
  _space_group_symop_operation_xyz
  'x, y, z'

loop_
  _atom_site_type_symbol
  _atom_site_label
  _atom_site_symmetry_multiplicity
  _atom_site_fract_x
  _atom_site_fract_y
  _atom_site_fract_z
  _atom_site_occupancy
  Zn  Zn1       1.0  0.71330  0.25236  0.23993  1.0000
  Zn  Zn2       1.0  0.28670  0.74764  0.76007  1.0000
  Zn  Zn3       1.0  0.52480  0.20680  0.87462  1.0000
  Zn  Zn4       1.0  0.47520  0.79320  0.12538  1.0000
  P   P1        1.0  0.46310  0.24439  0.05976  1.0000
  P   P2        1.0  0.53690  0.75561  0.94024  1.0000
  P   P3        1.0  0.48359  0.41480  0.80423  1.0000
  P   P4        1.0  0.51641  0.58520  0.19577  1.0000
  P   P5        1.0  0.62010  0.01914  0.17377  1.0000
  P   P6        1.0  0.37990  0.98086  0.82623  1.0000
  O   O1        1.0  0.34930  0.30860  0.03950  1.0000
  O   O2        1.0  0.65070  0.69140  0.96050  1.0000
  H   H1        1.0  0.36050  0.35920  0.05740  1.0000
  H   H2        1.0  0.63950  0.64080  0.94260  1.0000
  O   O3        1.0  0.55320  0.28470  0.16030  1.0000
  O   O4        1.0  0.44680  0.71530  0.83970  1.0000
  O   O5        1.0  0.38110  0.13290  0.03310  1.0000
  O   O6        1.0  0.61890  0.86710  0.96690  1.0000
  O   O7        1.0  0.55290  0.26010  0.00230  1.0000
  O   O8        1.0  0.44710  0.73990  0.99770  1.0000
  O   O9        1.0  0.34010  0.44380  0.79980  1.0000
  O   O10       1.0  0.65990  0.55620  0.20020  1.0000
  H   H3        1.0  0.33520  0.46330  0.84710  1.0000
  H   H4        1.0  0.66480  0.53670  0.15290  1.0000
  O   O11       1.0  0.48790  0.41660  0.70870  1.0000
  O   O12       1.0  0.51210  0.58340  0.29130  1.0000
  H   H5        1.0  0.49230  0.38570  0.67410  1.0000
  H   H6        1.0  0.50770  0.61430  0.32590  1.0000
  O   O13       1.0  0.60450  0.49610  0.87710  1.0000
  O   O14       1.0  0.39550  0.50390  0.12290  1.0000
  O   O15       1.0  0.47390  0.30650  0.81090  1.0000
  O   O16       1.0  0.52610  0.69350  0.18910  1.0000
  O   O17       1.0  0.68610  0.02690  0.09990  1.0000
  O   O18       1.0  0.31390  0.97310  0.90010  1.0000
  O   O19       1.0  0.46180  0.01990  0.13420  1.0000
  O   O20       1.0  0.53820  0.98010  0.86580  1.0000
  H   H7        1.0  0.43680  0.06460  0.09760  1.0000
  H   H8        1.0  0.56320  0.93540  0.90240  1.0000
  O   O21       1.0  0.62430  0.91850  0.19790  1.0000
  O   O22       1.0  0.37570  0.08150  0.80210  1.0000
  O   O23       1.0  0.70260  0.11410  0.25360  1.0000
  O   O24       1.0  0.29740  0.88590  0.74640  1.0000
  N   N1        1.0  0.87950  0.30390  0.20830  1.0000
  N   N2        1.0  0.12050  0.69610  0.79170  1.0000
  N   N3        1.0  0.01530  0.41160  0.16760  1.0000
  N   N4        1.0  0.98470  0.58840  0.83240  1.0000
  N   N5        1.0  0.72270  0.19690  0.88930  1.0000
  N   N6        1.0  0.27730  0.80310  0.11070  1.0000
  N   N7        1.0  0.93400  0.17050  0.95500  1.0000
  N   N8        1.0  0.06600  0.82950  0.04500  1.0000
  N   N9        1.0  0.74290  0.34610  0.36180  1.0000
  N   N10       1.0  0.25710  0.65390  0.63820  1.0000
  N   N11       1.0  0.73410  0.47840  0.46510  1.0000
  N   N12       1.0  0.26590  0.52160  0.53490  1.0000
  C   C1        1.0  0.88650  0.38140  0.17280  1.0000
  C   C2        1.0  0.11350  0.61860  0.82720  1.0000
  H   H9        1.0  0.81080  0.41290  0.15300  1.0000
  H   H10       1.0  0.18920  0.58710  0.84700  1.0000
  C   C3        1.0  0.04810  0.49370  0.12440  1.0000
  C   C4        1.0  0.95190  0.50630  0.87560  1.0000
  H   H11       1.0  0.15150  0.52160  0.14770  1.0000
  H   H12       1.0  0.84850  0.47840  0.85230  1.0000
  H   H13       1.0  0.00540  0.55070  0.14210  1.0000
  H   H14       1.0  0.99460  0.44930  0.85790  1.0000
  C   C5        1.0  0.99420  0.45520  0.02100  1.0000
  C   C6        1.0  0.00580  0.54480  0.97900  1.0000
  H   H15       1.0  0.89460  0.41610  0.99800  1.0000
  H   H16       1.0  0.10540  0.58390  0.00200  1.0000
  H   H17       1.0  0.04980  0.40780  0.00270  1.0000
  H   H18       1.0  0.95020  0.59220  0.99730  1.0000
  C   C7        1.0  0.09660  0.34880  0.20280  1.0000
  C   C8        1.0  0.90340  0.65120  0.79720  1.0000
  C   C9        1.0  0.01230  0.28090  0.22830  1.0000
  C   C10       1.0  0.98770  0.71910  0.77170  1.0000
  C   C11       1.0  0.05990  0.20270  0.26360  1.0000
  C   C12       1.0  0.94010  0.79730  0.73640  1.0000
  H   H19       1.0  0.00100  0.15540  0.27980  1.0000
  H   H20       1.0  0.99900  0.84460  0.72020  1.0000
  C   C13       1.0  0.19620  0.19730  0.27410  1.0000
  C   C14       1.0  0.80380  0.80270  0.72590  1.0000
  H   H21       1.0  0.23240  0.14550  0.29840  1.0000
  H   H22       1.0  0.76760  0.85450  0.70160  1.0000
  C   C15       1.0  0.28310  0.26700  0.24940  1.0000
  C   C16       1.0  0.71690  0.73300  0.75060  1.0000
  H   H23       1.0  0.37610  0.26060  0.25650  1.0000
  H   H24       1.0  0.62390  0.73940  0.74350  1.0000
  C   C17       1.0  0.23540  0.34500  0.21470  1.0000
  C   C18       1.0  0.76460  0.65500  0.78530  1.0000
  H   H25       1.0  0.29470  0.39350  0.19980  1.0000
  H   H26       1.0  0.70530  0.60650  0.80020  1.0000
  C   C19       1.0  0.80620  0.17250  0.95790  1.0000
  C   C20       1.0  0.19380  0.82750  0.04210  1.0000
  H   H27       1.0  0.77840  0.15750  0.00550  1.0000
  H   H28       1.0  0.22160  0.84250  0.99450  1.0000
  C   C21       1.0  0.05110  0.14870  0.02160  1.0000
  C   C22       1.0  0.94890  0.85130  0.97840  1.0000
  H   H29       1.0  0.04090  0.16570  0.08160  1.0000
  H   H30       1.0  0.95910  0.83430  0.91840  1.0000
  H   H31       1.0  0.14030  0.19400  0.02730  1.0000
  H   H32       1.0  0.85970  0.80600  0.97270  1.0000
  C   C23       1.0  0.06030  0.03700  0.99740  1.0000
  C   C24       1.0  0.93970  0.96300  0.00260  1.0000
  H   H33       1.0  0.06110  0.01780  0.93500  1.0000
  H   H34       1.0  0.93890  0.98220  0.06500  1.0000
  H   H35       1.0  0.15020  0.03040  0.03950  1.0000
  H   H36       1.0  0.84980  0.96960  0.96050  1.0000
  C   C25       1.0  0.93540  0.19590  0.87630  1.0000
  C   C26       1.0  0.06460  0.80410  0.12370  1.0000
  C   C27       1.0  0.04030  0.20740  0.83990  1.0000
  C   C28       1.0  0.95970  0.79260  0.16010  1.0000
  H   H37       1.0  0.13040  0.19580  0.86800  1.0000
  H   H38       1.0  0.86960  0.80420  0.13200  1.0000
  C   C29       1.0  0.00530  0.23680  0.76020  1.0000
  C   C30       1.0  0.99470  0.76320  0.23980  1.0000
  H   H39       1.0  0.07430  0.24700  0.73340  1.0000
  H   H40       1.0  0.92570  0.75300  0.26660  1.0000
  C   C31       1.0  0.87160  0.25200  0.71740  1.0000
  C   C32       1.0  0.12840  0.74800  0.28260  1.0000
  H   H41       1.0  0.85190  0.27050  0.66190  1.0000
  H   H42       1.0  0.14810  0.72950  0.33810  1.0000
  C   C33       1.0  0.76770  0.24080  0.75430  1.0000
  C   C34       1.0  0.23230  0.75920  0.24570  1.0000
  H   H43       1.0  0.67760  0.25200  0.72590  1.0000
  H   H44       1.0  0.32240  0.74800  0.27410  1.0000
  C   C35       1.0  0.80190  0.21200  0.83530  1.0000
  C   C36       1.0  0.19810  0.78800  0.16470  1.0000
  C   C37       1.0  0.67970  0.42080  0.37670  1.0000
  C   C38       1.0  0.32030  0.57920  0.62330  1.0000
  H   H45       1.0  0.60460  0.43310  0.33100  1.0000
  H   H46       1.0  0.39540  0.56690  0.66900  1.0000
  C   C39       1.0  0.68610  0.56610  0.50510  1.0000
  C   C40       1.0  0.31390  0.43390  0.49490  1.0000
  H   H47       1.0  0.65160  0.60290  0.45890  1.0000
  H   H48       1.0  0.34840  0.39710  0.54110  1.0000
  H   H49       1.0  0.76670  0.61480  0.55670  1.0000
  H   H50       1.0  0.23330  0.38520  0.44330  1.0000
  C   C41       1.0  0.56840  0.53120  0.53860  1.0000
  C   C42       1.0  0.43160  0.46880  0.46140  1.0000
  H   H51       1.0  0.60010  0.48880  0.58040  1.0000
  H   H52       1.0  0.39990  0.51120  0.41960  1.0000
  H   H53       1.0  0.55010  0.59270  0.57350  1.0000
  H   H54       1.0  0.44990  0.40730  0.42650  1.0000
  C   C43       1.0  0.84130  0.43770  0.51020  1.0000
  C   C44       1.0  0.15870  0.56230  0.48980  1.0000
  C   C45       1.0  0.93680  0.46860  0.60010  1.0000
  C   C46       1.0  0.06320  0.53140  0.39990  1.0000
  H   H55       1.0  0.93200  0.52490  0.64400  1.0000
  H   H56       1.0  0.06800  0.47510  0.35600  1.0000
  C   C47       1.0  0.03850  0.41370  0.62220  1.0000
  C   C48       1.0  0.96150  0.58630  0.37780  1.0000
  H   H57       1.0  0.10600  0.43320  0.68250  1.0000
  H   H58       1.0  0.89400  0.56680  0.31750  1.0000
  C   C49       1.0  0.04400  0.33060  0.55800  1.0000
  C   C50       1.0  0.95600  0.66940  0.44200  1.0000
  H   H59       1.0  0.11520  0.29460  0.57570  1.0000
  H   H60       1.0  0.88480  0.70540  0.42430  1.0000
  C   C51       1.0  0.94780  0.29830  0.46830  1.0000
  C   C52       1.0  0.05220  0.70170  0.53170  1.0000
  H   H61       1.0  0.95130  0.24090  0.42490  1.0000
  H   H62       1.0  0.04870  0.75910  0.57510  1.0000
  C   C53       1.0  0.84680  0.35430  0.44580  1.0000
  C   C54       1.0  0.15320  0.64570  0.55420  1.0000
