data_image0
_chemical_formula_structural       C16N4O12N4C8Cu2O4H8
_chemical_formula_sum              "C24 N8 O16 Cu2 H8"
_cell_length_a       6.625
_cell_length_b       11.6
_cell_length_c       18.438
_cell_angle_alpha    90
_cell_angle_beta     99.992
_cell_angle_gamma    90

_space_group_name_H-M_alt    "P 1"
_space_group_IT_number       1

loop_
  _space_group_symop_operation_xyz
  'x, y, z'

loop_
  _atom_site_type_symbol
  _atom_site_label
  _atom_site_symmetry_multiplicity
  _atom_site_fract_x
  _atom_site_fract_y
  _atom_site_fract_z
  _atom_site_occupancy
  C   C1        1.0  0.89800  0.27330  0.45722  1.0000
  C   C2        1.0  0.10200  0.77330  0.04278  1.0000
  C   C3        1.0  0.10200  0.72670  0.54278  1.0000
  C   C4        1.0  0.89800  0.22670  0.95722  1.0000
  C   C5        1.0  0.10950  0.05530  0.35072  1.0000
  C   C6        1.0  0.89050  0.55530  0.14928  1.0000
  C   C7        1.0  0.89050  0.94470  0.64928  1.0000
  C   C8        1.0  0.10950  0.44470  0.85072  1.0000
  C   C9        1.0  0.74230  0.21640  0.48418  1.0000
  C   C10       1.0  0.25770  0.71640  0.01582  1.0000
  C   C11       1.0  0.25770  0.78360  0.51582  1.0000
  C   C12       1.0  0.74230  0.28360  0.98418  1.0000
  C   C13       1.0  0.97980  0.10870  0.40151  1.0000
  C   C14       1.0  0.02020  0.60870  0.09849  1.0000
  C   C15       1.0  0.02020  0.89130  0.59849  1.0000
  C   C16       1.0  0.97980  0.39130  0.90151  1.0000
  N   N1        1.0  0.01620  0.22144  0.41563  1.0000
  N   N2        1.0  0.98380  0.72144  0.08437  1.0000
  N   N3        1.0  0.98380  0.77856  0.58437  1.0000
  N   N4        1.0  0.01620  0.27856  0.91563  1.0000
  O   O1        1.0  0.03930  0.05866  0.28377  1.0000
  O   O2        1.0  0.96070  0.55866  0.21623  1.0000
  O   O3        1.0  0.96070  0.94134  0.71623  1.0000
  O   O4        1.0  0.03930  0.44134  0.78377  1.0000
  O   O5        1.0  0.89950  0.86254  0.38760  1.0000
  O   O6        1.0  0.10050  0.36254  0.11240  1.0000
  O   O7        1.0  0.10050  0.13746  0.61240  1.0000
  O   O8        1.0  0.89950  0.63746  0.88760  1.0000
  O   O9        1.0  0.64210  0.88307  0.45091  1.0000
  O   O10       1.0  0.35790  0.38307  0.04909  1.0000
  O   O11       1.0  0.35790  0.11693  0.54909  1.0000
  O   O12       1.0  0.64210  0.61693  0.95091  1.0000
  N   N5        1.0  0.70880  0.10492  0.47001  1.0000
  N   N6        1.0  0.29120  0.60492  0.02999  1.0000
  N   N7        1.0  0.29120  0.89508  0.52999  1.0000
  N   N8        1.0  0.70880  0.39508  0.97001  1.0000
  C   C17       1.0  0.83060  0.04900  0.43017  1.0000
  C   C18       1.0  0.16940  0.54900  0.06983  1.0000
  C   C19       1.0  0.16940  0.95100  0.56983  1.0000
  C   C20       1.0  0.83060  0.45100  0.93017  1.0000
  C   C21       1.0  0.79070  0.92090  0.42098  1.0000
  C   C22       1.0  0.20930  0.42090  0.07902  1.0000
  C   C23       1.0  0.20930  0.07910  0.57902  1.0000
  C   C24       1.0  0.79070  0.57910  0.92098  1.0000
  Cu  Cu1       1.0  0.50000  0.00000  0.50000  1.0000
  Cu  Cu2       1.0  0.50000  0.50000  0.00000  1.0000
  O   O13       1.0  0.28270  0.01647  0.38011  1.0000
  O   O14       1.0  0.71730  0.51647  0.11989  1.0000
  O   O15       1.0  0.71730  0.98353  0.61989  1.0000
  O   O16       1.0  0.28270  0.48353  0.88011  1.0000
  H   H1        1.0  0.92900  0.35300  0.46910  1.0000
  H   H2        1.0  0.07100  0.85300  0.03090  1.0000
  H   H3        1.0  0.07100  0.64700  0.53090  1.0000
  H   H4        1.0  0.92900  0.14700  0.96910  1.0000
  H   H5        1.0  0.66100  0.25300  0.51240  1.0000
  H   H6        1.0  0.33900  0.75300  0.98760  1.0000
  H   H7        1.0  0.33900  0.74700  0.48760  1.0000
  H   H8        1.0  0.66100  0.24700  0.01240  1.0000
