data_image0
_chemical_formula_structural       Zn4P8O24H4C4H8C4H8C4H8
_chemical_formula_sum              "Zn4 P8 O24 H28 C12"
_cell_length_a       8.854
_cell_length_b       13.474
_cell_length_c       9.815
_cell_angle_alpha    90
_cell_angle_beta     98.523
_cell_angle_gamma    90

_space_group_name_H-M_alt    "P 1"
_space_group_IT_number       1

loop_
  _space_group_symop_operation_xyz
  'x, y, z'

loop_
  _atom_site_type_symbol
  _atom_site_label
  _atom_site_symmetry_multiplicity
  _atom_site_fract_x
  _atom_site_fract_y
  _atom_site_fract_z
  _atom_site_occupancy
  Zn  Zn1       1.0  0.63701  0.35962  0.57574  1.0000
  Zn  Zn2       1.0  0.36299  0.85962  0.92426  1.0000
  Zn  Zn3       1.0  0.36299  0.64038  0.42426  1.0000
  Zn  Zn4       1.0  0.63701  0.14038  0.07574  1.0000
  P   P1        1.0  0.77191  0.21931  0.81714  1.0000
  P   P2        1.0  0.22809  0.71931  0.68286  1.0000
  P   P3        1.0  0.22809  0.78069  0.18286  1.0000
  P   P4        1.0  0.77191  0.28069  0.31714  1.0000
  P   P5        1.0  0.29781  0.08141  0.00345  1.0000
  P   P6        1.0  0.70219  0.58141  0.49655  1.0000
  P   P7        1.0  0.70219  0.91859  0.99655  1.0000
  P   P8        1.0  0.29781  0.41859  0.50345  1.0000
  O   O1        1.0  0.66213  0.30283  0.75958  1.0000
  O   O2        1.0  0.33787  0.80283  0.74042  1.0000
  O   O3        1.0  0.33787  0.69717  0.24042  1.0000
  O   O4        1.0  0.66213  0.19717  0.25958  1.0000
  O   O5        1.0  0.73505  0.12103  0.74268  1.0000
  O   O6        1.0  0.26495  0.62103  0.75732  1.0000
  O   O7        1.0  0.26495  0.87897  0.25732  1.0000
  O   O8        1.0  0.73505  0.37897  0.24268  1.0000
  O   O9        1.0  0.77053  0.21249  0.97222  1.0000
  O   O10       1.0  0.22947  0.71249  0.52778  1.0000
  O   O11       1.0  0.22947  0.78751  0.02778  1.0000
  O   O12       1.0  0.77053  0.28751  0.47222  1.0000
  O   O13       1.0  0.42617  0.15388  0.99214  1.0000
  O   O14       1.0  0.57383  0.65388  0.50786  1.0000
  O   O15       1.0  0.57383  0.84612  0.00786  1.0000
  O   O16       1.0  0.42617  0.34612  0.49214  1.0000
  O   O17       1.0  0.28963  0.99477  0.90466  1.0000
  O   O18       1.0  0.71037  0.49477  0.59534  1.0000
  O   O19       1.0  0.71037  0.00523  0.09534  1.0000
  O   O20       1.0  0.28963  0.50523  0.40466  1.0000
  O   O21       1.0  0.31420  0.04640  0.15700  1.0000
  O   O22       1.0  0.68580  0.54640  0.34300  1.0000
  O   O23       1.0  0.68580  0.95360  0.84300  1.0000
  O   O24       1.0  0.31420  0.45360  0.65700  1.0000
  H   H1        1.0  0.29000  0.98780  0.15960  1.0000
  H   H2        1.0  0.71000  0.48780  0.34040  1.0000
  H   H3        1.0  0.71000  0.01220  0.84040  1.0000
  H   H4        1.0  0.29000  0.51220  0.65960  1.0000
  C   C1        1.0  0.12290  0.14939  0.96840  1.0000
  C   C2        1.0  0.87710  0.64939  0.53160  1.0000
  C   C3        1.0  0.87710  0.85061  0.03160  1.0000
  C   C4        1.0  0.12290  0.35061  0.46840  1.0000
  H   H5        1.0  0.03980  0.10810  0.98990  1.0000
  H   H6        1.0  0.96020  0.60810  0.51010  1.0000
  H   H7        1.0  0.96020  0.89190  0.01010  1.0000
  H   H8        1.0  0.03980  0.39190  0.48990  1.0000
  H   H9        1.0  0.12890  0.20730  0.02770  1.0000
  H   H10       1.0  0.87110  0.70730  0.47230  1.0000
  H   H11       1.0  0.87110  0.79270  0.97230  1.0000
  H   H12       1.0  0.12890  0.29270  0.52770  1.0000
  C   C5        1.0  0.08790  0.18283  0.81800  1.0000
  C   C6        1.0  0.91210  0.68283  0.68200  1.0000
  C   C7        1.0  0.91210  0.81717  0.18200  1.0000
  C   C8        1.0  0.08790  0.31717  0.31800  1.0000
  H   H13       1.0  0.06000  0.12510  0.76060  1.0000
  H   H14       1.0  0.94000  0.62510  0.73940  1.0000
  H   H15       1.0  0.94000  0.87490  0.23940  1.0000
  H   H16       1.0  0.06000  0.37490  0.26060  1.0000
  H   H17       1.0  0.17990  0.21080  0.79080  1.0000
  H   H18       1.0  0.82010  0.71080  0.70920  1.0000
  H   H19       1.0  0.82010  0.78920  0.20920  1.0000
  H   H20       1.0  0.17990  0.28920  0.29080  1.0000
  C   C9        1.0  0.95960  0.25960  0.79060  1.0000
  C   C10       1.0  0.04040  0.75960  0.70940  1.0000
  C   C11       1.0  0.04040  0.74040  0.20940  1.0000
  C   C12       1.0  0.95960  0.24040  0.29060  1.0000
  H   H21       1.0  0.95370  0.28200  0.69600  1.0000
  H   H22       1.0  0.04630  0.78200  0.80400  1.0000
  H   H23       1.0  0.04630  0.71800  0.30400  1.0000
  H   H24       1.0  0.95370  0.21800  0.19600  1.0000
  H   H25       1.0  0.98760  0.31650  0.84950  1.0000
  H   H26       1.0  0.01240  0.81650  0.65050  1.0000
  H   H27       1.0  0.01240  0.68350  0.15050  1.0000
  H   H28       1.0  0.98760  0.18350  0.34950  1.0000
