data_image0
_chemical_formula_structural       Zn8P12O4H4O32C4H8C4H8C4H8
_chemical_formula_sum              "Zn8 P12 O36 H28 C12"
_cell_length_a       8.5989
_cell_length_b       17.044
_cell_length_c       10.165
_cell_angle_alpha    90
_cell_angle_beta     108.434
_cell_angle_gamma    90

_space_group_name_H-M_alt    "P 1"
_space_group_IT_number       1

loop_
  _space_group_symop_operation_xyz
  'x, y, z'

loop_
  _atom_site_type_symbol
  _atom_site_label
  _atom_site_symmetry_multiplicity
  _atom_site_fract_x
  _atom_site_fract_y
  _atom_site_fract_z
  _atom_site_occupancy
  Zn  Zn1       1.0  0.10572  0.17166  0.92118  1.0000
  Zn  Zn2       1.0  0.89428  0.67166  0.57882  1.0000
  Zn  Zn3       1.0  0.89428  0.82834  0.07882  1.0000
  Zn  Zn4       1.0  0.10572  0.32834  0.42118  1.0000
  Zn  Zn5       1.0  0.12258  0.83164  0.82182  1.0000
  Zn  Zn6       1.0  0.87742  0.33164  0.67818  1.0000
  Zn  Zn7       1.0  0.87742  0.16836  0.17818  1.0000
  Zn  Zn8       1.0  0.12258  0.66836  0.32182  1.0000
  P   P1        1.0  0.24102  0.99648  0.99165  1.0000
  P   P2        1.0  0.75898  0.49648  0.50835  1.0000
  P   P3        1.0  0.75898  0.00352  0.00835  1.0000
  P   P4        1.0  0.24102  0.50352  0.49165  1.0000
  P   P5        1.0  0.76414  0.24774  0.89456  1.0000
  P   P6        1.0  0.23586  0.74774  0.60544  1.0000
  P   P7        1.0  0.23586  0.75226  0.10544  1.0000
  P   P8        1.0  0.76414  0.25226  0.39456  1.0000
  P   P9        1.0  0.22444  0.26095  0.71489  1.0000
  P   P10       1.0  0.77556  0.76095  0.78511  1.0000
  P   P11       1.0  0.77556  0.73905  0.28511  1.0000
  P   P12       1.0  0.22444  0.23905  0.21489  1.0000
  O   O1        1.0  0.27500  0.95690  0.13690  1.0000
  O   O2        1.0  0.72500  0.45690  0.36310  1.0000
  O   O3        1.0  0.72500  0.04310  0.86310  1.0000
  O   O4        1.0  0.27500  0.54310  0.63690  1.0000
  H   H1        1.0  0.22690  0.91470  0.12770  1.0000
  H   H2        1.0  0.77310  0.41470  0.37230  1.0000
  H   H3        1.0  0.77310  0.08530  0.87230  1.0000
  H   H4        1.0  0.22690  0.58530  0.62770  1.0000
  O   O5        1.0  0.18780  0.93790  0.87600  1.0000
  O   O6        1.0  0.81220  0.43790  0.62400  1.0000
  O   O7        1.0  0.81220  0.06210  0.12400  1.0000
  O   O8        1.0  0.18780  0.56210  0.37600  1.0000
  O   O9        1.0  0.12450  0.06380  0.97540  1.0000
  O   O10       1.0  0.87550  0.56380  0.52460  1.0000
  O   O11       1.0  0.87550  0.93620  0.02460  1.0000
  O   O12       1.0  0.12450  0.43620  0.47540  1.0000
  O   O13       1.0  0.81720  0.32653  0.84980  1.0000
  O   O14       1.0  0.18280  0.82653  0.65020  1.0000
  O   O15       1.0  0.18280  0.67347  0.15020  1.0000
  O   O16       1.0  0.81720  0.17347  0.34980  1.0000
  O   O17       1.0  0.86580  0.18014  0.86330  1.0000
  O   O18       1.0  0.13420  0.68014  0.63670  1.0000
  O   O19       1.0  0.13420  0.81986  0.13670  1.0000
  O   O20       1.0  0.86580  0.31986  0.36330  1.0000
  O   O21       1.0  0.77300  0.24960  0.04670  1.0000
  O   O22       1.0  0.22700  0.74960  0.45330  1.0000
  O   O23       1.0  0.22700  0.75040  0.95330  1.0000
  O   O24       1.0  0.77300  0.25040  0.54670  1.0000
  O   O25       1.0  0.11380  0.32357  0.74370  1.0000
  O   O26       1.0  0.88620  0.82357  0.75630  1.0000
  O   O27       1.0  0.88620  0.67643  0.25630  1.0000
  O   O28       1.0  0.11380  0.17643  0.24370  1.0000
  O   O29       1.0  0.18810  0.17902  0.76270  1.0000
  O   O30       1.0  0.81190  0.67902  0.73730  1.0000
  O   O31       1.0  0.81190  0.82098  0.23730  1.0000
  O   O32       1.0  0.18810  0.32098  0.26270  1.0000
  O   O33       1.0  0.21570  0.25460  0.56330  1.0000
  O   O34       1.0  0.78430  0.75460  0.93670  1.0000
  O   O35       1.0  0.78430  0.74540  0.43670  1.0000
  O   O36       1.0  0.21570  0.24540  0.06330  1.0000
  C   C1        1.0  0.43740  0.03300  0.99700  1.0000
  C   C2        1.0  0.56260  0.53300  0.50300  1.0000
  C   C3        1.0  0.56260  0.96700  0.00300  1.0000
  C   C4        1.0  0.43740  0.46700  0.49700  1.0000
  H   H5        1.0  0.42540  0.06500  0.91540  1.0000
  H   H6        1.0  0.57460  0.56500  0.58460  1.0000
  H   H7        1.0  0.57460  0.93500  0.08460  1.0000
  H   H8        1.0  0.42540  0.43500  0.41540  1.0000
  H   H9        1.0  0.47930  0.06640  0.07780  1.0000
  H   H10       1.0  0.52070  0.56640  0.42220  1.0000
  H   H11       1.0  0.52070  0.93360  0.92220  1.0000
  H   H12       1.0  0.47930  0.43360  0.57780  1.0000
  C   C5        1.0  0.55580  0.22880  0.79130  1.0000
  C   C6        1.0  0.44420  0.72880  0.70870  1.0000
  C   C7        1.0  0.44420  0.77120  0.20870  1.0000
  C   C8        1.0  0.55580  0.27120  0.29130  1.0000
  H   H13       1.0  0.54860  0.23060  0.69420  1.0000
  H   H14       1.0  0.45140  0.73060  0.80580  1.0000
  H   H15       1.0  0.45140  0.76940  0.30580  1.0000
  H   H16       1.0  0.54860  0.26940  0.19420  1.0000
  H   H17       1.0  0.52680  0.17610  0.81110  1.0000
  H   H18       1.0  0.47320  0.67610  0.68890  1.0000
  H   H19       1.0  0.47320  0.82390  0.18890  1.0000
  H   H20       1.0  0.52680  0.32390  0.31110  1.0000
  C   C9        1.0  0.43030  0.28610  0.81500  1.0000
  C   C10       1.0  0.56970  0.78610  0.68500  1.0000
  C   C11       1.0  0.56970  0.71390  0.18500  1.0000
  C   C12       1.0  0.43030  0.21390  0.31500  1.0000
  H   H21       1.0  0.45460  0.33870  0.79020  1.0000
  H   H22       1.0  0.54540  0.83870  0.70980  1.0000
  H   H23       1.0  0.54540  0.66130  0.20980  1.0000
  H   H24       1.0  0.45460  0.16130  0.29020  1.0000
  H   H25       1.0  0.43970  0.28630  0.91260  1.0000
  H   H26       1.0  0.56030  0.78630  0.58740  1.0000
  H   H27       1.0  0.56030  0.71370  0.08740  1.0000
  H   H28       1.0  0.43970  0.21370  0.41260  1.0000
