data_image0
_chemical_formula_structural       U2O20H2C4H4C2H4C2H4C6H4C2H4C2H4C2
_chemical_formula_sum              "U2 O20 H26 C20"
_cell_length_a       8.6588
_cell_length_b       9.9824
_cell_length_c       11.9098
_cell_angle_alpha    105.098
_cell_angle_beta     95.861
_cell_angle_gamma    91.646

_space_group_name_H-M_alt    "P 1"
_space_group_IT_number       1

loop_
  _space_group_symop_operation_xyz
  'x, y, z'

loop_
  _atom_site_type_symbol
  _atom_site_label
  _atom_site_symmetry_multiplicity
  _atom_site_fract_x
  _atom_site_fract_y
  _atom_site_fract_z
  _atom_site_occupancy
  U   U1        1.0  0.64482  0.60728  0.33715  1.0000
  U   U2        1.0  0.35518  0.39272  0.66285  1.0000
  O   O1        1.0  0.49010  0.62520  0.42410  1.0000
  O   O2        1.0  0.50990  0.37480  0.57590  1.0000
  O   O3        1.0  0.80030  0.59040  0.24980  1.0000
  O   O4        1.0  0.19970  0.40960  0.75020  1.0000
  O   O5        1.0  0.80700  0.52200  0.48090  1.0000
  O   O6        1.0  0.19300  0.47800  0.51910  1.0000
  O   O7        1.0  0.66410  0.36590  0.34530  1.0000
  O   O8        1.0  0.33590  0.63410  0.65470  1.0000
  O   O9        1.0  0.78140  0.79730  0.49220  1.0000
  O   O10       1.0  0.21860  0.20270  0.50780  1.0000
  O   O11       1.0  0.64750  0.85810  0.34990  1.0000
  O   O12       1.0  0.35250  0.14190  0.65010  1.0000
  O   O13       1.0  0.47300  0.44010  0.18100  1.0000
  O   O14       1.0  0.52700  0.55990  0.81900  1.0000
  O   O15       1.0  0.46760  0.65630  0.17810  1.0000
  O   O16       1.0  0.53240  0.34370  0.82190  1.0000
  O   O17       1.0  0.96770  0.84000  0.03350  1.0000
  O   O18       1.0  0.03230  0.16000  0.96650  1.0000
  O   O19       1.0  0.01610  0.93050  0.22540  1.0000
  O   O20       1.0  0.98390  0.06950  0.77460  1.0000
  H   H1        1.0  0.97100  0.98800  0.19700  1.0000
  H   H2        1.0  0.02900  0.01200  0.80300  1.0000
  C   C1        1.0  0.75970  0.39540  0.43750  1.0000
  C   C2        1.0  0.24030  0.60460  0.56250  1.0000
  C   C3        1.0  0.81830  0.28600  0.49270  1.0000
  C   C4        1.0  0.18170  0.71400  0.50730  1.0000
  H   H3        1.0  0.79930  0.31200  0.57600  1.0000
  H   H4        1.0  0.20070  0.68800  0.42400  1.0000
  H   H5        1.0  0.93210  0.28320  0.49020  1.0000
  H   H6        1.0  0.06790  0.71680  0.50980  1.0000
  C   C5        1.0  0.74380  0.14180  0.43460  1.0000
  C   C6        1.0  0.25620  0.85820  0.56540  1.0000
  H   H7        1.0  0.62980  0.14770  0.42090  1.0000
  H   H8        1.0  0.37020  0.85230  0.57910  1.0000
  H   H9        1.0  0.78250  0.10610  0.35760  1.0000
  H   H10       1.0  0.21750  0.89390  0.64240  1.0000
  C   C7        1.0  0.77850  0.04110  0.50800  1.0000
  C   C8        1.0  0.22150  0.95890  0.49200  1.0000
  H   H11       1.0  0.89130  0.05000  0.53490  1.0000
  H   H12       1.0  0.10870  0.95000  0.46510  1.0000
  H   H13       1.0  0.72250  0.06760  0.57820  1.0000
  H   H14       1.0  0.27750  0.93240  0.42180  1.0000
  C   C9        1.0  0.73430  0.89260  0.44580  1.0000
  C   C10       1.0  0.26570  0.10740  0.55420  1.0000
  C   C11       1.0  0.40730  0.53310  0.14290  1.0000
  C   C12       1.0  0.59270  0.46690  0.85710  1.0000
  C   C13       1.0  0.26110  0.49960  0.05980  1.0000
  C   C14       1.0  0.73890  0.50040  0.94020  1.0000
  H   H15       1.0  0.18840  0.44280  0.09010  1.0000
  H   H16       1.0  0.81160  0.55720  0.90990  1.0000
  H   H17       1.0  0.28660  0.44220  0.98350  1.0000
  H   H18       1.0  0.71340  0.55780  0.01650  1.0000
  C   C15       1.0  0.17770  0.62640  0.03950  1.0000
  C   C16       1.0  0.82230  0.37360  0.96050  1.0000
  H   H19       1.0  0.25130  0.68620  0.01310  1.0000
  H   H20       1.0  0.74870  0.31380  0.98690  1.0000
  H   H21       1.0  0.09080  0.59430  0.97630  1.0000
  H   H22       1.0  0.90920  0.40570  0.02370  1.0000
  C   C17       1.0  0.11420  0.71190  0.14860  1.0000
  C   C18       1.0  0.88580  0.28810  0.85140  1.0000
  H   H23       1.0  0.04450  0.65080  0.17710  1.0000
  H   H24       1.0  0.95550  0.34920  0.82290  1.0000
  H   H25       1.0  0.20180  0.74730  0.21060  1.0000
  H   H26       1.0  0.79820  0.25270  0.78940  1.0000
  C   C19       1.0  0.02680  0.83160  0.12860  1.0000
  C   C20       1.0  0.97320  0.16840  0.87140  1.0000
