data_image0
_chemical_formula_structural       Zn2P4O12H2O2H2C4H6Zn2P4O6H2O8H2C4H6
_chemical_formula_sum              "Zn4 P8 O28 H20 C8"
_cell_length_a       5.4785
_cell_length_b       14.194
_cell_length_c       16.0682
_cell_angle_alpha    81.9822
_cell_angle_beta     89.4348
_cell_angle_gamma    79.679

_space_group_name_H-M_alt    "P 1"
_space_group_IT_number       1

loop_
  _space_group_symop_operation_xyz
  'x, y, z'

loop_
  _atom_site_type_symbol
  _atom_site_label
  _atom_site_symmetry_multiplicity
  _atom_site_fract_x
  _atom_site_fract_y
  _atom_site_fract_z
  _atom_site_occupancy
  Zn  Zn1       1.0  0.64412  0.04252  0.07681  1.0000
  Zn  Zn2       1.0  0.35588  0.95748  0.92319  1.0000
  P   P1        1.0  0.19035  0.91619  0.12214  1.0000
  P   P2        1.0  0.80965  0.08381  0.87786  1.0000
  P   P3        1.0  0.12421  0.12582  0.14166  1.0000
  P   P4        1.0  0.87579  0.87418  0.85834  1.0000
  O   O1        1.0  0.36000  0.93997  0.04973  1.0000
  O   O2        1.0  0.64000  0.06003  0.95027  1.0000
  O   O3        1.0  0.91800  0.92752  0.10060  1.0000
  O   O4        1.0  0.08200  0.07248  0.89940  1.0000
  O   O5        1.0  0.29190  0.81354  0.16617  1.0000
  O   O6        1.0  0.70810  0.18646  0.83383  1.0000
  O   O7        1.0  0.31710  0.14102  0.07567  1.0000
  O   O8        1.0  0.68290  0.85898  0.92433  1.0000
  O   O9        1.0  0.85810  0.13723  0.11299  1.0000
  O   O10       1.0  0.14190  0.86277  0.88701  1.0000
  O   O11       1.0  0.13750  0.19551  0.20828  1.0000
  O   O12       1.0  0.86250  0.80449  0.79172  1.0000
  H   H1        1.0  0.26220  0.21980  0.20070  1.0000
  H   H2        1.0  0.73780  0.78020  0.79930  1.0000
  O   O13       1.0  0.49100  0.99697  0.20659  1.0000
  O   O14       1.0  0.50900  0.00303  0.79341  1.0000
  H   H3        1.0  0.54800  0.95300  0.23200  1.0000
  H   H4        1.0  0.45200  0.04700  0.76800  1.0000
  C   C1        1.0  0.22620  0.00220  0.19479  1.0000
  C   C2        1.0  0.77380  0.99780  0.80521  1.0000
  C   C3        1.0  0.09690  0.98280  0.27840  1.0000
  C   C4        1.0  0.90310  0.01720  0.72160  1.0000
  H   H5        1.0  0.14050  0.91550  0.30050  1.0000
  H   H6        1.0  0.85950  0.08450  0.69950  1.0000
  H   H7        1.0  0.92040  0.99980  0.26980  1.0000
  H   H8        1.0  0.07960  0.00020  0.73020  1.0000
  H   H9        1.0  0.14850  0.02100  0.31750  1.0000
  H   H10       1.0  0.85150  0.97900  0.68250  1.0000
  Zn  Zn3       1.0  0.71340  0.59123  0.44212  1.0000
  Zn  Zn4       1.0  0.28660  0.40877  0.55788  1.0000
  P   P5        1.0  0.20793  0.64408  0.34458  1.0000
  P   P6        1.0  0.79207  0.35592  0.65542  1.0000
  P   P7        1.0  0.48300  0.43129  0.37126  1.0000
  P   P8        1.0  0.51700  0.56871  0.62874  1.0000
  O   O15       1.0  0.43970  0.67542  0.37390  1.0000
  O   O16       1.0  0.56030  0.32458  0.62610  1.0000
  O   O17       1.0  0.02490  0.62966  0.41322  1.0000
  O   O18       1.0  0.97510  0.37034  0.58678  1.0000
  O   O19       1.0  0.07750  0.71986  0.27247  1.0000
  O   O20       1.0  0.92250  0.28014  0.72753  1.0000
  H   H11       1.0  0.18230  0.74260  0.24330  1.0000
  H   H12       1.0  0.81770  0.25740  0.75670  1.0000
  O   O21       1.0  0.70150  0.46822  0.40482  1.0000
  O   O22       1.0  0.29850  0.53178  0.59518  1.0000
  O   O23       1.0  0.30260  0.40383  0.43985  1.0000
  O   O24       1.0  0.69740  0.59617  0.56015  1.0000
  O   O25       1.0  0.57290  0.34723  0.32402  1.0000
  O   O26       1.0  0.42710  0.65277  0.67598  1.0000
  O   O27       1.0  0.07630  0.49930  0.27384  1.0000
  O   O28       1.0  0.92370  0.50070  0.72616  1.0000
  H   H13       1.0  0.99950  0.48310  0.31590  1.0000
  H   H14       1.0  0.00050  0.51690  0.68410  1.0000
  C   C5        1.0  0.30100  0.53070  0.29870  1.0000
  C   C6        1.0  0.69900  0.46930  0.70130  1.0000
  C   C7        1.0  0.45110  0.55100  0.22070  1.0000
  C   C8        1.0  0.54890  0.44900  0.77930  1.0000
  H   H15       1.0  0.49000  0.49360  0.19420  1.0000
  H   H16       1.0  0.51000  0.50640  0.80580  1.0000
  H   H17       1.0  0.60210  0.57010  0.23600  1.0000
  H   H18       1.0  0.39790  0.42990  0.76400  1.0000
  H   H19       1.0  0.35640  0.60200  0.18230  1.0000
  H   H20       1.0  0.64360  0.39800  0.81770  1.0000
