data_image0
_chemical_formula_structural       Zn4P8O12H4O16H4C8H12
_chemical_formula_sum              "Zn4 P8 O28 H20 C8"
_cell_length_a       5.497
_cell_length_b       12.1041
_cell_length_c       16.2814
_cell_angle_alpha    90
_cell_angle_beta     98.619
_cell_angle_gamma    90

_space_group_name_H-M_alt    "P 1"
_space_group_IT_number       1

loop_
  _space_group_symop_operation_xyz
  'x, y, z'

loop_
  _atom_site_type_symbol
  _atom_site_label
  _atom_site_symmetry_multiplicity
  _atom_site_fract_x
  _atom_site_fract_y
  _atom_site_fract_z
  _atom_site_occupancy
  Zn  Zn1       1.0  0.29152  0.56206  0.42162  1.0000
  Zn  Zn2       1.0  0.79152  0.93794  0.92162  1.0000
  Zn  Zn3       1.0  0.70848  0.43794  0.57838  1.0000
  Zn  Zn4       1.0  0.20848  0.06206  0.07838  1.0000
  P   P1        1.0  0.79283  0.42101  0.38210  1.0000
  P   P2        1.0  0.29283  0.07899  0.88210  1.0000
  P   P3        1.0  0.20717  0.57899  0.61790  1.0000
  P   P4        1.0  0.70717  0.92101  0.11790  1.0000
  P   P5        1.0  0.74117  0.66553  0.35514  1.0000
  P   P6        1.0  0.24117  0.83447  0.85514  1.0000
  P   P7        1.0  0.25883  0.33447  0.64486  1.0000
  P   P8        1.0  0.75883  0.16553  0.14486  1.0000
  O   O1        1.0  0.65100  0.43739  0.45382  1.0000
  O   O2        1.0  0.15100  0.06261  0.95382  1.0000
  O   O3        1.0  0.34900  0.56261  0.54618  1.0000
  O   O4        1.0  0.84900  0.93739  0.04618  1.0000
  O   O5        1.0  0.06850  0.43041  0.40059  1.0000
  O   O6        1.0  0.56850  0.06959  0.90059  1.0000
  O   O7        1.0  0.93150  0.56959  0.59941  1.0000
  O   O8        1.0  0.43150  0.93041  0.09941  1.0000
  O   O9        1.0  0.71940  0.30651  0.34369  1.0000
  O   O10       1.0  0.21940  0.19349  0.84369  1.0000
  O   O11       1.0  0.28060  0.69349  0.65631  1.0000
  O   O12       1.0  0.78060  0.80651  0.15631  1.0000
  H   H1        1.0  0.79000  0.28700  0.29500  1.0000
  H   H2        1.0  0.29000  0.21300  0.79500  1.0000
  H   H3        1.0  0.21000  0.71300  0.70500  1.0000
  H   H4        1.0  0.71000  0.78700  0.20500  1.0000
  O   O13       1.0  0.57030  0.67465  0.42013  1.0000
  O   O14       1.0  0.07030  0.82535  0.92013  1.0000
  O   O15       1.0  0.42970  0.32535  0.57987  1.0000
  O   O16       1.0  0.92970  0.17465  0.07987  1.0000
  O   O17       1.0  0.01290  0.67444  0.38670  1.0000
  O   O18       1.0  0.51290  0.82556  0.88670  1.0000
  O   O19       1.0  0.98710  0.32556  0.61330  1.0000
  O   O20       1.0  0.48710  0.17444  0.11330  1.0000
  O   O21       1.0  0.65880  0.75222  0.28786  1.0000
  O   O22       1.0  0.15880  0.74778  0.78786  1.0000
  O   O23       1.0  0.34120  0.24778  0.71214  1.0000
  O   O24       1.0  0.84120  0.25222  0.21214  1.0000
  O   O25       1.0  0.40920  0.52311  0.29642  1.0000
  O   O26       1.0  0.90920  0.97689  0.79642  1.0000
  O   O27       1.0  0.59080  0.47689  0.70358  1.0000
  O   O28       1.0  0.09080  0.02311  0.20358  1.0000
  H   H5        1.0  0.37200  0.46900  0.27000  1.0000
  H   H6        1.0  0.87200  0.03100  0.77000  1.0000
  H   H7        1.0  0.62800  0.53100  0.73000  1.0000
  H   H8        1.0  0.12800  0.96900  0.23000  1.0000
  C   C1        1.0  0.67590  0.52910  0.30734  1.0000
  C   C2        1.0  0.17590  0.97090  0.80734  1.0000
  C   C3        1.0  0.32410  0.47090  0.69266  1.0000
  C   C4        1.0  0.82410  0.02910  0.19266  1.0000
  C   C5        1.0  0.77330  0.52270  0.22466  1.0000
  C   C6        1.0  0.27330  0.97730  0.72466  1.0000
  C   C7        1.0  0.22670  0.47730  0.77534  1.0000
  C   C8        1.0  0.72670  0.02270  0.27534  1.0000
  H   H9        1.0  0.95900  0.53000  0.23600  1.0000
  H   H10       1.0  0.45900  0.97000  0.73600  1.0000
  H   H11       1.0  0.04100  0.47000  0.76400  1.0000
  H   H12       1.0  0.54100  0.03000  0.26400  1.0000
  H   H13       1.0  0.69600  0.58100  0.18200  1.0000
  H   H14       1.0  0.19600  0.91900  0.68200  1.0000
  H   H15       1.0  0.30400  0.41900  0.81800  1.0000
  H   H16       1.0  0.80400  0.08100  0.31800  1.0000
  H   H17       1.0  0.72500  0.45600  0.20000  1.0000
  H   H18       1.0  0.22500  0.04400  0.70000  1.0000
  H   H19       1.0  0.27500  0.54400  0.80000  1.0000
  H   H20       1.0  0.77500  0.95600  0.30000  1.0000
