data_image0
_chemical_formula_structural       Zn4P8O12H4O16H4C8H12
_chemical_formula_sum              "Zn4 P8 O28 H20 C8"
_cell_length_a       5.5251
_cell_length_b       12.5968
_cell_length_c       16.1705
_cell_angle_alpha    90
_cell_angle_beta     99.1821
_cell_angle_gamma    90

_space_group_name_H-M_alt    "P 1"
_space_group_IT_number       1

loop_
  _space_group_symop_operation_xyz
  'x, y, z'

loop_
  _atom_site_type_symbol
  _atom_site_label
  _atom_site_symmetry_multiplicity
  _atom_site_fract_x
  _atom_site_fract_y
  _atom_site_fract_z
  _atom_site_occupancy
  Zn  Zn1       1.0  0.78377  0.43789  0.91860  1.0000
  Zn  Zn2       1.0  0.28377  0.06211  0.41860  1.0000
  Zn  Zn3       1.0  0.21623  0.56211  0.08140  1.0000
  Zn  Zn4       1.0  0.71623  0.93789  0.58140  1.0000
  P   P1        1.0  0.23033  0.34479  0.84755  1.0000
  P   P2        1.0  0.73033  0.15521  0.34755  1.0000
  P   P3        1.0  0.76967  0.65521  0.15245  1.0000
  P   P4        1.0  0.26967  0.84479  0.65245  1.0000
  P   P5        1.0  0.29207  0.57888  0.88329  1.0000
  P   P6        1.0  0.79207  0.92112  0.38329  1.0000
  P   P7        1.0  0.70793  0.42112  0.11671  1.0000
  P   P8        1.0  0.20793  0.07888  0.61671  1.0000
  O   O1        1.0  0.50120  0.33394  0.87965  1.0000
  O   O2        1.0  0.00120  0.16606  0.37965  1.0000
  O   O3        1.0  0.49880  0.66606  0.12035  1.0000
  O   O4        1.0  0.99880  0.83394  0.62035  1.0000
  O   O5        1.0  0.06090  0.33397  0.91265  1.0000
  O   O6        1.0  0.56090  0.16603  0.41265  1.0000
  O   O7        1.0  0.93910  0.66603  0.08735  1.0000
  O   O8        1.0  0.43910  0.83397  0.58735  1.0000
  O   O9        1.0  0.14340  0.26570  0.77690  1.0000
  O   O10       1.0  0.64340  0.23430  0.27690  1.0000
  O   O11       1.0  0.85660  0.73430  0.22310  1.0000
  O   O12       1.0  0.35660  0.76570  0.72310  1.0000
  H   H1        1.0  0.23960  0.26590  0.74320  1.0000
  H   H2        1.0  0.73960  0.23410  0.24320  1.0000
  H   H3        1.0  0.76040  0.73410  0.25680  1.0000
  H   H4        1.0  0.26040  0.76590  0.75680  1.0000
  O   O13       1.0  0.56750  0.56688  0.90082  1.0000
  O   O14       1.0  0.06750  0.93312  0.40082  1.0000
  O   O15       1.0  0.43250  0.43312  0.09918  1.0000
  O   O16       1.0  0.93250  0.06688  0.59918  1.0000
  O   O17       1.0  0.15420  0.56234  0.95617  1.0000
  O   O18       1.0  0.65420  0.93766  0.45617  1.0000
  O   O19       1.0  0.84580  0.43766  0.04383  1.0000
  O   O20       1.0  0.34580  0.06234  0.54383  1.0000
  O   O21       1.0  0.22190  0.69060  0.84681  1.0000
  O   O22       1.0  0.72190  0.80940  0.34681  1.0000
  O   O23       1.0  0.77810  0.30940  0.15319  1.0000
  O   O24       1.0  0.27810  0.19060  0.65319  1.0000
  O   O25       1.0  0.90470  0.48695  0.79330  1.0000
  O   O26       1.0  0.40470  0.01305  0.29330  1.0000
  O   O27       1.0  0.09530  0.51305  0.20670  1.0000
  O   O28       1.0  0.59530  0.98695  0.70670  1.0000
  H   H5        1.0  0.87600  0.53900  0.76390  1.0000
  H   H6        1.0  0.37600  0.96100  0.26390  1.0000
  H   H7        1.0  0.12400  0.46100  0.23610  1.0000
  H   H8        1.0  0.62400  0.03900  0.73610  1.0000
  C   C1        1.0  0.16960  0.47945  0.80479  1.0000
  C   C2        1.0  0.66960  0.02055  0.30479  1.0000
  C   C3        1.0  0.83040  0.52055  0.19521  1.0000
  C   C4        1.0  0.33040  0.97945  0.69521  1.0000
  C   C5        1.0  0.26830  0.49310  0.72245  1.0000
  C   C6        1.0  0.76830  0.00690  0.22245  1.0000
  C   C7        1.0  0.73170  0.50690  0.27755  1.0000
  C   C8        1.0  0.23170  0.99310  0.77755  1.0000
  H   H9        1.0  0.22790  0.56270  0.70030  1.0000
  H   H10       1.0  0.72790  0.93730  0.20030  1.0000
  H   H11       1.0  0.77210  0.43730  0.29970  1.0000
  H   H12       1.0  0.27210  0.06270  0.79970  1.0000
  H   H13       1.0  0.44320  0.48440  0.73230  1.0000
  H   H14       1.0  0.94320  0.01560  0.23230  1.0000
  H   H15       1.0  0.55680  0.51560  0.26770  1.0000
  H   H16       1.0  0.05680  0.98440  0.76770  1.0000
  H   H17       1.0  0.19590  0.44070  0.68300  1.0000
  H   H18       1.0  0.69590  0.05930  0.18300  1.0000
  H   H19       1.0  0.80410  0.55930  0.31700  1.0000
  H   H20       1.0  0.30410  0.94070  0.81700  1.0000
