data_image0
_chemical_formula_structural       U2O16H2O2C6H4C4H4C2
_chemical_formula_sum              "U2 O18 H10 C12"
_cell_length_a       7.3131
_cell_length_b       8.5411
_cell_length_c       11.2793
_cell_angle_alpha    97.375
_cell_angle_beta     98.767
_cell_angle_gamma    106.632

_space_group_name_H-M_alt    "P 1"
_space_group_IT_number       1

loop_
  _space_group_symop_operation_xyz
  'x, y, z'

loop_
  _atom_site_type_symbol
  _atom_site_label
  _atom_site_symmetry_multiplicity
  _atom_site_fract_x
  _atom_site_fract_y
  _atom_site_fract_z
  _atom_site_occupancy
  U   U1        1.0  0.62248  0.74437  0.54567  1.0000
  U   U2        1.0  0.37752  0.25563  0.45433  1.0000
  O   O1        1.0  0.78760  0.74780  0.44490  1.0000
  O   O2        1.0  0.21240  0.25220  0.55510  1.0000
  O   O3        1.0  0.45780  0.75010  0.64580  1.0000
  O   O4        1.0  0.54220  0.24990  0.35420  1.0000
  O   O5        1.0  0.62480  0.48010  0.58980  1.0000
  O   O6        1.0  0.37520  0.51990  0.41020  1.0000
  O   O7        1.0  0.86850  0.75940  0.71070  1.0000
  O   O8        1.0  0.13150  0.24060  0.28930  1.0000
  O   O9        1.0  0.04690  0.64490  0.82610  1.0000
  O   O10       1.0  0.95310  0.35510  0.17390  1.0000
  O   O11       1.0  0.54060  0.13360  0.59380  1.0000
  O   O12       1.0  0.45940  0.86640  0.40620  1.0000
  O   O13       1.0  0.79560  0.04180  0.63050  1.0000
  O   O14       1.0  0.20440  0.95820  0.36950  1.0000
  O   O15       1.0  0.75460  0.46230  0.00730  1.0000
  O   O16       1.0  0.24540  0.53770  0.99270  1.0000
  H   H1        1.0  0.82430  0.41800  0.07110  1.0000
  H   H2        1.0  0.17570  0.58200  0.92890  1.0000
  O   O17       1.0  0.80810  0.25620  0.88820  1.0000
  O   O18       1.0  0.19190  0.74380  0.11180  1.0000
  C   C1        1.0  0.75200  0.46260  0.69140  1.0000
  C   C2        1.0  0.24800  0.53740  0.30860  1.0000
  C   C3        1.0  0.90670  0.63430  0.74660  1.0000
  C   C4        1.0  0.09330  0.36570  0.25340  1.0000
  C   C5        1.0  0.85370  0.33630  0.65140  1.0000
  C   C6        1.0  0.14630  0.66370  0.34860  1.0000
  H   H3        1.0  0.90420  0.36290  0.57930  1.0000
  H   H4        1.0  0.09580  0.63710  0.42070  1.0000
  H   H5        1.0  0.96340  0.34680  0.71550  1.0000
  H   H6        1.0  0.03660  0.65320  0.28450  1.0000
  C   C7        1.0  0.72210  0.15850  0.62350  1.0000
  C   C8        1.0  0.27790  0.84150  0.37650  1.0000
  C   C9        1.0  0.63540  0.42270  0.79380  1.0000
  C   C10       1.0  0.36460  0.57730  0.20620  1.0000
  H   H7        1.0  0.60090  0.51990  0.82390  1.0000
  H   H8        1.0  0.39910  0.48010  0.17610  1.0000
  H   H9        1.0  0.51520  0.33370  0.75890  1.0000
  H   H10       1.0  0.48480  0.66630  0.24110  1.0000
  C   C11       1.0  0.74270  0.37230  0.90040  1.0000
  C   C12       1.0  0.25730  0.62770  0.09960  1.0000
