data_image0
_chemical_formula_structural       C18N3C3O12Cl3Fe2
_chemical_formula_sum              "C21 N3 O12 Cl3 Fe2"
_cell_length_a       13.616
_cell_length_b       13.616
_cell_length_c       9.43
_cell_angle_alpha    90
_cell_angle_beta     90
_cell_angle_gamma    120

_space_group_name_H-M_alt    "P 1"
_space_group_IT_number       1

loop_
  _space_group_symop_operation_xyz
  'x, y, z'

loop_
  _atom_site_type_symbol
  _atom_site_label
  _atom_site_symmetry_multiplicity
  _atom_site_fract_x
  _atom_site_fract_y
  _atom_site_fract_z
  _atom_site_occupancy
  C   C1        1.0  0.10690  0.52200  0.63110  1.0000
  C   C2        1.0  0.47800  0.58490  0.63110  1.0000
  C   C3        1.0  0.41510  0.89310  0.63110  1.0000
  C   C4        1.0  0.10420  0.58220  0.49980  1.0000
  C   C5        1.0  0.41780  0.52200  0.49980  1.0000
  C   C6        1.0  0.47800  0.89580  0.49980  1.0000
  C   C7        1.0  0.00340  0.56610  0.44290  1.0000
  C   C8        1.0  0.43390  0.43730  0.44290  1.0000
  C   C9        1.0  0.56270  0.99660  0.44290  1.0000
  C   C10       1.0  0.90090  0.48180  0.50450  1.0000
  C   C11       1.0  0.51820  0.41910  0.50450  1.0000
  C   C12       1.0  0.58090  0.09910  0.50450  1.0000
  C   C13       1.0  0.90010  0.41920  0.63260  1.0000
  C   C14       1.0  0.58080  0.48090  0.63260  1.0000
  C   C15       1.0  0.51910  0.09990  0.63260  1.0000
  C   C16       1.0  0.00290  0.44380  0.69050  1.0000
  C   C17       1.0  0.55620  0.55910  0.69050  1.0000
  C   C18       1.0  0.44090  0.99710  0.69050  1.0000
  N   N1        1.0  0.99920  0.32750  0.90400  1.0000
  N   N2        1.0  0.67250  0.67170  0.90400  1.0000
  N   N3        1.0  0.32830  0.00080  0.90400  1.0000
  C   C19       1.0  0.00040  0.37820  0.83500  1.0000
  C   C20       1.0  0.62180  0.62220  0.83500  1.0000
  C   C21       1.0  0.37780  0.99960  0.83500  1.0000
  O   O1        1.0  0.20090  0.54840  0.66890  1.0000
  O   O2        1.0  0.45160  0.65250  0.66890  1.0000
  O   O3        1.0  0.34750  0.79910  0.66890  1.0000
  O   O4        1.0  0.20080  0.65690  0.43810  1.0000
  O   O5        1.0  0.34310  0.54390  0.43810  1.0000
  O   O6        1.0  0.45610  0.79920  0.43810  1.0000
  O   O7        1.0  0.79950  0.45280  0.43750  1.0000
  O   O8        1.0  0.54720  0.34670  0.43750  1.0000
  O   O9        1.0  0.65330  0.20050  0.43750  1.0000
  O   O10       1.0  0.80070  0.35160  0.67230  1.0000
  O   O11       1.0  0.64840  0.44910  0.67230  1.0000
  O   O12       1.0  0.55090  0.19930  0.67230  1.0000
  Cl  Cl1       1.0  0.00020  0.63300  0.28560  1.0000
  Cl  Cl2       1.0  0.36700  0.36720  0.28560  1.0000
  Cl  Cl3       1.0  0.63280  0.99980  0.28560  1.0000
  Fe  Fe1       1.0  0.33330  0.66670  0.55980  1.0000
  Fe  Fe2       1.0  0.66670  0.33330  0.55940  1.0000
