data_image0
_chemical_formula_structural       Mn2Cl6O12C18
_chemical_formula_sum              "Mn2 Cl6 O12 C18"
_cell_length_a       14.0315
_cell_length_b       14.0315
_cell_length_c       10.2484
_cell_angle_alpha    90
_cell_angle_beta     90
_cell_angle_gamma    120

_space_group_name_H-M_alt    "P 1"
_space_group_IT_number       1

loop_
  _space_group_symop_operation_xyz
  'x, y, z'

loop_
  _atom_site_type_symbol
  _atom_site_label
  _atom_site_symmetry_multiplicity
  _atom_site_fract_x
  _atom_site_fract_y
  _atom_site_fract_z
  _atom_site_occupancy
  Mn  Mn1       1.0  0.66670  0.33330  0.00000  1.0000
  Mn  Mn2       1.0  0.33330  0.66670  0.00000  1.0000
  Cl  Cl1       1.0  0.38091  0.00000  0.73590  1.0000
  Cl  Cl2       1.0  0.00000  0.38091  0.73590  1.0000
  Cl  Cl3       1.0  0.61909  0.61909  0.73590  1.0000
  Cl  Cl4       1.0  0.00000  0.61909  0.26410  1.0000
  Cl  Cl5       1.0  0.61909  0.00000  0.26410  1.0000
  Cl  Cl6       1.0  0.38091  0.38091  0.26410  1.0000
  O   O1        1.0  0.54810  0.19240  0.89030  1.0000
  O   O2        1.0  0.80760  0.35570  0.89030  1.0000
  O   O3        1.0  0.64430  0.45190  0.89030  1.0000
  O   O4        1.0  0.80760  0.45190  0.10970  1.0000
  O   O5        1.0  0.64430  0.19240  0.10970  1.0000
  O   O6        1.0  0.54810  0.35570  0.10970  1.0000
  O   O7        1.0  0.45190  0.80760  0.10970  1.0000
  O   O8        1.0  0.19240  0.64430  0.10970  1.0000
  O   O9        1.0  0.35570  0.54810  0.10970  1.0000
  O   O10       1.0  0.19240  0.54810  0.89030  1.0000
  O   O11       1.0  0.35570  0.80760  0.89030  1.0000
  O   O12       1.0  0.45190  0.64430  0.89030  1.0000
  C   C1        1.0  0.52030  0.09900  0.93550  1.0000
  C   C2        1.0  0.90100  0.42130  0.93550  1.0000
  C   C3        1.0  0.57870  0.47970  0.93550  1.0000
  C   C4        1.0  0.90100  0.47970  0.06450  1.0000
  C   C5        1.0  0.57870  0.09900  0.06450  1.0000
  C   C6        1.0  0.52030  0.42130  0.06450  1.0000
  C   C7        1.0  0.47970  0.90100  0.06450  1.0000
  C   C8        1.0  0.09900  0.57870  0.06450  1.0000
  C   C9        1.0  0.42130  0.52030  0.06450  1.0000
  C   C10       1.0  0.09900  0.52030  0.93550  1.0000
  C   C11       1.0  0.42130  0.90100  0.93550  1.0000
  C   C12       1.0  0.47970  0.57870  0.93550  1.0000
  C   C13       1.0  0.44710  0.00000  0.87890  1.0000
  C   C14       1.0  0.00000  0.44710  0.87890  1.0000
  C   C15       1.0  0.55290  0.55290  0.87890  1.0000
  C   C16       1.0  0.00000  0.55290  0.12110  1.0000
  C   C17       1.0  0.55290  0.00000  0.12110  1.0000
  C   C18       1.0  0.44710  0.44710  0.12110  1.0000
