data_image0
_chemical_formula_structural       V4Cl4O20C8
_chemical_formula_sum              "V4 Cl4 O20 C8"
_cell_length_a       12.145
_cell_length_b       12.145
_cell_length_c       15.991
_cell_angle_alpha    90
_cell_angle_beta     90
_cell_angle_gamma    90

_space_group_name_H-M_alt    "P 1"
_space_group_IT_number       1

loop_
  _space_group_symop_operation_xyz
  'x, y, z'

loop_
  _atom_site_type_symbol
  _atom_site_label
  _atom_site_symmetry_multiplicity
  _atom_site_fract_x
  _atom_site_fract_y
  _atom_site_fract_z
  _atom_site_occupancy
  V   V1        1.0  0.56430  0.29130  0.02060  1.0000
  V   V2        1.0  0.70870  0.56430  0.77060  1.0000
  V   V3        1.0  0.43570  0.70870  0.52060  1.0000
  V   V4        1.0  0.29130  0.43570  0.27060  1.0000
  Cl  Cl1       1.0  0.24630  0.25000  0.26200  1.0000
  Cl  Cl2       1.0  0.75000  0.24630  0.01200  1.0000
  Cl  Cl3       1.0  0.75370  0.75000  0.76200  1.0000
  Cl  Cl4       1.0  0.25000  0.75370  0.51200  1.0000
  O   O1        1.0  0.17130  0.48940  0.26870  1.0000
  O   O2        1.0  0.51060  0.17130  0.01870  1.0000
  O   O3        1.0  0.82870  0.51060  0.76870  1.0000
  O   O4        1.0  0.48940  0.82870  0.51870  1.0000
  O   O5        1.0  0.41880  0.37730  0.03780  1.0000
  O   O6        1.0  0.62270  0.41880  0.78780  1.0000
  O   O7        1.0  0.58120  0.62270  0.53780  1.0000
  O   O8        1.0  0.37730  0.58120  0.28780  1.0000
  O   O9        1.0  0.31630  0.44190  0.14240  1.0000
  O   O10       1.0  0.55810  0.31630  0.89240  1.0000
  O   O11       1.0  0.68370  0.55810  0.64240  1.0000
  O   O12       1.0  0.44190  0.68370  0.39240  1.0000
  O   O13       1.0  0.57510  0.32260  0.14520  1.0000
  O   O14       1.0  0.67740  0.57510  0.89520  1.0000
  O   O15       1.0  0.42490  0.67740  0.64520  1.0000
  O   O16       1.0  0.32260  0.42490  0.39520  1.0000
  O   O17       1.0  0.46920  0.37840  0.25130  1.0000
  O   O18       1.0  0.62160  0.46920  0.00130  1.0000
  O   O19       1.0  0.53080  0.62160  0.75130  1.0000
  O   O20       1.0  0.37840  0.53080  0.50130  1.0000
  C   C1        1.0  0.39830  0.39840  0.11390  1.0000
  C   C2        1.0  0.60160  0.39830  0.86390  1.0000
  C   C3        1.0  0.60170  0.60160  0.61390  1.0000
  C   C4        1.0  0.39840  0.60170  0.36390  1.0000
  C   C5        1.0  0.48900  0.36290  0.17650  1.0000
  C   C6        1.0  0.63710  0.48900  0.92650  1.0000
  C   C7        1.0  0.51100  0.63710  0.67650  1.0000
  C   C8        1.0  0.36290  0.51100  0.42650  1.0000
