data_image0
_chemical_formula_structural       O24C12Mn4
_chemical_formula_sum              "O24 C12 Mn4"
_cell_length_a       9.0645
_cell_length_b       17.143
_cell_length_c       9.215
_cell_angle_alpha    90
_cell_angle_beta     93.66
_cell_angle_gamma    90

_space_group_name_H-M_alt    "P 1"
_space_group_IT_number       1

loop_
  _space_group_symop_operation_xyz
  'x, y, z'

loop_
  _atom_site_type_symbol
  _atom_site_label
  _atom_site_symmetry_multiplicity
  _atom_site_fract_x
  _atom_site_fract_y
  _atom_site_fract_z
  _atom_site_occupancy
  O   O1        1.0  0.81480  0.32159  0.62180  1.0000
  O   O2        1.0  0.18520  0.32159  0.37820  1.0000
  O   O3        1.0  0.31480  0.82159  0.62180  1.0000
  O   O4        1.0  0.68520  0.82159  0.37820  1.0000
  O   O5        1.0  0.18520  0.67841  0.37820  1.0000
  O   O6        1.0  0.81480  0.67841  0.62180  1.0000
  O   O7        1.0  0.68520  0.17841  0.37820  1.0000
  O   O8        1.0  0.31480  0.17841  0.62180  1.0000
  O   O9        1.0  0.61920  0.24245  0.62900  1.0000
  O   O10       1.0  0.38080  0.24245  0.37100  1.0000
  O   O11       1.0  0.11920  0.74245  0.62900  1.0000
  O   O12       1.0  0.88080  0.74245  0.37100  1.0000
  O   O13       1.0  0.38080  0.75755  0.37100  1.0000
  O   O14       1.0  0.61920  0.75755  0.62900  1.0000
  O   O15       1.0  0.88080  0.25755  0.37100  1.0000
  O   O16       1.0  0.11920  0.25755  0.62900  1.0000
  O   O17       1.0  0.07880  0.43461  0.62670  1.0000
  O   O18       1.0  0.92120  0.43461  0.37330  1.0000
  O   O19       1.0  0.57880  0.93461  0.62670  1.0000
  O   O20       1.0  0.42120  0.93461  0.37330  1.0000
  O   O21       1.0  0.92120  0.56539  0.37330  1.0000
  O   O22       1.0  0.07880  0.56539  0.62670  1.0000
  O   O23       1.0  0.42120  0.06539  0.37330  1.0000
  O   O24       1.0  0.57880  0.06539  0.62670  1.0000
  C   C1        1.0  0.45380  0.00000  0.42680  1.0000
  C   C2        1.0  0.54620  0.00000  0.57320  1.0000
  C   C3        1.0  0.95380  0.50000  0.42680  1.0000
  C   C4        1.0  0.04620  0.50000  0.57320  1.0000
  C   C5        1.0  0.73180  0.26861  0.57380  1.0000
  C   C6        1.0  0.26820  0.26861  0.42620  1.0000
  C   C7        1.0  0.23180  0.76861  0.57380  1.0000
  C   C8        1.0  0.76820  0.76861  0.42620  1.0000
  C   C9        1.0  0.26820  0.73139  0.42620  1.0000
  C   C10       1.0  0.73180  0.73139  0.57380  1.0000
  C   C11       1.0  0.76820  0.23139  0.42620  1.0000
  C   C12       1.0  0.23180  0.23139  0.57380  1.0000
  Mn  Mn1       1.0  0.00000  0.34027  0.50000  1.0000
  Mn  Mn2       1.0  0.50000  0.84027  0.50000  1.0000
  Mn  Mn3       1.0  0.00000  0.65973  0.50000  1.0000
  Mn  Mn4       1.0  0.50000  0.15973  0.50000  1.0000
