data_image0
_chemical_formula_structural       Dy2O8H4O8H4N4C2H2C12H2C2H2C4H2C6H2O4C2H2
_chemical_formula_sum              "Dy2 O20 H20 N4 C28"
_cell_length_a       9.3996
_cell_length_b       10.6547
_cell_length_c       11.1441
_cell_angle_alpha    64.088
_cell_angle_beta     80.275
_cell_angle_gamma    87.407

_space_group_name_H-M_alt    "P 1"
_space_group_IT_number       1

loop_
  _space_group_symop_operation_xyz
  'x, y, z'

loop_
  _atom_site_type_symbol
  _atom_site_label
  _atom_site_symmetry_multiplicity
  _atom_site_fract_x
  _atom_site_fract_y
  _atom_site_fract_z
  _atom_site_occupancy
  Dy  Dy1       1.0  0.19265  0.10653  0.22203  1.0000
  Dy  Dy2       1.0  0.80735  0.89347  0.77797  1.0000
  O   O1        1.0  0.16740  0.14170  0.42000  1.0000
  O   O2        1.0  0.83260  0.85830  0.58000  1.0000
  O   O3        1.0  0.94370  0.14960  0.23650  1.0000
  O   O4        1.0  0.05630  0.85040  0.76350  1.0000
  O   O5        1.0  0.83700  0.08400  0.10810  1.0000
  O   O6        1.0  0.16300  0.91600  0.89190  1.0000
  O   O7        1.0  0.07780  0.89670  0.38910  1.0000
  O   O8        1.0  0.92220  0.10330  0.61090  1.0000
  H   H1        1.0  0.12970  0.83120  0.39400  1.0000
  H   H2        1.0  0.87030  0.16880  0.60600  1.0000
  H   H3        1.0  0.99990  0.88370  0.44490  1.0000
  H   H4        1.0  0.00010  0.11630  0.55510  1.0000
  O   O9        1.0  0.25420  0.56480  0.99310  1.0000
  O   O10       1.0  0.74580  0.43520  0.00690  1.0000
  O   O11       1.0  0.19030  0.34560  0.13920  1.0000
  O   O12       1.0  0.80970  0.65440  0.86080  1.0000
  O   O13       1.0  0.25650  0.22680  0.54290  1.0000
  O   O14       1.0  0.74350  0.77320  0.45710  1.0000
  O   O15       1.0  0.11340  0.05460  0.05900  1.0000
  O   O16       1.0  0.88660  0.94540  0.94100  1.0000
  H   H5        1.0  0.02220  0.06090  0.06550  1.0000
  H   H6        1.0  0.97780  0.93910  0.93450  1.0000
  H   H7        1.0  0.15770  0.03340  0.99770  1.0000
  H   H8        1.0  0.84230  0.96660  0.00230  1.0000
  N   N1        1.0  0.43130  0.13610  0.28840  1.0000
  N   N2        1.0  0.56870  0.86390  0.71160  1.0000
  N   N3        1.0  0.36100  0.24420  0.99320  1.0000
  N   N4        1.0  0.63900  0.75580  0.00680  1.0000
  C   C1        1.0  0.56420  0.12120  0.22990  1.0000
  C   C2        1.0  0.43580  0.87880  0.77010  1.0000
  H   H9        1.0  0.57250  0.09710  0.15830  1.0000
  H   H10       1.0  0.42750  0.90290  0.84170  1.0000
  C   C3        1.0  0.83470  0.12320  0.19920  1.0000
  C   C4        1.0  0.16530  0.87680  0.80080  1.0000
  C   C5        1.0  0.68920  0.14010  0.27090  1.0000
  C   C6        1.0  0.31080  0.85990  0.72910  1.0000
  C   C7        1.0  0.26890  0.18200  0.45700  1.0000
  C   C8        1.0  0.73110  0.81800  0.54300  1.0000
  C   C9        1.0  0.42090  0.17110  0.39190  1.0000
  C   C10       1.0  0.57910  0.82890  0.60810  1.0000
  C   C11       1.0  0.36640  0.38210  0.94940  1.0000
  C   C12       1.0  0.63360  0.61790  0.05060  1.0000
  C   C13       1.0  0.54030  0.19220  0.43860  1.0000
  C   C14       1.0  0.45970  0.80780  0.56140  1.0000
  H   H11       1.0  0.52950  0.21720  0.50970  1.0000
  H   H12       1.0  0.47050  0.78280  0.49030  1.0000
  C   C15       1.0  0.44890  0.19040  0.92100  1.0000
  C   C16       1.0  0.55110  0.80960  0.07900  1.0000
  H   H13       1.0  0.44320  0.09460  0.94850  1.0000
  H   H14       1.0  0.55680  0.90540  0.05150  1.0000
  C   C17       1.0  0.26170  0.43670  0.03320  1.0000
  C   C18       1.0  0.73830  0.56330  0.96680  1.0000
  C   C19       1.0  0.67620  0.17560  0.37800  1.0000
  C   C20       1.0  0.32380  0.82440  0.62200  1.0000
  H   H15       1.0  0.75810  0.18810  0.40870  1.0000
  H   H16       1.0  0.24190  0.81190  0.59130  1.0000
  C   C21       1.0  0.54800  0.26980  0.80740  1.0000
  C   C22       1.0  0.45200  0.73020  0.19260  1.0000
  C   C23       1.0  0.65110  0.20170  0.73680  1.0000
  C   C24       1.0  0.34890  0.79830  0.26320  1.0000
  C   C25       1.0  0.55340  0.41330  0.76460  1.0000
  C   C26       1.0  0.44660  0.58670  0.23540  1.0000
  H   H17       1.0  0.61850  0.47030  0.68900  1.0000
  H   H18       1.0  0.38150  0.52970  0.31100  1.0000
  O   O17       1.0  0.72680  0.28010  0.62770  1.0000
  O   O18       1.0  0.27320  0.71990  0.37230  1.0000
  O   O19       1.0  0.65550  0.07100  0.79350  1.0000
  O   O20       1.0  0.34450  0.92900  0.20650  1.0000
  C   C27       1.0  0.46010  0.46970  0.83660  1.0000
  C   C28       1.0  0.53990  0.53030  0.16340  1.0000
  H   H19       1.0  0.46050  0.56560  0.80930  1.0000
  H   H20       1.0  0.53950  0.43440  0.19070  1.0000
