data_image0
_chemical_formula_structural       Sm2O18H2O2H2N4C4H2C2H2C4H2C8H2C2H2C4H2C4H4
_chemical_formula_sum              "Sm2 O20 H20 N4 C28"
_cell_length_a       9.4739
_cell_length_b       10.6571
_cell_length_c       11.1825
_cell_angle_alpha    64.224
_cell_angle_beta     79.922
_cell_angle_gamma    87.305

_space_group_name_H-M_alt    "P 1"
_space_group_IT_number       1

loop_
  _space_group_symop_operation_xyz
  'x, y, z'

loop_
  _atom_site_type_symbol
  _atom_site_label
  _atom_site_symmetry_multiplicity
  _atom_site_fract_x
  _atom_site_fract_y
  _atom_site_fract_z
  _atom_site_occupancy
  Sm  Sm1       1.0  0.30618  0.39305  0.27637  1.0000
  Sm  Sm2       1.0  0.69382  0.60695  0.72363  1.0000
  O   O1        1.0  0.30500  0.14930  0.36180  1.0000
  O   O2        1.0  0.69500  0.85070  0.63820  1.0000
  O   O3        1.0  0.24470  0.93170  0.50830  1.0000
  O   O4        1.0  0.75530  0.06830  0.49170  1.0000
  O   O5        1.0  0.84510  0.42530  0.70860  1.0000
  O   O6        1.0  0.15490  0.57470  0.29140  1.0000
  O   O7        1.0  0.77100  0.21670  0.87290  1.0000
  O   O8        1.0  0.22900  0.78330  0.12710  1.0000
  O   O9        1.0  0.32710  0.35640  0.07670  1.0000
  O   O10       1.0  0.67290  0.64360  0.92330  1.0000
  O   O11       1.0  0.23760  0.27210  0.95440  1.0000
  O   O12       1.0  0.76240  0.72790  0.04560  1.0000
  O   O13       1.0  0.66150  0.41690  0.39110  1.0000
  O   O14       1.0  0.33850  0.58310  0.60890  1.0000
  O   O15       1.0  0.55650  0.34870  0.26500  1.0000
  O   O16       1.0  0.44350  0.65130  0.73500  1.0000
  O   O17       1.0  0.42490  0.60760  0.10810  1.0000
  O   O18       1.0  0.57510  0.39240  0.89190  1.0000
  H   H1        1.0  0.50870  0.59110  0.07220  1.0000
  H   H2        1.0  0.49130  0.40890  0.92780  1.0000
  O   O19       1.0  0.38480  0.44340  0.44490  1.0000
  O   O20       1.0  0.61520  0.55660  0.55510  1.0000
  H   H3        1.0  0.47590  0.43770  0.43800  1.0000
  H   H4        1.0  0.52410  0.56230  0.56200  1.0000
  N   N1        1.0  0.13510  0.25200  0.50710  1.0000
  N   N2        1.0  0.86490  0.74800  0.49290  1.0000
  N   N3        1.0  0.06540  0.36440  0.20870  1.0000
  N   N4        1.0  0.93460  0.63560  0.79130  1.0000
  C   C1        1.0  0.13020  0.11370  0.55190  1.0000
  C   C2        1.0  0.86980  0.88630  0.44810  1.0000
  C   C3        1.0  0.03800  0.02710  0.66460  1.0000
  C   C4        1.0  0.96200  0.97290  0.33540  1.0000
  H   H5        1.0  0.03730  0.93130  0.69210  1.0000
  H   H6        1.0  0.96270  0.06870  0.30790  1.0000
  C   C5        1.0  0.94670  0.08410  0.73640  1.0000
  C   C6        1.0  0.05330  0.91590  0.26360  1.0000
  H   H7        1.0  0.88370  0.02700  0.81320  1.0000
  H   H8        1.0  0.11630  0.97300  0.18680  1.0000
  C   C7        1.0  0.94920  0.22560  0.69390  1.0000
  C   C8        1.0  0.05080  0.77440  0.30610  1.0000
  C   C9        1.0  0.04710  0.30540  0.57920  1.0000
  C   C10       1.0  0.95290  0.69460  0.42080  1.0000
  H   H9        1.0  0.05160  0.40130  0.55120  1.0000
  H   H10       1.0  0.94840  0.59870  0.44880  1.0000
  C   C11       1.0  0.23400  0.05920  0.46760  1.0000
  C   C12       1.0  0.76600  0.94080  0.53240  1.0000
  C   C13       1.0  0.84750  0.29430  0.76500  1.0000
  C   C14       1.0  0.15250  0.70570  0.23500  1.0000
  C   C15       1.0  0.07480  0.32970  0.10570  1.0000
  C   C16       1.0  0.92520  0.67030  0.89430  1.0000
  C   C17       1.0  0.95670  0.30960  0.05940  1.0000
  C   C18       1.0  0.04330  0.69040  0.94060  1.0000
  H   H11       1.0  0.96760  0.28630  0.98730  1.0000
  H   H12       1.0  0.03240  0.71370  0.01270  1.0000
  C   C19       1.0  0.82160  0.32440  0.12140  1.0000
  C   C20       1.0  0.17840  0.67560  0.87860  1.0000
  H   H13       1.0  0.74020  0.31060  0.09210  1.0000
  H   H14       1.0  0.25980  0.68940  0.90790  1.0000
  C   C21       1.0  0.80950  0.36030  0.22830  1.0000
  C   C22       1.0  0.19050  0.63970  0.77170  1.0000
  C   C23       1.0  0.93450  0.37900  0.26780  1.0000
  C   C24       1.0  0.06550  0.62100  0.73220  1.0000
  H   H15       1.0  0.92690  0.40300  0.33920  1.0000
  H   H16       1.0  0.07310  0.59700  0.66080  1.0000
  C   C25       1.0  0.22550  0.31700  0.03990  1.0000
  C   C26       1.0  0.77450  0.68300  0.96010  1.0000
  C   C27       1.0  0.66430  0.37720  0.29990  1.0000
  C   C28       1.0  0.33570  0.62280  0.70010  1.0000
  H   H17       1.0  0.34400  0.46800  0.48900  1.0000
  H   H18       1.0  0.65600  0.53200  0.51100  1.0000
  H   H19       1.0  0.40100  0.69000  0.09300  1.0000
  H   H20       1.0  0.59900  0.31000  0.90700  1.0000
