data_image0
_chemical_formula_structural       Gd2O16C2N4C4H2C6H2C4H2C4H2C2H2O4C4H2C2H8
_chemical_formula_sum              "Gd2 O20 C28 N4 H20"
_cell_length_a       9.4381
_cell_length_b       10.6652
_cell_length_c       11.1684
_cell_angle_alpha    64.068
_cell_angle_beta     80.072
_cell_angle_gamma    87.281

_space_group_name_H-M_alt    "P 1"
_space_group_IT_number       1

loop_
  _space_group_symop_operation_xyz
  'x, y, z'

loop_
  _atom_site_type_symbol
  _atom_site_label
  _atom_site_symmetry_multiplicity
  _atom_site_fract_x
  _atom_site_fract_y
  _atom_site_fract_z
  _atom_site_occupancy
  Gd  Gd1       1.0  0.69333  0.10674  0.22268  1.0000
  Gd  Gd2       1.0  0.30667  0.89326  0.77732  1.0000
  O   O1        1.0  0.44381  0.15070  0.23534  1.0000
  O   O2        1.0  0.55619  0.84930  0.76466  1.0000
  O   O3        1.0  0.33785  0.08410  0.10850  1.0000
  O   O4        1.0  0.66215  0.91590  0.89150  1.0000
  O   O5        1.0  0.66983  0.14210  0.42142  1.0000
  O   O6        1.0  0.33017  0.85790  0.57858  1.0000
  O   O7        1.0  0.69230  0.34834  0.13895  1.0000
  O   O8        1.0  0.30770  0.65166  0.86105  1.0000
  O   O9        1.0  0.75540  0.56700  0.99240  1.0000
  O   O10       1.0  0.24460  0.43300  0.00760  1.0000
  O   O11       1.0  0.75900  0.22760  0.54370  1.0000
  O   O12       1.0  0.24100  0.77240  0.45630  1.0000
  O   O13       1.0  0.61480  0.05590  0.05640  1.0000
  O   O14       1.0  0.38520  0.94410  0.94360  1.0000
  O   O15       1.0  0.57550  0.89520  0.39000  1.0000
  O   O16       1.0  0.42450  0.10480  0.61000  1.0000
  C   C1        1.0  0.19000  0.14020  0.27090  1.0000
  C   C2        1.0  0.81000  0.85980  0.72910  1.0000
  N   N1        1.0  0.86300  0.24570  0.99310  1.0000
  N   N2        1.0  0.13700  0.75430  0.00690  1.0000
  N   N3        1.0  0.93340  0.13560  0.28970  1.0000
  N   N4        1.0  0.06660  0.86440  0.71030  1.0000
  C   C3        1.0  0.33530  0.12330  0.19920  1.0000
  C   C4        1.0  0.66470  0.87670  0.80080  1.0000
  C   C5        1.0  0.06530  0.12110  0.23070  1.0000
  C   C6        1.0  0.93470  0.87890  0.76930  1.0000
  H   H1        1.0  0.07340  0.09710  0.15930  1.0000
  H   H2        1.0  0.92660  0.90290  0.84070  1.0000
  C   C7        1.0  0.76390  0.43940  0.03260  1.0000
  C   C8        1.0  0.23610  0.56060  0.96740  1.0000
  C   C9        1.0  0.92310  0.17030  0.39300  1.0000
  C   C10       1.0  0.07690  0.82970  0.60700  1.0000
  C   C11       1.0  0.95060  0.19270  0.92090  1.0000
  C   C12       1.0  0.04940  0.80730  0.07910  1.0000
  H   H3        1.0  0.94540  0.09690  0.94890  1.0000
  H   H4        1.0  0.05460  0.90310  0.05110  1.0000
  C   C13       1.0  0.86810  0.38500  0.94920  1.0000
  C   C14       1.0  0.13190  0.61500  0.05080  1.0000
  C   C15       1.0  0.17750  0.17540  0.37810  1.0000
  C   C16       1.0  0.82250  0.82460  0.62190  1.0000
  H   H5        1.0  0.25920  0.18820  0.40810  1.0000
  H   H6        1.0  0.74080  0.81180  0.59190  1.0000
  C   C17       1.0  0.77160  0.18270  0.45800  1.0000
  C   C18       1.0  0.22840  0.81730  0.54200  1.0000
  C   C19       1.0  0.96080  0.47200  0.83520  1.0000
  C   C20       1.0  0.03920  0.52800  0.16480  1.0000
  H   H7        1.0  0.96130  0.56800  0.80710  1.0000
  H   H8        1.0  0.03870  0.43200  0.19290  1.0000
  C   C21       1.0  0.04200  0.19100  0.43960  1.0000
  C   C22       1.0  0.95800  0.80900  0.56040  1.0000
  H   H9        1.0  0.03110  0.21500  0.51130  1.0000
  H   H10       1.0  0.96890  0.78500  0.48870  1.0000
  O   O17       1.0  0.15501  0.07261  0.79237  1.0000
  O   O18       1.0  0.84499  0.92739  0.20763  1.0000
  O   O19       1.0  0.22640  0.28180  0.62660  1.0000
  O   O20       1.0  0.77360  0.71820  0.37340  1.0000
  C   C23       1.0  0.04900  0.27160  0.80660  1.0000
  C   C24       1.0  0.95100  0.72840  0.19340  1.0000
  C   C25       1.0  0.05230  0.41490  0.76390  1.0000
  C   C26       1.0  0.94770  0.58510  0.23610  1.0000
  H   H11       1.0  0.11620  0.47190  0.68750  1.0000
  H   H12       1.0  0.88380  0.52810  0.31250  1.0000
  C   C27       1.0  0.15080  0.20410  0.73560  1.0000
  C   C28       1.0  0.84920  0.79590  0.26440  1.0000
  H   H13       1.0  0.50100  0.87900  0.44700  1.0000
  H   H14       1.0  0.49900  0.12100  0.55300  1.0000
  H   H15       1.0  0.65600  0.03300  0.00600  1.0000
  H   H16       1.0  0.34400  0.96700  0.99400  1.0000
  H   H17       1.0  0.53300  0.05600  0.06700  1.0000
  H   H18       1.0  0.46700  0.94400  0.93300  1.0000
  H   H19       1.0  0.61400  0.83800  0.39900  1.0000
  H   H20       1.0  0.38600  0.16200  0.60100  1.0000
