data_image0
_chemical_formula_structural       O2H2Ag4O10C4H2C4H2C4H2C4H2
_chemical_formula_sum              "O12 H10 Ag4 C16"
_cell_length_a       6.7037
_cell_length_b       8.5829
_cell_length_c       9.9334
_cell_angle_alpha    96.775
_cell_angle_beta     109.688
_cell_angle_gamma    110.227

_space_group_name_H-M_alt    "P 1"
_space_group_IT_number       1

loop_
  _space_group_symop_operation_xyz
  'x, y, z'

loop_
  _atom_site_type_symbol
  _atom_site_label
  _atom_site_symmetry_multiplicity
  _atom_site_fract_x
  _atom_site_fract_y
  _atom_site_fract_z
  _atom_site_occupancy
  O   O1        1.0  0.26920  0.91690  0.40550  1.0000
  O   O2        1.0  0.73080  0.08310  0.59450  1.0000
  H   H1        1.0  0.23500  0.90400  0.31630  1.0000
  H   H2        1.0  0.76500  0.09600  0.68370  1.0000
  Ag  Ag1       1.0  0.69927  0.63330  0.61603  1.0000
  Ag  Ag2       1.0  0.30073  0.36670  0.38397  1.0000
  Ag  Ag3       1.0  0.10824  0.63888  0.45268  1.0000
  Ag  Ag4       1.0  0.89176  0.36112  0.54732  1.0000
  O   O3        1.0  0.25060  0.22570  0.55160  1.0000
  O   O4        1.0  0.74940  0.77430  0.44840  1.0000
  O   O5        1.0  0.60640  0.41500  0.71710  1.0000
  O   O6        1.0  0.39360  0.58500  0.28290  1.0000
  O   O7        1.0  0.81490  0.48000  0.24130  1.0000
  O   O8        1.0  0.18510  0.52000  0.75870  1.0000
  O   O9        1.0  0.61370  0.27590  0.32330  1.0000
  O   O10       1.0  0.38630  0.72410  0.67670  1.0000
  O   O11       1.0  0.01980  0.81240  0.85400  1.0000
  O   O12       1.0  0.98020  0.18760  0.14600  1.0000
  C   C1        1.0  0.37520  0.20920  0.80140  1.0000
  C   C2        1.0  0.62480  0.79080  0.19860  1.0000
  C   C3        1.0  0.51440  0.30700  0.94840  1.0000
  C   C4        1.0  0.48560  0.69300  0.05160  1.0000
  H   H3        1.0  0.62610  0.41760  0.96850  1.0000
  H   H4        1.0  0.37390  0.58240  0.03150  1.0000
  C   C5        1.0  0.48610  0.23910  0.06440  1.0000
  C   C6        1.0  0.51390  0.76090  0.93560  1.0000
  C   C7        1.0  0.31900  0.07550  0.03470  1.0000
  C   C8        1.0  0.68100  0.92450  0.96530  1.0000
  H   H5        1.0  0.29740  0.03090  0.11210  1.0000
  H   H6        1.0  0.70260  0.96910  0.88790  1.0000
  C   C9        1.0  0.18170  0.97650  0.88740  1.0000
  C   C10       1.0  0.81830  0.02350  0.11260  1.0000
  C   C11       1.0  0.21020  0.04500  0.77210  1.0000
  C   C12       1.0  0.78980  0.95500  0.22790  1.0000
  H   H7        1.0  0.11750  0.97990  0.67450  1.0000
  H   H8        1.0  0.88250  0.02010  0.32550  1.0000
  C   C13       1.0  0.41220  0.28820  0.67960  1.0000
  C   C14       1.0  0.58780  0.71180  0.32040  1.0000
  C   C15       1.0  0.65010  0.34020  0.22250  1.0000
  C   C16       1.0  0.34990  0.65980  0.77750  1.0000
  H   H9        1.0  0.24800  0.00200  0.44500  1.0000
  H   H10       1.0  0.75200  0.99800  0.55500  1.0000
