data_image0
_chemical_formula_structural       Cd4C4O12C4O8C4H4C16H4C4O4C4H4O4H8
_chemical_formula_sum              "Cd4 C36 O28 H20"
_cell_length_a       10.2125
_cell_length_b       11.7849
_cell_length_c       15.0287
_cell_angle_alpha    90
_cell_angle_beta     106.282
_cell_angle_gamma    90

_space_group_name_H-M_alt    "P 1"
_space_group_IT_number       1

loop_
  _space_group_symop_operation_xyz
  'x, y, z'

loop_
  _atom_site_type_symbol
  _atom_site_label
  _atom_site_symmetry_multiplicity
  _atom_site_fract_x
  _atom_site_fract_y
  _atom_site_fract_z
  _atom_site_occupancy
  Cd  Cd1       1.0  0.17294  0.07799  0.05819  1.0000
  Cd  Cd2       1.0  0.82706  0.57800  0.44182  1.0000
  Cd  Cd3       1.0  0.82706  0.92200  0.94182  1.0000
  Cd  Cd4       1.0  0.17294  0.42200  0.55819  1.0000
  C   C1        1.0  0.22990  0.92610  0.20773  1.0000
  C   C2        1.0  0.77010  0.42610  0.29227  1.0000
  C   C3        1.0  0.77010  0.07390  0.79227  1.0000
  C   C4        1.0  0.22990  0.57390  0.70773  1.0000
  O   O1        1.0  0.09590  0.58437  0.47525  1.0000
  O   O2        1.0  0.90410  0.08437  0.02475  1.0000
  O   O3        1.0  0.90410  0.41563  0.52475  1.0000
  O   O4        1.0  0.09590  0.91563  0.97525  1.0000
  O   O5        1.0  0.11400  0.96933  0.18464  1.0000
  O   O6        1.0  0.88600  0.46933  0.31536  1.0000
  O   O7        1.0  0.88600  0.03067  0.81536  1.0000
  O   O8        1.0  0.11400  0.53067  0.68464  1.0000
  O   O9        1.0  0.95932  0.71198  0.39020  1.0000
  O   O10       1.0  0.04068  0.21198  0.10980  1.0000
  O   O11       1.0  0.04068  0.28802  0.60980  1.0000
  O   O12       1.0  0.95932  0.78802  0.89020  1.0000
  C   C5        1.0  0.56920  0.66611  0.41370  1.0000
  C   C6        1.0  0.43080  0.16611  0.08630  1.0000
  C   C7        1.0  0.43080  0.33389  0.58630  1.0000
  C   C8        1.0  0.56920  0.83389  0.91370  1.0000
  O   O13       1.0  0.60460  0.59802  0.47950  1.0000
  O   O14       1.0  0.39540  0.09802  0.02050  1.0000
  O   O15       1.0  0.39540  0.40198  0.52050  1.0000
  O   O16       1.0  0.60460  0.90198  0.97950  1.0000
  O   O17       1.0  0.64910  0.69899  0.36879  1.0000
  O   O18       1.0  0.35090  0.19899  0.13121  1.0000
  O   O19       1.0  0.35090  0.30101  0.63121  1.0000
  O   O20       1.0  0.64910  0.80101  0.86879  1.0000
  C   C9        1.0  0.16270  0.79910  0.32162  1.0000
  C   C10       1.0  0.83730  0.29910  0.17838  1.0000
  C   C11       1.0  0.83730  0.20090  0.67838  1.0000
  C   C12       1.0  0.16270  0.70090  0.82162  1.0000
  H   H1        1.0  0.07520  0.82910  0.30160  1.0000
  H   H2        1.0  0.92480  0.32910  0.19840  1.0000
  H   H3        1.0  0.92480  0.17090  0.69840  1.0000
  H   H4        1.0  0.07520  0.67090  0.80160  1.0000
  C   C13       1.0  0.26370  0.83950  0.28420  1.0000
  C   C14       1.0  0.73630  0.33950  0.21580  1.0000
  C   C15       1.0  0.73630  0.16050  0.71580  1.0000
  C   C16       1.0  0.26370  0.66050  0.78420  1.0000
  C   C17       1.0  0.19120  0.71400  0.38883  1.0000
  C   C18       1.0  0.80880  0.21400  0.11117  1.0000
  C   C19       1.0  0.80880  0.28600  0.61117  1.0000
  C   C20       1.0  0.19120  0.78600  0.88883  1.0000
  C   C21       1.0  0.42590  0.71241  0.38445  1.0000
  C   C22       1.0  0.57410  0.21241  0.11555  1.0000
  C   C23       1.0  0.57410  0.28759  0.61555  1.0000
  C   C24       1.0  0.42590  0.78759  0.88445  1.0000
  C   C25       1.0  0.39510  0.79570  0.31598  1.0000
  C   C26       1.0  0.60490  0.29570  0.18402  1.0000
  C   C27       1.0  0.60490  0.20430  0.68402  1.0000
  C   C28       1.0  0.39510  0.70430  0.81598  1.0000
  H   H5        1.0  0.46320  0.82240  0.29120  1.0000
  H   H6        1.0  0.53680  0.32240  0.20880  1.0000
  H   H7        1.0  0.53680  0.17760  0.70880  1.0000
  H   H8        1.0  0.46320  0.67760  0.79120  1.0000
  C   C29       1.0  0.07550  0.66717  0.42124  1.0000
  C   C30       1.0  0.92450  0.16717  0.07876  1.0000
  C   C31       1.0  0.92450  0.33283  0.57876  1.0000
  C   C32       1.0  0.07550  0.83283  0.92124  1.0000
  O   O21       1.0  0.31870  0.95210  0.16915  1.0000
  O   O22       1.0  0.68130  0.45210  0.33085  1.0000
  O   O23       1.0  0.68130  0.04790  0.83085  1.0000
  O   O24       1.0  0.31870  0.54790  0.66915  1.0000
  C   C33       1.0  0.32370  0.67140  0.42127  1.0000
  C   C34       1.0  0.67630  0.17140  0.07873  1.0000
  C   C35       1.0  0.67630  0.32860  0.57873  1.0000
  C   C36       1.0  0.32370  0.82860  0.92127  1.0000
  H   H9        1.0  0.34380  0.61590  0.46720  1.0000
  H   H10       1.0  0.65620  0.11590  0.03280  1.0000
  H   H11       1.0  0.65620  0.38410  0.53280  1.0000
  H   H12       1.0  0.34380  0.88410  0.96720  1.0000
  O   O25       1.0  0.09460  0.17010  0.91631  1.0000
  O   O26       1.0  0.90540  0.67010  0.58369  1.0000
  O   O27       1.0  0.90540  0.82990  0.08369  1.0000
  O   O28       1.0  0.09460  0.32990  0.41631  1.0000
  H   H13       1.0  0.03070  0.13020  0.87740  1.0000
  H   H14       1.0  0.96930  0.63020  0.62260  1.0000
  H   H15       1.0  0.96930  0.86980  0.12260  1.0000
  H   H16       1.0  0.03070  0.36980  0.37740  1.0000
  H   H17       1.0  0.15920  0.17400  0.88800  1.0000
  H   H18       1.0  0.84080  0.67400  0.61200  1.0000
  H   H19       1.0  0.84080  0.82600  0.11200  1.0000
  H   H20       1.0  0.15920  0.32600  0.38800  1.0000
