data_image0
_chemical_formula_structural       In16O64C64O64
_chemical_formula_sum              "In16 O128 C64"
_cell_length_a       15.8498
_cell_length_b       31.1643
_cell_length_c       8.6618
_cell_angle_alpha    90
_cell_angle_beta     90
_cell_angle_gamma    90

_space_group_name_H-M_alt    "P 1"
_space_group_IT_number       1

loop_
  _space_group_symop_operation_xyz
  'x, y, z'

loop_
  _atom_site_type_symbol
  _atom_site_label
  _atom_site_symmetry_multiplicity
  _atom_site_fract_x
  _atom_site_fract_y
  _atom_site_fract_z
  _atom_site_occupancy
  In  In1       1.0  0.01369  0.31469  0.33266  1.0000
  In  In2       1.0  0.98631  0.68531  0.33266  1.0000
  In  In3       1.0  0.26369  0.93531  0.58266  1.0000
  In  In4       1.0  0.23631  0.56469  0.58266  1.0000
  In  In5       1.0  0.01369  0.81469  0.83266  1.0000
  In  In6       1.0  0.98631  0.18531  0.83266  1.0000
  In  In7       1.0  0.26369  0.43531  0.08266  1.0000
  In  In8       1.0  0.23631  0.06469  0.08266  1.0000
  In  In9       1.0  0.51369  0.31469  0.83266  1.0000
  In  In10      1.0  0.48631  0.68531  0.83266  1.0000
  In  In11      1.0  0.76369  0.93531  0.08266  1.0000
  In  In12      1.0  0.73631  0.56469  0.08266  1.0000
  In  In13      1.0  0.51369  0.81469  0.33266  1.0000
  In  In14      1.0  0.48631  0.18531  0.33266  1.0000
  In  In15      1.0  0.76369  0.43531  0.58266  1.0000
  In  In16      1.0  0.73631  0.06469  0.58266  1.0000
  O   O1        1.0  0.93551  0.27864  0.16830  1.0000
  O   O2        1.0  0.06449  0.72136  0.16830  1.0000
  O   O3        1.0  0.18551  0.97136  0.41830  1.0000
  O   O4        1.0  0.31449  0.52864  0.41830  1.0000
  O   O5        1.0  0.93551  0.77864  0.66830  1.0000
  O   O6        1.0  0.06449  0.22136  0.66830  1.0000
  O   O7        1.0  0.18551  0.47136  0.91830  1.0000
  O   O8        1.0  0.31449  0.02864  0.91830  1.0000
  O   O9        1.0  0.43551  0.27864  0.66830  1.0000
  O   O10       1.0  0.56449  0.72136  0.66830  1.0000
  O   O11       1.0  0.68551  0.97136  0.91830  1.0000
  O   O12       1.0  0.81449  0.52864  0.91830  1.0000
  O   O13       1.0  0.43551  0.77864  0.16830  1.0000
  O   O14       1.0  0.56449  0.22136  0.16830  1.0000
  O   O15       1.0  0.68551  0.47136  0.41830  1.0000
  O   O16       1.0  0.81449  0.02864  0.41830  1.0000
  O   O17       1.0  0.10165  0.26861  0.17500  1.0000
  O   O18       1.0  0.89835  0.73139  0.17500  1.0000
  O   O19       1.0  0.35165  0.98139  0.42500  1.0000
  O   O20       1.0  0.14835  0.51861  0.42500  1.0000
  O   O21       1.0  0.10165  0.76861  0.67500  1.0000
  O   O22       1.0  0.89835  0.23139  0.67500  1.0000
  O   O23       1.0  0.35165  0.48139  0.92500  1.0000
  O   O24       1.0  0.14835  0.01861  0.92500  1.0000
  O   O25       1.0  0.60165  0.26861  0.67500  1.0000
  O   O26       1.0  0.39835  0.73139  0.67500  1.0000
  O   O27       1.0  0.85165  0.98139  0.92500  1.0000
  O   O28       1.0  0.64835  0.51861  0.92500  1.0000
  O   O29       1.0  0.60165  0.76861  0.17500  1.0000
  O   O30       1.0  0.39835  0.23139  0.17500  1.0000
  O   O31       1.0  0.85165  0.48139  0.42500  1.0000
  O   O32       1.0  0.64835  0.01861  0.42500  1.0000
  O   O33       1.0  0.04152  0.35822  0.14160  1.0000
  O   O34       1.0  0.95848  0.64178  0.14160  1.0000
  O   O35       1.0  0.29152  0.89178  0.39160  1.0000
  O   O36       1.0  0.20848  0.60822  0.39160  1.0000
  O   O37       1.0  0.04152  0.85822  0.64160  1.0000
  O   O38       1.0  0.95848  0.14178  0.64160  1.0000
  O   O39       1.0  0.29152  0.39178  0.89160  1.0000
  O   O40       1.0  0.20848  0.10822  0.89160  1.0000
  O   O41       1.0  0.54152  0.35822  0.64160  1.0000
  O   O42       1.0  0.45848  0.64178  0.64160  1.0000
  O   O43       1.0  0.79152  0.89178  0.89160  1.0000
  O   O44       1.0  0.70848  0.60822  0.89160  1.0000
  O   O45       1.0  0.54152  0.85822  0.14160  1.0000
  O   O46       1.0  0.45848  0.14178  0.14160  1.0000
  O   O47       1.0  0.79152  0.39178  0.39160  1.0000
  O   O48       1.0  0.70848  0.10822  0.39160  1.0000
  O   O49       1.0  0.14920  0.34173  0.37130  1.0000
  O   O50       1.0  0.85080  0.65827  0.37130  1.0000
  O   O51       1.0  0.39920  0.90827  0.62130  1.0000
  O   O52       1.0  0.10080  0.59173  0.62130  1.0000
  O   O53       1.0  0.14920  0.84173  0.87130  1.0000
  O   O54       1.0  0.85080  0.15827  0.87130  1.0000
  O   O55       1.0  0.39920  0.40827  0.12130  1.0000
  O   O56       1.0  0.10080  0.09173  0.12130  1.0000
  O   O57       1.0  0.64920  0.34173  0.87130  1.0000
  O   O58       1.0  0.35080  0.65827  0.87130  1.0000
  O   O59       1.0  0.89920  0.90827  0.12130  1.0000
  O   O60       1.0  0.60080  0.59173  0.12130  1.0000
  O   O61       1.0  0.64920  0.84173  0.37130  1.0000
  O   O62       1.0  0.35080  0.15827  0.37130  1.0000
  O   O63       1.0  0.89920  0.40827  0.62130  1.0000
  O   O64       1.0  0.60080  0.09173  0.62130  1.0000
  C   C1        1.0  0.96660  0.25113  0.08170  1.0000
  C   C2        1.0  0.03340  0.74887  0.08170  1.0000
  C   C3        1.0  0.21660  0.99887  0.33170  1.0000
  C   C4        1.0  0.28340  0.50113  0.33170  1.0000
  C   C5        1.0  0.96660  0.75113  0.58170  1.0000
  C   C6        1.0  0.03340  0.24887  0.58170  1.0000
  C   C7        1.0  0.21660  0.49887  0.83170  1.0000
  C   C8        1.0  0.28340  0.00113  0.83170  1.0000
  C   C9        1.0  0.46660  0.25113  0.58170  1.0000
  C   C10       1.0  0.53340  0.74887  0.58170  1.0000
  C   C11       1.0  0.71660  0.99887  0.83170  1.0000
  C   C12       1.0  0.78340  0.50113  0.83170  1.0000
  C   C13       1.0  0.46660  0.75113  0.08170  1.0000
  C   C14       1.0  0.53340  0.24887  0.08170  1.0000
  C   C15       1.0  0.71660  0.49887  0.33170  1.0000
  C   C16       1.0  0.78340  0.00113  0.33170  1.0000
  C   C17       1.0  0.06200  0.24552  0.08230  1.0000
  C   C18       1.0  0.93800  0.75448  0.08230  1.0000
  C   C19       1.0  0.31200  0.00448  0.33230  1.0000
  C   C20       1.0  0.18800  0.49552  0.33230  1.0000
  C   C21       1.0  0.06200  0.74552  0.58230  1.0000
  C   C22       1.0  0.93800  0.25448  0.58230  1.0000
  C   C23       1.0  0.31200  0.50448  0.83230  1.0000
  C   C24       1.0  0.18800  0.99552  0.83230  1.0000
  C   C25       1.0  0.56200  0.24552  0.58230  1.0000
  C   C26       1.0  0.43800  0.75448  0.58230  1.0000
  C   C27       1.0  0.81200  0.00448  0.83230  1.0000
  C   C28       1.0  0.68800  0.49552  0.83230  1.0000
  C   C29       1.0  0.56200  0.74552  0.08230  1.0000
  C   C30       1.0  0.43800  0.25448  0.08230  1.0000
  C   C31       1.0  0.81200  0.50448  0.33230  1.0000
  C   C32       1.0  0.68800  0.99552  0.33230  1.0000
  C   C33       1.0  0.11280  0.37559  0.13570  1.0000
  C   C34       1.0  0.88720  0.62441  0.13570  1.0000
  C   C35       1.0  0.36280  0.87441  0.38570  1.0000
  C   C36       1.0  0.13720  0.62559  0.38570  1.0000
  C   C37       1.0  0.11280  0.87559  0.63570  1.0000
  C   C38       1.0  0.88720  0.12441  0.63570  1.0000
  C   C39       1.0  0.36280  0.37441  0.88570  1.0000
  C   C40       1.0  0.13720  0.12559  0.88570  1.0000
  C   C41       1.0  0.61280  0.37559  0.63570  1.0000
  C   C42       1.0  0.38720  0.62441  0.63570  1.0000
  C   C43       1.0  0.86280  0.87441  0.88570  1.0000
  C   C44       1.0  0.63720  0.62559  0.88570  1.0000
  C   C45       1.0  0.61280  0.87559  0.13570  1.0000
  C   C46       1.0  0.38720  0.12441  0.13570  1.0000
  C   C47       1.0  0.86280  0.37441  0.38570  1.0000
  C   C48       1.0  0.63720  0.12559  0.38570  1.0000
  C   C49       1.0  0.17400  0.36645  0.26960  1.0000
  C   C50       1.0  0.82600  0.63355  0.26960  1.0000
  C   C51       1.0  0.42400  0.88355  0.51960  1.0000
  C   C52       1.0  0.07600  0.61645  0.51960  1.0000
  C   C53       1.0  0.17400  0.86645  0.76960  1.0000
  C   C54       1.0  0.82600  0.13355  0.76960  1.0000
  C   C55       1.0  0.42400  0.38355  0.01960  1.0000
  C   C56       1.0  0.07600  0.11645  0.01960  1.0000
  C   C57       1.0  0.67400  0.36645  0.76960  1.0000
  C   C58       1.0  0.32600  0.63355  0.76960  1.0000
  C   C59       1.0  0.92400  0.88355  0.01960  1.0000
  C   C60       1.0  0.57600  0.61645  0.01960  1.0000
  C   C61       1.0  0.67400  0.86645  0.26960  1.0000
  C   C62       1.0  0.32600  0.13355  0.26960  1.0000
  C   C63       1.0  0.92400  0.38355  0.51960  1.0000
  C   C64       1.0  0.57600  0.11645  0.51960  1.0000
  O   O65       1.0  0.92308  0.22769  0.99390  1.0000
  O   O66       1.0  0.07692  0.77231  0.99390  1.0000
  O   O67       1.0  0.17308  0.02231  0.24390  1.0000
  O   O68       1.0  0.32692  0.47769  0.24390  1.0000
  O   O69       1.0  0.92308  0.72769  0.49390  1.0000
  O   O70       1.0  0.07692  0.27231  0.49390  1.0000
  O   O71       1.0  0.17308  0.52231  0.74390  1.0000
  O   O72       1.0  0.32692  0.97769  0.74390  1.0000
  O   O73       1.0  0.42308  0.22769  0.49390  1.0000
  O   O74       1.0  0.57692  0.77231  0.49390  1.0000
  O   O75       1.0  0.67308  0.02231  0.74390  1.0000
  O   O76       1.0  0.82692  0.47769  0.74390  1.0000
  O   O77       1.0  0.42308  0.72769  0.99390  1.0000
  O   O78       1.0  0.57692  0.27231  0.99390  1.0000
  O   O79       1.0  0.67308  0.52231  0.24390  1.0000
  O   O80       1.0  0.82692  0.97769  0.24390  1.0000
  O   O81       1.0  0.09025  0.21856  0.98880  1.0000
  O   O82       1.0  0.90975  0.78144  0.98880  1.0000
  O   O83       1.0  0.34025  0.03144  0.23880  1.0000
  O   O84       1.0  0.15975  0.46856  0.23880  1.0000
  O   O85       1.0  0.09025  0.71856  0.48880  1.0000
  O   O86       1.0  0.90975  0.28144  0.48880  1.0000
  O   O87       1.0  0.34025  0.53144  0.73880  1.0000
  O   O88       1.0  0.15975  0.96856  0.73880  1.0000
  O   O89       1.0  0.59025  0.21856  0.48880  1.0000
  O   O90       1.0  0.40975  0.78144  0.48880  1.0000
  O   O91       1.0  0.84025  0.03144  0.73880  1.0000
  O   O92       1.0  0.65975  0.46856  0.73880  1.0000
  O   O93       1.0  0.59025  0.71856  0.98880  1.0000
  O   O94       1.0  0.40975  0.28144  0.98880  1.0000
  O   O95       1.0  0.84025  0.53144  0.23880  1.0000
  O   O96       1.0  0.65975  0.96856  0.23880  1.0000
  O   O97       1.0  0.13838  0.39927  0.03020  1.0000
  O   O98       1.0  0.86162  0.60073  0.03020  1.0000
  O   O99       1.0  0.38838  0.85073  0.28020  1.0000
  O   O100      1.0  0.11162  0.64927  0.28020  1.0000
  O   O101      1.0  0.13838  0.89927  0.53020  1.0000
  O   O102      1.0  0.86162  0.10073  0.53020  1.0000
  O   O103      1.0  0.38838  0.35073  0.78020  1.0000
  O   O104      1.0  0.11162  0.14927  0.78020  1.0000
  O   O105      1.0  0.63838  0.39927  0.53020  1.0000
  O   O106      1.0  0.36162  0.60073  0.53020  1.0000
  O   O107      1.0  0.88838  0.85073  0.78020  1.0000
  O   O108      1.0  0.61162  0.64927  0.78020  1.0000
  O   O109      1.0  0.63838  0.89927  0.03020  1.0000
  O   O110      1.0  0.36162  0.10073  0.03020  1.0000
  O   O111      1.0  0.88838  0.35073  0.28020  1.0000
  O   O112      1.0  0.61162  0.14927  0.28020  1.0000
  O   O113      1.0  0.24530  0.38498  0.26250  1.0000
  O   O114      1.0  0.75470  0.61502  0.26250  1.0000
  O   O115      1.0  0.49530  0.86502  0.51250  1.0000
  O   O116      1.0  0.00470  0.63498  0.51250  1.0000
  O   O117      1.0  0.24530  0.88498  0.76250  1.0000
  O   O118      1.0  0.75470  0.11502  0.76250  1.0000
  O   O119      1.0  0.49530  0.36502  0.01250  1.0000
  O   O120      1.0  0.00470  0.13498  0.01250  1.0000
  O   O121      1.0  0.74530  0.38498  0.76250  1.0000
  O   O122      1.0  0.25470  0.61502  0.76250  1.0000
  O   O123      1.0  0.99530  0.86502  0.01250  1.0000
  O   O124      1.0  0.50470  0.63498  0.01250  1.0000
  O   O125      1.0  0.74530  0.88498  0.26250  1.0000
  O   O126      1.0  0.25470  0.11502  0.26250  1.0000
  O   O127      1.0  0.99530  0.36502  0.51250  1.0000
  O   O128      1.0  0.50470  0.13498  0.51250  1.0000
