data_image0
_chemical_formula_structural       In16O64C64O64
_chemical_formula_sum              "In16 O128 C64"
_cell_length_a       15.856
_cell_length_b       31.183
_cell_length_c       8.6688
_cell_angle_alpha    90
_cell_angle_beta     90
_cell_angle_gamma    90

_space_group_name_H-M_alt    "P 1"
_space_group_IT_number       1

loop_
  _space_group_symop_operation_xyz
  'x, y, z'

loop_
  _atom_site_type_symbol
  _atom_site_label
  _atom_site_symmetry_multiplicity
  _atom_site_fract_x
  _atom_site_fract_y
  _atom_site_fract_z
  _atom_site_occupancy
  In  In1       1.0  0.48642  0.18524  0.23086  1.0000
  In  In2       1.0  0.51358  0.81477  0.23086  1.0000
  In  In3       1.0  0.73642  0.06476  0.48086  1.0000
  In  In4       1.0  0.76358  0.43524  0.48086  1.0000
  In  In5       1.0  0.48642  0.68524  0.73086  1.0000
  In  In6       1.0  0.51358  0.31476  0.73086  1.0000
  In  In7       1.0  0.73642  0.56476  0.98086  1.0000
  In  In8       1.0  0.76358  0.93524  0.98086  1.0000
  In  In9       1.0  0.98642  0.18524  0.73086  1.0000
  In  In10      1.0  0.01358  0.81477  0.73086  1.0000
  In  In11      1.0  0.23642  0.06476  0.98086  1.0000
  In  In12      1.0  0.26358  0.43524  0.98086  1.0000
  In  In13      1.0  0.98642  0.68524  0.23086  1.0000
  In  In14      1.0  0.01358  0.31476  0.23086  1.0000
  In  In15      1.0  0.23642  0.56476  0.48086  1.0000
  In  In16      1.0  0.26358  0.93524  0.48086  1.0000
  O   O1        1.0  0.60109  0.09162  0.51950  1.0000
  O   O2        1.0  0.39891  0.90838  0.51950  1.0000
  O   O3        1.0  0.85109  0.15838  0.76950  1.0000
  O   O4        1.0  0.64891  0.34162  0.76950  1.0000
  O   O5        1.0  0.60109  0.59162  0.01950  1.0000
  O   O6        1.0  0.39891  0.40838  0.01950  1.0000
  O   O7        1.0  0.85109  0.65838  0.26950  1.0000
  O   O8        1.0  0.64891  0.84162  0.26950  1.0000
  O   O9        1.0  0.10109  0.09162  0.01950  1.0000
  O   O10       1.0  0.89891  0.90838  0.01950  1.0000
  O   O11       1.0  0.35109  0.15838  0.26950  1.0000
  O   O12       1.0  0.14891  0.34162  0.26950  1.0000
  O   O13       1.0  0.10109  0.59162  0.51950  1.0000
  O   O14       1.0  0.89891  0.40838  0.51950  1.0000
  O   O15       1.0  0.35109  0.65838  0.76950  1.0000
  O   O16       1.0  0.14891  0.84162  0.76950  1.0000
  O   O17       1.0  0.43553  0.27899  0.56700  1.0000
  O   O18       1.0  0.56447  0.72101  0.56700  1.0000
  O   O19       1.0  0.68553  0.97101  0.81700  1.0000
  O   O20       1.0  0.81447  0.52899  0.81700  1.0000
  O   O21       1.0  0.43553  0.77899  0.06700  1.0000
  O   O22       1.0  0.56447  0.22101  0.06700  1.0000
  O   O23       1.0  0.68553  0.47101  0.31700  1.0000
  O   O24       1.0  0.81447  0.02899  0.31700  1.0000
  O   O25       1.0  0.93553  0.27899  0.06700  1.0000
  O   O26       1.0  0.06447  0.72101  0.06700  1.0000
  O   O27       1.0  0.18553  0.97101  0.31700  1.0000
  O   O28       1.0  0.31447  0.52899  0.31700  1.0000
  O   O29       1.0  0.93553  0.77899  0.56700  1.0000
  O   O30       1.0  0.06447  0.22101  0.56700  1.0000
  O   O31       1.0  0.18553  0.47101  0.81700  1.0000
  O   O32       1.0  0.31447  0.02899  0.81700  1.0000
  O   O33       1.0  0.60160  0.26872  0.57370  1.0000
  O   O34       1.0  0.39840  0.73128  0.57370  1.0000
  O   O35       1.0  0.85160  0.98128  0.82370  1.0000
  O   O36       1.0  0.64840  0.51872  0.82370  1.0000
  O   O37       1.0  0.60160  0.76872  0.07370  1.0000
  O   O38       1.0  0.39840  0.23128  0.07370  1.0000
  O   O39       1.0  0.85160  0.48128  0.32370  1.0000
  O   O40       1.0  0.64840  0.01872  0.32370  1.0000
  O   O41       1.0  0.10160  0.26872  0.07370  1.0000
  O   O42       1.0  0.89840  0.73128  0.07370  1.0000
  O   O43       1.0  0.35160  0.98128  0.32370  1.0000
  O   O44       1.0  0.14840  0.51872  0.32370  1.0000
  O   O45       1.0  0.10160  0.76872  0.57370  1.0000
  O   O46       1.0  0.89840  0.23128  0.57370  1.0000
  O   O47       1.0  0.35160  0.48128  0.82370  1.0000
  O   O48       1.0  0.14840  0.01872  0.82370  1.0000
  O   O49       1.0  0.70876  0.10832  0.29000  1.0000
  O   O50       1.0  0.29124  0.89168  0.29000  1.0000
  O   O51       1.0  0.95876  0.14168  0.54000  1.0000
  O   O52       1.0  0.54124  0.35832  0.54000  1.0000
  O   O53       1.0  0.70876  0.60832  0.79000  1.0000
  O   O54       1.0  0.29124  0.39168  0.79000  1.0000
  O   O55       1.0  0.95876  0.64168  0.04000  1.0000
  O   O56       1.0  0.54124  0.85832  0.04000  1.0000
  O   O57       1.0  0.20876  0.10832  0.79000  1.0000
  O   O58       1.0  0.79124  0.89168  0.79000  1.0000
  O   O59       1.0  0.45876  0.14168  0.04000  1.0000
  O   O60       1.0  0.04124  0.35832  0.04000  1.0000
  O   O61       1.0  0.20876  0.60832  0.29000  1.0000
  O   O62       1.0  0.79124  0.39168  0.29000  1.0000
  O   O63       1.0  0.45876  0.64168  0.54000  1.0000
  O   O64       1.0  0.04124  0.85832  0.54000  1.0000
  C   C1        1.0  0.56170  0.24562  0.48100  1.0000
  C   C2        1.0  0.43830  0.75438  0.48100  1.0000
  C   C3        1.0  0.81170  0.00438  0.73100  1.0000
  C   C4        1.0  0.68830  0.49562  0.73100  1.0000
  C   C5        1.0  0.56170  0.74562  0.98100  1.0000
  C   C6        1.0  0.43830  0.25438  0.98100  1.0000
  C   C7        1.0  0.81170  0.50438  0.23100  1.0000
  C   C8        1.0  0.68830  0.99562  0.23100  1.0000
  C   C9        1.0  0.06170  0.24562  0.98100  1.0000
  C   C10       1.0  0.93830  0.75438  0.98100  1.0000
  C   C11       1.0  0.31170  0.00438  0.23100  1.0000
  C   C12       1.0  0.18830  0.49562  0.23100  1.0000
  C   C13       1.0  0.06170  0.74562  0.48100  1.0000
  C   C14       1.0  0.93830  0.25438  0.48100  1.0000
  C   C15       1.0  0.31170  0.50438  0.73100  1.0000
  C   C16       1.0  0.18830  0.99562  0.73100  1.0000
  C   C17       1.0  0.57620  0.11682  0.41660  1.0000
  C   C18       1.0  0.42380  0.88318  0.41660  1.0000
  C   C19       1.0  0.82620  0.13318  0.66660  1.0000
  C   C20       1.0  0.67380  0.36682  0.66660  1.0000
  C   C21       1.0  0.57620  0.61682  0.91660  1.0000
  C   C22       1.0  0.42380  0.38318  0.91660  1.0000
  C   C23       1.0  0.82620  0.63318  0.16660  1.0000
  C   C24       1.0  0.67380  0.86682  0.16660  1.0000
  C   C25       1.0  0.07620  0.11682  0.91660  1.0000
  C   C26       1.0  0.92380  0.88318  0.91660  1.0000
  C   C27       1.0  0.32620  0.13318  0.16660  1.0000
  C   C28       1.0  0.17380  0.36682  0.16660  1.0000
  C   C29       1.0  0.07620  0.61682  0.41660  1.0000
  C   C30       1.0  0.92380  0.38318  0.41660  1.0000
  C   C31       1.0  0.32620  0.63318  0.66660  1.0000
  C   C32       1.0  0.17380  0.86682  0.66660  1.0000
  C   C33       1.0  0.46690  0.25129  0.47820  1.0000
  C   C34       1.0  0.53310  0.74871  0.47820  1.0000
  C   C35       1.0  0.71690  0.99871  0.72820  1.0000
  C   C36       1.0  0.78310  0.50129  0.72820  1.0000
  C   C37       1.0  0.46690  0.75129  0.97820  1.0000
  C   C38       1.0  0.53310  0.24871  0.97820  1.0000
  C   C39       1.0  0.71690  0.49871  0.22820  1.0000
  C   C40       1.0  0.78310  0.00129  0.22820  1.0000
  C   C41       1.0  0.96690  0.25129  0.97820  1.0000
  C   C42       1.0  0.03310  0.74871  0.97820  1.0000
  C   C43       1.0  0.21690  0.99871  0.22820  1.0000
  C   C44       1.0  0.28310  0.50129  0.22820  1.0000
  C   C45       1.0  0.96690  0.75129  0.47820  1.0000
  C   C46       1.0  0.03310  0.24871  0.47820  1.0000
  C   C47       1.0  0.21690  0.49871  0.72820  1.0000
  C   C48       1.0  0.28310  0.00129  0.72820  1.0000
  C   C49       1.0  0.63720  0.12575  0.28350  1.0000
  C   C50       1.0  0.36280  0.87425  0.28350  1.0000
  C   C51       1.0  0.88720  0.12425  0.53350  1.0000
  C   C52       1.0  0.61280  0.37575  0.53350  1.0000
  C   C53       1.0  0.63720  0.62575  0.78350  1.0000
  C   C54       1.0  0.36280  0.37425  0.78350  1.0000
  C   C55       1.0  0.88720  0.62425  0.03350  1.0000
  C   C56       1.0  0.61280  0.87575  0.03350  1.0000
  C   C57       1.0  0.13720  0.12575  0.78350  1.0000
  C   C58       1.0  0.86280  0.87425  0.78350  1.0000
  C   C59       1.0  0.38720  0.12425  0.03350  1.0000
  C   C60       1.0  0.11280  0.37575  0.03350  1.0000
  C   C61       1.0  0.13720  0.62575  0.28350  1.0000
  C   C62       1.0  0.86280  0.37425  0.28350  1.0000
  C   C63       1.0  0.38720  0.62425  0.53350  1.0000
  C   C64       1.0  0.11280  0.87575  0.53350  1.0000
  O   O65       1.0  0.50484  0.13485  0.41080  1.0000
  O   O66       1.0  0.49516  0.86515  0.41080  1.0000
  O   O67       1.0  0.75484  0.11515  0.66080  1.0000
  O   O68       1.0  0.74516  0.38485  0.66080  1.0000
  O   O69       1.0  0.50484  0.63485  0.91080  1.0000
  O   O70       1.0  0.49516  0.36515  0.91080  1.0000
  O   O71       1.0  0.75484  0.61515  0.16080  1.0000
  O   O72       1.0  0.74516  0.88485  0.16080  1.0000
  O   O73       1.0  0.00484  0.13485  0.91080  1.0000
  O   O74       1.0  0.99516  0.86515  0.91080  1.0000
  O   O75       1.0  0.25484  0.11515  0.16080  1.0000
  O   O76       1.0  0.24516  0.38485  0.16080  1.0000
  O   O77       1.0  0.00484  0.63485  0.41080  1.0000
  O   O78       1.0  0.99516  0.36515  0.41080  1.0000
  O   O79       1.0  0.25484  0.61515  0.66080  1.0000
  O   O80       1.0  0.24516  0.88485  0.66080  1.0000
  O   O81       1.0  0.61198  0.14958  0.17910  1.0000
  O   O82       1.0  0.38802  0.85042  0.17910  1.0000
  O   O83       1.0  0.86198  0.10042  0.42910  1.0000
  O   O84       1.0  0.63802  0.39958  0.42910  1.0000
  O   O85       1.0  0.61198  0.64958  0.67910  1.0000
  O   O86       1.0  0.38802  0.35042  0.67910  1.0000
  O   O87       1.0  0.86198  0.60042  0.92910  1.0000
  O   O88       1.0  0.63802  0.89958  0.92910  1.0000
  O   O89       1.0  0.11198  0.14958  0.67910  1.0000
  O   O90       1.0  0.88802  0.85042  0.67910  1.0000
  O   O91       1.0  0.36198  0.10042  0.92910  1.0000
  O   O92       1.0  0.13802  0.39958  0.92910  1.0000
  O   O93       1.0  0.11198  0.64958  0.17910  1.0000
  O   O94       1.0  0.88802  0.35042  0.17910  1.0000
  O   O95       1.0  0.36198  0.60042  0.42910  1.0000
  O   O96       1.0  0.13802  0.89958  0.42910  1.0000
  O   O97       1.0  0.42348  0.22755  0.39240  1.0000
  O   O98       1.0  0.57652  0.77245  0.39240  1.0000
  O   O99       1.0  0.67348  0.02245  0.64240  1.0000
  O   O100      1.0  0.82652  0.47755  0.64240  1.0000
  O   O101      1.0  0.42348  0.72755  0.89240  1.0000
  O   O102      1.0  0.57652  0.27245  0.89240  1.0000
  O   O103      1.0  0.67348  0.52245  0.14240  1.0000
  O   O104      1.0  0.82652  0.97755  0.14240  1.0000
  O   O105      1.0  0.92348  0.22755  0.89240  1.0000
  O   O106      1.0  0.07652  0.77245  0.89240  1.0000
  O   O107      1.0  0.17348  0.02245  0.14240  1.0000
  O   O108      1.0  0.32652  0.47755  0.14240  1.0000
  O   O109      1.0  0.92348  0.72755  0.39240  1.0000
  O   O110      1.0  0.07652  0.27245  0.39240  1.0000
  O   O111      1.0  0.17348  0.52245  0.64240  1.0000
  O   O112      1.0  0.32652  0.97755  0.64240  1.0000
  O   O113      1.0  0.59070  0.21847  0.38810  1.0000
  O   O114      1.0  0.40930  0.78153  0.38810  1.0000
  O   O115      1.0  0.84070  0.03153  0.63810  1.0000
  O   O116      1.0  0.65930  0.46847  0.63810  1.0000
  O   O117      1.0  0.59070  0.71847  0.88810  1.0000
  O   O118      1.0  0.40930  0.28153  0.88810  1.0000
  O   O119      1.0  0.84070  0.53153  0.13810  1.0000
  O   O120      1.0  0.65930  0.96847  0.13810  1.0000
  O   O121      1.0  0.09070  0.21847  0.88810  1.0000
  O   O122      1.0  0.90930  0.78153  0.88810  1.0000
  O   O123      1.0  0.34070  0.03153  0.13810  1.0000
  O   O124      1.0  0.15930  0.46847  0.13810  1.0000
  O   O125      1.0  0.09070  0.71847  0.38810  1.0000
  O   O126      1.0  0.90930  0.28153  0.38810  1.0000
  O   O127      1.0  0.34070  0.53153  0.63810  1.0000
  O   O128      1.0  0.15930  0.96847  0.63810  1.0000
