data_image0
_chemical_formula_structural       Cd4N36C24
_chemical_formula_sum              "Cd4 N36 C24"
_cell_length_a       12.238
_cell_length_b       17.073
_cell_length_c       12.782
_cell_angle_alpha    90
_cell_angle_beta     90.95
_cell_angle_gamma    90

_space_group_name_H-M_alt    "P 1"
_space_group_IT_number       1

loop_
  _space_group_symop_operation_xyz
  'x, y, z'

loop_
  _atom_site_type_symbol
  _atom_site_label
  _atom_site_symmetry_multiplicity
  _atom_site_fract_x
  _atom_site_fract_y
  _atom_site_fract_z
  _atom_site_occupancy
  Cd  Cd1       1.0  0.80126  0.24451  0.71846  1.0000
  Cd  Cd2       1.0  0.69874  0.74451  0.78154  1.0000
  Cd  Cd3       1.0  0.19874  0.75549  0.28154  1.0000
  Cd  Cd4       1.0  0.30126  0.25549  0.21846  1.0000
  N   N1        1.0  0.73750  0.87253  0.84320  1.0000
  N   N2        1.0  0.76250  0.37253  0.65680  1.0000
  N   N3        1.0  0.26250  0.12747  0.15680  1.0000
  N   N4        1.0  0.23750  0.62747  0.34320  1.0000
  N   N5        1.0  0.94400  0.22471  0.60390  1.0000
  N   N6        1.0  0.55600  0.72471  0.89610  1.0000
  N   N7        1.0  0.05600  0.77529  0.39610  1.0000
  N   N8        1.0  0.44400  0.27529  0.10390  1.0000
  N   N9        1.0  0.68390  0.19920  0.58340  1.0000
  N   N10       1.0  0.81610  0.69920  0.91660  1.0000
  N   N11       1.0  0.31610  0.80080  0.41660  1.0000
  N   N12       1.0  0.18390  0.30080  0.08340  1.0000
  N   N13       1.0  0.82990  0.11808  0.78350  1.0000
  N   N14       1.0  0.67010  0.61808  0.71650  1.0000
  N   N15       1.0  0.17010  0.88192  0.21650  1.0000
  N   N16       1.0  0.32990  0.38192  0.28350  1.0000
  N   N17       1.0  0.42450  0.20165  0.34020  1.0000
  N   N18       1.0  0.07550  0.70165  0.15980  1.0000
  N   N19       1.0  0.57550  0.79835  0.65980  1.0000
  N   N20       1.0  0.92450  0.29835  0.84020  1.0000
  N   N21       1.0  0.84170  0.99219  0.87250  1.0000
  N   N22       1.0  0.65830  0.49219  0.62750  1.0000
  N   N23       1.0  0.15830  0.00781  0.12750  1.0000
  N   N24       1.0  0.34170  0.50781  0.37250  1.0000
  N   N25       1.0  0.55420  0.14020  0.46030  1.0000
  N   N26       1.0  0.94580  0.64020  0.03970  1.0000
  N   N27       1.0  0.44580  0.85980  0.53970  1.0000
  N   N28       1.0  0.05420  0.35980  0.96030  1.0000
  N   N29       1.0  0.15700  0.24091  0.32810  1.0000
  N   N30       1.0  0.34300  0.74091  0.17190  1.0000
  N   N31       1.0  0.84300  0.75909  0.67190  1.0000
  N   N32       1.0  0.65700  0.25909  0.82810  1.0000
  N   N33       1.0  0.00410  0.19281  0.42850  1.0000
  N   N34       1.0  0.49590  0.69281  0.07150  1.0000
  N   N35       1.0  0.99590  0.80719  0.57150  1.0000
  N   N36       1.0  0.50410  0.30719  0.92850  1.0000
  C   C1        1.0  0.62210  0.17521  0.52420  1.0000
  C   C2        1.0  0.87790  0.67521  0.97580  1.0000
  C   C3        1.0  0.37790  0.82479  0.47580  1.0000
  C   C4        1.0  0.12210  0.32479  0.02420  1.0000
  C   C5        1.0  0.83100  0.05794  0.82150  1.0000
  C   C6        1.0  0.66900  0.55794  0.67850  1.0000
  C   C7        1.0  0.16900  0.94206  0.17850  1.0000
  C   C8        1.0  0.33100  0.44206  0.32150  1.0000
  C   C9        1.0  0.48710  0.17682  0.39800  1.0000
  C   C10       1.0  0.01290  0.67682  0.10200  1.0000
  C   C11       1.0  0.51290  0.82318  0.60200  1.0000
  C   C12       1.0  0.98710  0.32318  0.89800  1.0000
  C   C13       1.0  0.97700  0.21247  0.52230  1.0000
  C   C14       1.0  0.52300  0.71247  0.97770  1.0000
  C   C15       1.0  0.02300  0.78753  0.47770  1.0000
  C   C16       1.0  0.47700  0.28753  0.02230  1.0000
  C   C17       1.0  0.78440  0.93040  0.85170  1.0000
  C   C18       1.0  0.71560  0.43040  0.64830  1.0000
  C   C19       1.0  0.21560  0.06960  0.14830  1.0000
  C   C20       1.0  0.28440  0.56960  0.35170  1.0000
  C   C21       1.0  0.08700  0.22083  0.38040  1.0000
  C   C22       1.0  0.41300  0.72083  0.11960  1.0000
  C   C23       1.0  0.91300  0.77917  0.61960  1.0000
  C   C24       1.0  0.58700  0.27917  0.88040  1.0000
