data_image0
_chemical_formula_structural       Cd8O72H16O8N16C64H16
_chemical_formula_sum              "Cd8 O80 H32 N16 C64"
_cell_length_a       31.72
_cell_length_b       9.729
_cell_length_c       15.103
_cell_angle_alpha    90
_cell_angle_beta     102.79
_cell_angle_gamma    90

_space_group_name_H-M_alt    "P 1"
_space_group_IT_number       1

loop_
  _space_group_symop_operation_xyz
  'x, y, z'

loop_
  _atom_site_type_symbol
  _atom_site_label
  _atom_site_symmetry_multiplicity
  _atom_site_fract_x
  _atom_site_fract_y
  _atom_site_fract_z
  _atom_site_occupancy
  Cd  Cd1       1.0  0.79835  0.63137  0.98095  1.0000
  Cd  Cd2       1.0  0.20165  0.63137  0.51905  1.0000
  Cd  Cd3       1.0  0.29835  0.13137  0.98095  1.0000
  Cd  Cd4       1.0  0.70165  0.13137  0.51905  1.0000
  Cd  Cd5       1.0  0.20165  0.36863  0.01905  1.0000
  Cd  Cd6       1.0  0.79835  0.36863  0.48095  1.0000
  Cd  Cd7       1.0  0.70165  0.86863  0.01905  1.0000
  Cd  Cd8       1.0  0.29835  0.86863  0.48095  1.0000
  O   O1        1.0  0.75570  0.84653  0.93548  1.0000
  O   O2        1.0  0.24430  0.84653  0.56452  1.0000
  O   O3        1.0  0.25570  0.34653  0.93548  1.0000
  O   O4        1.0  0.74430  0.34653  0.56452  1.0000
  O   O5        1.0  0.24430  0.15347  0.06452  1.0000
  O   O6        1.0  0.75570  0.15347  0.43548  1.0000
  O   O7        1.0  0.74430  0.65347  0.06452  1.0000
  O   O8        1.0  0.25570  0.65347  0.43548  1.0000
  O   O9        1.0  0.72611  0.96200  0.80666  1.0000
  O   O10       1.0  0.27389  0.96200  0.69334  1.0000
  O   O11       1.0  0.22611  0.46200  0.80666  1.0000
  O   O12       1.0  0.77389  0.46200  0.69334  1.0000
  O   O13       1.0  0.27389  0.03800  0.19334  1.0000
  O   O14       1.0  0.72611  0.03800  0.30666  1.0000
  O   O15       1.0  0.77389  0.53800  0.19334  1.0000
  O   O16       1.0  0.22611  0.53800  0.30666  1.0000
  O   O17       1.0  0.78405  0.13077  0.69700  1.0000
  O   O18       1.0  0.21595  0.13077  0.80300  1.0000
  O   O19       1.0  0.28405  0.63077  0.69700  1.0000
  O   O20       1.0  0.71595  0.63077  0.80300  1.0000
  O   O21       1.0  0.21595  0.86923  0.30300  1.0000
  O   O22       1.0  0.78405  0.86923  0.19700  1.0000
  O   O23       1.0  0.71595  0.36923  0.30300  1.0000
  O   O24       1.0  0.28405  0.36923  0.19700  1.0000
  O   O25       1.0  0.74224  0.97083  0.61389  1.0000
  O   O26       1.0  0.25776  0.97083  0.88611  1.0000
  O   O27       1.0  0.24224  0.47083  0.61389  1.0000
  O   O28       1.0  0.75776  0.47083  0.88611  1.0000
  O   O29       1.0  0.25776  0.02917  0.38611  1.0000
  O   O30       1.0  0.74224  0.02917  0.11389  1.0000
  O   O31       1.0  0.75776  0.52917  0.38611  1.0000
  O   O32       1.0  0.24224  0.52917  0.11389  1.0000
  O   O33       1.0  0.93253  0.81180  0.73457  1.0000
  O   O34       1.0  0.06747  0.81180  0.76543  1.0000
  O   O35       1.0  0.43253  0.31180  0.73457  1.0000
  O   O36       1.0  0.56747  0.31180  0.76543  1.0000
  O   O37       1.0  0.06747  0.18820  0.26543  1.0000
  O   O38       1.0  0.93253  0.18820  0.23457  1.0000
  O   O39       1.0  0.56747  0.68820  0.26543  1.0000
  O   O40       1.0  0.43253  0.68820  0.23457  1.0000
  O   O41       1.0  0.89642  0.64030  0.65330  1.0000
  O   O42       1.0  0.10358  0.64030  0.84670  1.0000
  O   O43       1.0  0.39642  0.14030  0.65330  1.0000
  O   O44       1.0  0.60358  0.14030  0.84670  1.0000
  O   O45       1.0  0.10358  0.35970  0.34670  1.0000
  O   O46       1.0  0.89642  0.35970  0.15330  1.0000
  O   O47       1.0  0.60358  0.85970  0.34670  1.0000
  O   O48       1.0  0.39642  0.85970  0.15330  1.0000
  O   O49       1.0  0.91210  0.55690  0.85664  1.0000
  O   O50       1.0  0.08790  0.55690  0.64336  1.0000
  O   O51       1.0  0.41210  0.05690  0.85664  1.0000
  O   O52       1.0  0.58790  0.05690  0.64336  1.0000
  O   O53       1.0  0.08790  0.44310  0.14336  1.0000
  O   O54       1.0  0.91210  0.44310  0.35664  1.0000
  O   O55       1.0  0.58790  0.94310  0.14336  1.0000
  O   O56       1.0  0.41210  0.94310  0.35664  1.0000
  O   O57       1.0  0.86745  0.54990  0.95162  1.0000
  O   O58       1.0  0.13255  0.54990  0.54838  1.0000
  O   O59       1.0  0.36745  0.04990  0.95162  1.0000
  O   O60       1.0  0.63255  0.04990  0.54838  1.0000
  O   O61       1.0  0.13255  0.45010  0.04838  1.0000
  O   O62       1.0  0.86745  0.45010  0.45162  1.0000
  O   O63       1.0  0.63255  0.95010  0.04838  1.0000
  O   O64       1.0  0.36745  0.95010  0.45162  1.0000
  O   O65       1.0  0.83910  0.76447  0.09583  1.0000
  O   O66       1.0  0.16090  0.76447  0.40417  1.0000
  O   O67       1.0  0.33910  0.26447  0.09583  1.0000
  O   O68       1.0  0.66090  0.26447  0.40417  1.0000
  O   O69       1.0  0.16090  0.23553  0.90417  1.0000
  O   O70       1.0  0.83910  0.23553  0.59583  1.0000
  O   O71       1.0  0.66090  0.73553  0.90417  1.0000
  O   O72       1.0  0.33910  0.73553  0.59583  1.0000
  H   H1        1.0  0.85990  0.71430  0.13110  1.0000
  H   H2        1.0  0.14010  0.71430  0.36890  1.0000
  H   H3        1.0  0.35990  0.21430  0.13110  1.0000
  H   H4        1.0  0.64010  0.21430  0.36890  1.0000
  H   H5        1.0  0.14010  0.28570  0.86890  1.0000
  H   H6        1.0  0.85990  0.28570  0.63110  1.0000
  H   H7        1.0  0.64010  0.78570  0.86890  1.0000
  H   H8        1.0  0.35990  0.78570  0.63110  1.0000
  H   H9        1.0  0.82240  0.79940  0.13100  1.0000
  H   H10       1.0  0.17760  0.79940  0.36900  1.0000
  H   H11       1.0  0.32240  0.29940  0.13100  1.0000
  H   H12       1.0  0.67760  0.29940  0.36900  1.0000
  H   H13       1.0  0.17760  0.20060  0.86900  1.0000
  H   H14       1.0  0.82240  0.20060  0.63100  1.0000
  H   H15       1.0  0.67760  0.70060  0.86900  1.0000
  H   H16       1.0  0.32240  0.70060  0.63100  1.0000
  O   O73       1.0  0.81434  0.43720  0.07110  1.0000
  O   O74       1.0  0.18566  0.43720  0.42890  1.0000
  O   O75       1.0  0.31434  0.93720  0.07110  1.0000
  O   O76       1.0  0.68566  0.93720  0.42890  1.0000
  O   O77       1.0  0.18566  0.56280  0.92890  1.0000
  O   O78       1.0  0.81434  0.56280  0.57110  1.0000
  O   O79       1.0  0.68566  0.06280  0.92890  1.0000
  O   O80       1.0  0.31434  0.06280  0.57110  1.0000
  N   N1        1.0  0.81678  0.74290  0.85729  1.0000
  N   N2        1.0  0.18322  0.74290  0.64271  1.0000
  N   N3        1.0  0.31678  0.24290  0.85729  1.0000
  N   N4        1.0  0.68322  0.24290  0.64271  1.0000
  N   N5        1.0  0.18322  0.25710  0.14271  1.0000
  N   N6        1.0  0.81678  0.25710  0.35729  1.0000
  N   N7        1.0  0.68322  0.75710  0.14271  1.0000
  N   N8        1.0  0.31678  0.75710  0.35729  1.0000
  N   N9        1.0  0.83445  0.86300  0.70361  1.0000
  N   N10       1.0  0.16555  0.86300  0.79639  1.0000
  N   N11       1.0  0.33445  0.36300  0.70361  1.0000
  N   N12       1.0  0.66555  0.36300  0.79639  1.0000
  N   N13       1.0  0.16555  0.13700  0.29639  1.0000
  N   N14       1.0  0.83445  0.13700  0.20361  1.0000
  N   N15       1.0  0.66555  0.63700  0.29639  1.0000
  N   N16       1.0  0.33445  0.63700  0.20361  1.0000
  C   C1        1.0  0.75404  0.88640  0.85474  1.0000
  C   C2        1.0  0.24596  0.88640  0.64526  1.0000
  C   C3        1.0  0.25404  0.38640  0.85474  1.0000
  C   C4        1.0  0.74596  0.38640  0.64526  1.0000
  C   C5        1.0  0.24596  0.11360  0.14526  1.0000
  C   C6        1.0  0.75404  0.11360  0.35474  1.0000
  C   C7        1.0  0.74596  0.61360  0.14526  1.0000
  C   C8        1.0  0.25404  0.61360  0.35474  1.0000
  C   C9        1.0  0.79067  0.83990  0.81278  1.0000
  C   C10       1.0  0.20933  0.83990  0.68722  1.0000
  C   C11       1.0  0.29067  0.33990  0.81278  1.0000
  C   C12       1.0  0.70933  0.33990  0.68722  1.0000
  C   C13       1.0  0.20933  0.16010  0.18722  1.0000
  C   C14       1.0  0.79067  0.16010  0.31278  1.0000
  C   C15       1.0  0.70933  0.66010  0.18722  1.0000
  C   C16       1.0  0.29067  0.66010  0.31278  1.0000
  C   C17       1.0  0.79935  0.89810  0.73407  1.0000
  C   C18       1.0  0.20065  0.89810  0.76593  1.0000
  C   C19       1.0  0.29935  0.39810  0.73407  1.0000
  C   C20       1.0  0.70065  0.39810  0.76593  1.0000
  C   C21       1.0  0.20065  0.10190  0.26593  1.0000
  C   C22       1.0  0.79935  0.10190  0.23407  1.0000
  C   C23       1.0  0.70065  0.60190  0.26593  1.0000
  C   C24       1.0  0.29935  0.60190  0.23407  1.0000
  C   C25       1.0  0.77258  0.01080  0.67919  1.0000
  C   C26       1.0  0.22742  0.01080  0.82081  1.0000
  C   C27       1.0  0.27258  0.51080  0.67919  1.0000
  C   C28       1.0  0.72742  0.51080  0.82081  1.0000
  C   C29       1.0  0.22742  0.98920  0.32081  1.0000
  C   C30       1.0  0.77258  0.98920  0.17919  1.0000
  C   C31       1.0  0.72742  0.48920  0.32081  1.0000
  C   C32       1.0  0.27258  0.48920  0.17919  1.0000
  C   C33       1.0  0.90028  0.73640  0.71027  1.0000
  C   C34       1.0  0.09972  0.73640  0.78973  1.0000
  C   C35       1.0  0.40028  0.23640  0.71027  1.0000
  C   C36       1.0  0.59972  0.23640  0.78973  1.0000
  C   C37       1.0  0.09972  0.26360  0.28973  1.0000
  C   C38       1.0  0.90028  0.26360  0.21027  1.0000
  C   C39       1.0  0.59972  0.76360  0.28973  1.0000
  C   C40       1.0  0.40028  0.76360  0.21027  1.0000
  C   C41       1.0  0.86069  0.76690  0.74962  1.0000
  C   C42       1.0  0.13931  0.76690  0.75038  1.0000
  C   C43       1.0  0.36069  0.26690  0.74962  1.0000
  C   C44       1.0  0.63931  0.26690  0.75038  1.0000
  C   C45       1.0  0.13931  0.23310  0.25038  1.0000
  C   C46       1.0  0.86069  0.23310  0.24962  1.0000
  C   C47       1.0  0.63931  0.73310  0.25038  1.0000
  C   C48       1.0  0.36069  0.73310  0.24962  1.0000
  C   C49       1.0  0.85150  0.70370  0.82695  1.0000
  C   C50       1.0  0.14850  0.70370  0.67305  1.0000
  C   C51       1.0  0.35150  0.20370  0.82695  1.0000
  C   C52       1.0  0.64850  0.20370  0.67305  1.0000
  C   C53       1.0  0.14850  0.29630  0.17305  1.0000
  C   C54       1.0  0.85150  0.29630  0.32695  1.0000
  C   C55       1.0  0.64850  0.79630  0.17305  1.0000
  C   C56       1.0  0.35150  0.79630  0.32695  1.0000
  C   C57       1.0  0.87905  0.59380  0.88367  1.0000
  C   C58       1.0  0.12095  0.59380  0.61633  1.0000
  C   C59       1.0  0.37905  0.09380  0.88367  1.0000
  C   C60       1.0  0.62095  0.09380  0.61633  1.0000
  C   C61       1.0  0.12095  0.40620  0.11633  1.0000
  C   C62       1.0  0.87905  0.40620  0.38367  1.0000
  C   C63       1.0  0.62095  0.90620  0.11633  1.0000
  C   C64       1.0  0.37905  0.90620  0.38367  1.0000
  H   H17       1.0  0.80330  0.46600  0.11440  1.0000
  H   H18       1.0  0.19670  0.46600  0.38560  1.0000
  H   H19       1.0  0.30330  0.96600  0.11440  1.0000
  H   H20       1.0  0.69670  0.96600  0.38560  1.0000
  H   H21       1.0  0.19670  0.53400  0.88560  1.0000
  H   H22       1.0  0.80330  0.53400  0.61440  1.0000
  H   H23       1.0  0.69670  0.03400  0.88560  1.0000
  H   H24       1.0  0.30330  0.03400  0.61440  1.0000
  H   H25       1.0  0.84060  0.41200  0.08900  1.0000
  H   H26       1.0  0.15940  0.41200  0.41100  1.0000
  H   H27       1.0  0.34060  0.91200  0.08900  1.0000
  H   H28       1.0  0.65940  0.91200  0.41100  1.0000
  H   H29       1.0  0.15940  0.58800  0.91100  1.0000
  H   H30       1.0  0.84060  0.58800  0.58900  1.0000
  H   H31       1.0  0.65940  0.08800  0.91100  1.0000
  H   H32       1.0  0.34060  0.08800  0.58900  1.0000
