data_image0
_chemical_formula_structural       V10O28Cu2N4H2N4H2N4H2C2H2C2H2C2H2C2H2C2H2C2H2C2H2C2H2C2H2
_chemical_formula_sum              "V10 O28 Cu2 N12 H24 C18"
_cell_length_a       11.6713
_cell_length_b       11.9766
_cell_length_c       12.9
_cell_angle_alpha    100.226
_cell_angle_beta     105.549
_cell_angle_gamma    118.571

_space_group_name_H-M_alt    "P 1"
_space_group_IT_number       1

loop_
  _space_group_symop_operation_xyz
  'x, y, z'

loop_
  _atom_site_type_symbol
  _atom_site_label
  _atom_site_symmetry_multiplicity
  _atom_site_fract_x
  _atom_site_fract_y
  _atom_site_fract_z
  _atom_site_occupancy
  V   V1        1.0  0.01837  0.03491  0.30009  1.0000
  V   V2        1.0  0.98163  0.96509  0.69991  1.0000
  V   V3        1.0  0.00198  0.86374  0.46487  1.0000
  V   V4        1.0  0.99802  0.13626  0.53513  1.0000
  V   V5        1.0  0.27677  0.29140  0.50517  1.0000
  V   V6        1.0  0.72323  0.70860  0.49483  1.0000
  V   V7        1.0  0.26522  0.13577  0.67674  1.0000
  V   V8        1.0  0.73478  0.86423  0.32326  1.0000
  V   V9        1.0  0.27942  0.03332  0.43972  1.0000
  V   V10       1.0  0.72058  0.96668  0.56028  1.0000
  O   O1        1.0  0.14980  0.99010  0.29730  1.0000
  O   O2        1.0  0.85020  0.00990  0.70270  1.0000
  O   O3        1.0  0.93590  0.00050  0.16640  1.0000
  O   O4        1.0  0.06410  0.99950  0.83360  1.0000
  O   O5        1.0  0.14810  0.21640  0.35430  1.0000
  O   O6        1.0  0.85190  0.78360  0.64570  1.0000
  O   O7        1.0  0.12390  0.06940  0.48990  1.0000
  O   O8        1.0  0.87610  0.93060  0.51010  1.0000
  O   O9        1.0  0.89680  0.85480  0.31445  1.0000
  O   O10       1.0  0.10320  0.14520  0.68555  1.0000
  O   O11       1.0  0.89600  0.06150  0.36820  1.0000
  O   O12       1.0  0.10400  0.93850  0.63180  1.0000
  O   O13       1.0  0.12420  0.84830  0.43210  1.0000
  O   O14       1.0  0.87580  0.15170  0.56790  1.0000
  O   O15       1.0  0.87800  0.70770  0.45490  1.0000
  O   O16       1.0  0.12200  0.29230  0.54510  1.0000
  O   O17       1.0  0.37640  0.44830  0.52450  1.0000
  O   O18       1.0  0.62360  0.55170  0.47550  1.0000
  O   O19       1.0  0.34590  0.29710  0.66030  1.0000
  O   O20       1.0  0.65410  0.70290  0.33970  1.0000
  O   O21       1.0  0.35480  0.17090  0.80980  1.0000
  O   O22       1.0  0.64520  0.82910  0.19020  1.0000
  O   O23       1.0  0.38230  0.99420  0.40580  1.0000
  O   O24       1.0  0.61770  0.00580  0.59420  1.0000
  O   O25       1.0  0.35090  0.06980  0.60386  1.0000
  O   O26       1.0  0.64910  0.93020  0.39614  1.0000
  O   O27       1.0  0.37250  0.21530  0.46790  1.0000
  O   O28       1.0  0.62750  0.78470  0.53210  1.0000
  Cu  Cu1       1.0  0.49161  0.93687  0.30133  1.0000
  Cu  Cu2       1.0  0.50839  0.06313  0.69867  1.0000
  N   N1        1.0  0.35350  0.74070  0.27130  1.0000
  N   N2        1.0  0.64650  0.25930  0.72870  1.0000
  N   N3        1.0  0.36730  0.67940  0.34650  1.0000
  N   N4        1.0  0.63270  0.32060  0.65350  1.0000
  H   H1        1.0  0.43730  0.71980  0.41320  1.0000
  H   H2        1.0  0.56270  0.28020  0.58680  1.0000
  N   N5        1.0  0.35910  0.92440  0.15580  1.0000
  N   N6        1.0  0.64090  0.07560  0.84420  1.0000
  N   N7        1.0  0.23590  0.91600  0.13450  1.0000
  N   N8        1.0  0.76410  0.08400  0.86550  1.0000
  H   H3        1.0  0.19900  0.91600  0.18400  1.0000
  H   H4        1.0  0.80100  0.08400  0.81600  1.0000
  N   N9        1.0  0.62550  0.13310  0.33320  1.0000
  N   N10       1.0  0.37450  0.86690  0.66680  1.0000
  N   N11       1.0  0.76270  0.19340  0.34770  1.0000
  N   N12       1.0  0.23730  0.80660  0.65230  1.0000
  H   H5        1.0  0.80430  0.15100  0.34220  1.0000
  H   H6        1.0  0.19570  0.84900  0.65780  1.0000
  C   C1        1.0  0.26030  0.54860  0.30620  1.0000
  C   C2        1.0  0.73970  0.45140  0.69380  1.0000
  H   H7        1.0  0.24780  0.48780  0.34470  1.0000
  H   H8        1.0  0.75220  0.51220  0.65530  1.0000
  C   C3        1.0  0.17390  0.52120  0.19930  1.0000
  C   C4        1.0  0.82610  0.47880  0.80070  1.0000
  H   H9        1.0  0.09070  0.43790  0.14890  1.0000
  H   H10       1.0  0.90930  0.56210  0.85110  1.0000
  C   C5        1.0  0.23350  0.64170  0.17960  1.0000
  C   C6        1.0  0.76650  0.35830  0.82040  1.0000
  H   H11       1.0  0.19570  0.65280  0.11190  1.0000
  H   H12       1.0  0.80430  0.34720  0.88810  1.0000
  C   C7        1.0  0.37600  0.91980  0.05780  1.0000
  C   C8        1.0  0.62400  0.08020  0.94220  1.0000
  H   H13       1.0  0.45280  0.92280  0.04650  1.0000
  H   H14       1.0  0.54720  0.07720  0.95350  1.0000
  C   C9        1.0  0.26570  0.91000  0.97510  1.0000
  C   C10       1.0  0.73430  0.09000  0.02490  1.0000
  H   H15       1.0  0.25380  0.90600  0.90000  1.0000
  H   H16       1.0  0.74620  0.09400  0.10000  1.0000
  C   C11       1.0  0.17760  0.90750  0.02680  1.0000
  C   C12       1.0  0.82240  0.09250  0.97320  1.0000
  H   H17       1.0  0.09250  0.90120  0.99330  1.0000
  H   H18       1.0  0.90750  0.09880  0.00670  1.0000
  C   C13       1.0  0.60360  0.23370  0.34680  1.0000
  C   C14       1.0  0.39640  0.76630  0.65320  1.0000
  H   H19       1.0  0.51730  0.22250  0.34100  1.0000
  H   H20       1.0  0.48270  0.77750  0.65900  1.0000
  C   C15       1.0  0.72540  0.35480  0.37020  1.0000
  C   C16       1.0  0.27460  0.64520  0.62980  1.0000
  H   H21       1.0  0.73770  0.43950  0.38280  1.0000
  H   H22       1.0  0.26230  0.56050  0.61720  1.0000
  C   C17       1.0  0.82580  0.32610  0.37150  1.0000
  C   C18       1.0  0.17420  0.67390  0.62850  1.0000
  H   H23       1.0  0.92070  0.38830  0.38630  1.0000
  H   H24       1.0  0.07930  0.61170  0.61370  1.0000
