data_image0
_chemical_formula_structural       Eu2S8F8O16C32
_chemical_formula_sum              "Eu2 S8 F8 O16 C32"
_cell_length_a       12.782
_cell_length_b       12.782
_cell_length_c       8.4363
_cell_angle_alpha    90
_cell_angle_beta     90
_cell_angle_gamma    90

_space_group_name_H-M_alt    "P 1"
_space_group_IT_number       1

loop_
  _space_group_symop_operation_xyz
  'x, y, z'

loop_
  _atom_site_type_symbol
  _atom_site_label
  _atom_site_symmetry_multiplicity
  _atom_site_fract_x
  _atom_site_fract_y
  _atom_site_fract_z
  _atom_site_occupancy
  Eu  Eu1       1.0  0.25000  0.25000  0.15842  1.0000
  Eu  Eu2       1.0  0.75000  0.75000  0.84158  1.0000
  S   S1        1.0  0.25707  0.44694  0.96788  1.0000
  S   S2        1.0  0.24293  0.05306  0.96788  1.0000
  S   S3        1.0  0.05306  0.25707  0.96788  1.0000
  S   S4        1.0  0.44694  0.24293  0.96788  1.0000
  S   S5        1.0  0.74293  0.55306  0.03212  1.0000
  S   S6        1.0  0.75707  0.94694  0.03212  1.0000
  S   S7        1.0  0.94694  0.74293  0.03212  1.0000
  S   S8        1.0  0.55306  0.75707  0.03212  1.0000
  F   F1        1.0  0.41052  0.49527  0.70967  1.0000
  F   F2        1.0  0.08948  0.00473  0.70967  1.0000
  F   F3        1.0  0.00473  0.41052  0.70967  1.0000
  F   F4        1.0  0.49527  0.08948  0.70967  1.0000
  F   F5        1.0  0.58948  0.50473  0.29033  1.0000
  F   F6        1.0  0.91052  0.99527  0.29033  1.0000
  F   F7        1.0  0.99527  0.58948  0.29033  1.0000
  F   F8        1.0  0.50473  0.91052  0.29033  1.0000
  O   O1        1.0  0.34322  0.37586  0.31179  1.0000
  O   O2        1.0  0.15678  0.12414  0.31179  1.0000
  O   O3        1.0  0.12414  0.34322  0.31179  1.0000
  O   O4        1.0  0.37586  0.15678  0.31179  1.0000
  O   O5        1.0  0.65678  0.62414  0.68821  1.0000
  O   O6        1.0  0.84322  0.87586  0.68821  1.0000
  O   O7        1.0  0.87586  0.65678  0.68821  1.0000
  O   O8        1.0  0.62414  0.84322  0.68821  1.0000
  O   O9        1.0  0.36652  0.54259  0.37665  1.0000
  O   O10       1.0  0.13348  0.95741  0.37665  1.0000
  O   O11       1.0  0.95741  0.36652  0.37665  1.0000
  O   O12       1.0  0.54259  0.13348  0.37665  1.0000
  O   O13       1.0  0.63348  0.45741  0.62335  1.0000
  O   O14       1.0  0.86652  0.04259  0.62335  1.0000
  O   O15       1.0  0.04259  0.63348  0.62335  1.0000
  O   O16       1.0  0.45741  0.86652  0.62335  1.0000
  C   C1        1.0  0.37830  0.46668  0.28523  1.0000
  C   C2        1.0  0.12170  0.03332  0.28523  1.0000
  C   C3        1.0  0.03332  0.37830  0.28523  1.0000
  C   C4        1.0  0.46668  0.12170  0.28523  1.0000
  C   C5        1.0  0.62170  0.53332  0.71477  1.0000
  C   C6        1.0  0.87830  0.96668  0.71477  1.0000
  C   C7        1.0  0.96668  0.62170  0.71477  1.0000
  C   C8        1.0  0.53332  0.87830  0.71477  1.0000
  C   C9        1.0  0.43942  0.48366  0.13480  1.0000
  C   C10       1.0  0.06058  0.01634  0.13480  1.0000
  C   C11       1.0  0.01634  0.43942  0.13480  1.0000
  C   C12       1.0  0.48366  0.06058  0.13480  1.0000
  C   C13       1.0  0.56058  0.51634  0.86520  1.0000
  C   C14       1.0  0.93942  0.98366  0.86520  1.0000
  C   C15       1.0  0.98366  0.56058  0.86520  1.0000
  C   C16       1.0  0.51634  0.93942  0.86520  1.0000
  C   C17       1.0  0.39018  0.47794  0.98698  1.0000
  C   C18       1.0  0.10982  0.02206  0.98698  1.0000
  C   C19       1.0  0.02206  0.39018  0.98698  1.0000
  C   C20       1.0  0.47794  0.10982  0.98698  1.0000
  C   C21       1.0  0.60982  0.52206  0.01302  1.0000
  C   C22       1.0  0.89018  0.97794  0.01302  1.0000
  C   C23       1.0  0.97794  0.60982  0.01302  1.0000
  C   C24       1.0  0.52206  0.89018  0.01302  1.0000
  C   C25       1.0  0.45431  0.49639  0.85690  1.0000
  C   C26       1.0  0.04569  0.00361  0.85690  1.0000
  C   C27       1.0  0.00361  0.45431  0.85690  1.0000
  C   C28       1.0  0.49639  0.04569  0.85690  1.0000
  C   C29       1.0  0.54569  0.50361  0.14310  1.0000
  C   C30       1.0  0.95431  0.99639  0.14310  1.0000
  C   C31       1.0  0.99639  0.54569  0.14310  1.0000
  C   C32       1.0  0.50361  0.95431  0.14310  1.0000
