data_image0
_chemical_formula_structural       Ba4Cr4O4H8O4H8O4H8O48C24
_chemical_formula_sum              "Ba4 Cr4 O60 H24 C24"
_cell_length_a       11.5556
_cell_length_b       11.0774
_cell_length_c       14.6105
_cell_angle_alpha    90
_cell_angle_beta     93.794
_cell_angle_gamma    90

_space_group_name_H-M_alt    "P 1"
_space_group_IT_number       1

loop_
  _space_group_symop_operation_xyz
  'x, y, z'

loop_
  _atom_site_type_symbol
  _atom_site_label
  _atom_site_symmetry_multiplicity
  _atom_site_fract_x
  _atom_site_fract_y
  _atom_site_fract_z
  _atom_site_occupancy
  Ba  Ba1       1.0  0.08524  0.86116  0.12114  1.0000
  Ba  Ba2       1.0  0.41476  0.36116  0.37886  1.0000
  Ba  Ba3       1.0  0.91476  0.13884  0.87886  1.0000
  Ba  Ba4       1.0  0.58524  0.63884  0.62114  1.0000
  Cr  Cr1       1.0  0.11343  0.64371  0.80510  1.0000
  Cr  Cr2       1.0  0.38657  0.14371  0.69490  1.0000
  Cr  Cr3       1.0  0.88657  0.35629  0.19490  1.0000
  Cr  Cr4       1.0  0.61343  0.85629  0.30510  1.0000
  O   O1        1.0  0.28250  0.02830  0.13529  1.0000
  O   O2        1.0  0.21750  0.52830  0.36471  1.0000
  O   O3        1.0  0.71750  0.97170  0.86471  1.0000
  O   O4        1.0  0.78250  0.47170  0.63529  1.0000
  H   H1        1.0  0.29500  0.06500  0.18840  1.0000
  H   H2        1.0  0.20500  0.56500  0.31160  1.0000
  H   H3        1.0  0.70500  0.93500  0.81160  1.0000
  H   H4        1.0  0.79500  0.43500  0.68840  1.0000
  H   H5        1.0  0.35280  0.00800  0.12000  1.0000
  H   H6        1.0  0.14720  0.50800  0.38000  1.0000
  H   H7        1.0  0.64720  0.99200  0.88000  1.0000
  H   H8        1.0  0.85280  0.49200  0.62000  1.0000
  O   O5        1.0  0.24580  0.82720  0.26950  1.0000
  O   O6        1.0  0.25420  0.32720  0.23050  1.0000
  O   O7        1.0  0.75420  0.17280  0.73050  1.0000
  O   O8        1.0  0.74580  0.67280  0.76950  1.0000
  H   H9        1.0  0.31100  0.86700  0.27300  1.0000
  H   H10       1.0  0.18900  0.36700  0.22700  1.0000
  H   H11       1.0  0.68900  0.13300  0.72700  1.0000
  H   H12       1.0  0.81100  0.63300  0.77300  1.0000
  H   H13       1.0  0.24200  0.79800  0.32520  1.0000
  H   H14       1.0  0.25800  0.29800  0.17480  1.0000
  H   H15       1.0  0.75800  0.20200  0.67480  1.0000
  H   H16       1.0  0.74200  0.70200  0.82520  1.0000
  O   O9        1.0  0.27990  0.78170  0.02345  1.0000
  O   O10       1.0  0.22010  0.28170  0.47655  1.0000
  O   O11       1.0  0.72010  0.21830  0.97655  1.0000
  O   O12       1.0  0.77990  0.71830  0.52345  1.0000
  H   H17       1.0  0.26800  0.80900  0.96610  1.0000
  H   H18       1.0  0.23200  0.30900  0.53390  1.0000
  H   H19       1.0  0.73200  0.19100  0.03390  1.0000
  H   H20       1.0  0.76800  0.69100  0.46610  1.0000
  H   H21       1.0  0.34000  0.82900  0.04100  1.0000
  H   H22       1.0  0.16000  0.32900  0.45900  1.0000
  H   H23       1.0  0.66000  0.17100  0.95900  1.0000
  H   H24       1.0  0.84000  0.67100  0.54100  1.0000
  O   O13       1.0  0.27008  0.71183  0.82518  1.0000
  O   O14       1.0  0.22992  0.21183  0.67482  1.0000
  O   O15       1.0  0.72992  0.28817  0.17482  1.0000
  O   O16       1.0  0.77008  0.78817  0.32518  1.0000
  O   O17       1.0  0.17713  0.57697  0.69450  1.0000
  O   O18       1.0  0.32287  0.07697  0.80550  1.0000
  O   O19       1.0  0.82287  0.42303  0.30550  1.0000
  O   O20       1.0  0.67713  0.92303  0.19450  1.0000
  O   O21       1.0  0.15646  0.49939  0.87894  1.0000
  O   O22       1.0  0.34354  0.99939  0.62106  1.0000
  O   O23       1.0  0.84354  0.50061  0.12106  1.0000
  O   O24       1.0  0.65646  0.00061  0.37894  1.0000
  O   O25       1.0  0.96597  0.55595  0.78547  1.0000
  O   O26       1.0  0.53403  0.05595  0.71453  1.0000
  O   O27       1.0  0.03403  0.44405  0.21453  1.0000
  O   O28       1.0  0.46597  0.94405  0.28547  1.0000
  O   O29       1.0  0.04723  0.78461  0.73672  1.0000
  O   O30       1.0  0.45277  0.28461  0.76328  1.0000
  O   O31       1.0  0.95277  0.21539  0.26328  1.0000
  O   O32       1.0  0.54723  0.71539  0.23672  1.0000
  O   O33       1.0  0.06071  0.73167  0.91145  1.0000
  O   O34       1.0  0.43929  0.23167  0.58855  1.0000
  O   O35       1.0  0.93929  0.26833  0.08855  1.0000
  O   O36       1.0  0.56071  0.76833  0.41145  1.0000
  O   O37       1.0  0.44555  0.70130  0.76971  1.0000
  O   O38       1.0  0.05445  0.20130  0.73029  1.0000
  O   O39       1.0  0.55445  0.29870  0.23029  1.0000
  O   O40       1.0  0.94555  0.79870  0.26971  1.0000
  O   O41       1.0  0.34645  0.55790  0.62938  1.0000
  O   O42       1.0  0.15355  0.05790  0.87062  1.0000
  O   O43       1.0  0.65355  0.44210  0.37062  1.0000
  O   O44       1.0  0.84645  0.94210  0.12938  1.0000
  O   O45       1.0  0.08516  0.32087  0.92016  1.0000
  O   O46       1.0  0.41484  0.82087  0.57984  1.0000
  O   O47       1.0  0.91484  0.67913  0.07984  1.0000
  O   O48       1.0  0.58516  0.17913  0.42016  1.0000
  O   O49       1.0  0.87954  0.38380  0.82179  1.0000
  O   O50       1.0  0.62046  0.88380  0.67821  1.0000
  O   O51       1.0  0.12046  0.61620  0.17821  1.0000
  O   O52       1.0  0.37954  0.11620  0.32179  1.0000
  O   O53       1.0  0.93265  0.94310  0.75914  1.0000
  O   O54       1.0  0.56735  0.44310  0.74086  1.0000
  O   O55       1.0  0.06735  0.05690  0.24086  1.0000
  O   O56       1.0  0.43265  0.55690  0.25914  1.0000
  O   O57       1.0  0.96697  0.89973  0.94573  1.0000
  O   O58       1.0  0.53303  0.39973  0.55427  1.0000
  O   O59       1.0  0.03303  0.10027  0.05427  1.0000
  O   O60       1.0  0.46697  0.60027  0.44573  1.0000
  C   C1        1.0  0.34150  0.67700  0.76650  1.0000
  C   C2        1.0  0.15850  0.17700  0.73350  1.0000
  C   C3        1.0  0.65850  0.32300  0.23350  1.0000
  C   C4        1.0  0.84150  0.82300  0.26650  1.0000
  C   C5        1.0  0.28690  0.59650  0.68820  1.0000
  C   C6        1.0  0.21310  0.09650  0.81180  1.0000
  C   C7        1.0  0.71310  0.40350  0.31180  1.0000
  C   C8        1.0  0.78690  0.90350  0.18820  1.0000
  C   C9        1.0  0.07630  0.41840  0.88070  1.0000
  C   C10       1.0  0.42370  0.91840  0.61930  1.0000
  C   C11       1.0  0.92370  0.58160  0.11930  1.0000
  C   C12       1.0  0.57630  0.08160  0.38070  1.0000
  C   C13       1.0  0.96270  0.45280  0.82580  1.0000
  C   C14       1.0  0.53730  0.95280  0.67420  1.0000
  C   C15       1.0  0.03730  0.54720  0.17420  1.0000
  C   C16       1.0  0.46270  0.04720  0.32580  1.0000
  C   C17       1.0  0.99120  0.85710  0.78710  1.0000
  C   C18       1.0  0.50880  0.35710  0.71290  1.0000
  C   C19       1.0  0.00880  0.14290  0.21290  1.0000
  C   C20       1.0  0.49120  0.64290  0.28710  1.0000
  C   C21       1.0  0.00540  0.82960  0.89050  1.0000
  C   C22       1.0  0.49460  0.32960  0.60950  1.0000
  C   C23       1.0  0.99460  0.17040  0.10950  1.0000
  C   C24       1.0  0.50540  0.67040  0.39050  1.0000
