data_image0
_chemical_formula_structural       Zn4O4H8O24C12H4C8H8C4
_chemical_formula_sum              "Zn4 O28 H20 C24"
_cell_length_a       8.836
_cell_length_b       12.707
_cell_length_c       13.144
_cell_angle_alpha    90
_cell_angle_beta     101.383
_cell_angle_gamma    90

_space_group_name_H-M_alt    "P 1"
_space_group_IT_number       1

loop_
  _space_group_symop_operation_xyz
  'x, y, z'

loop_
  _atom_site_type_symbol
  _atom_site_label
  _atom_site_symmetry_multiplicity
  _atom_site_fract_x
  _atom_site_fract_y
  _atom_site_fract_z
  _atom_site_occupancy
  Zn  Zn1       1.0  0.30106  0.56282  0.17912  1.0000
  Zn  Zn2       1.0  0.30106  0.93718  0.67912  1.0000
  Zn  Zn3       1.0  0.69894  0.43718  0.82088  1.0000
  Zn  Zn4       1.0  0.69894  0.06282  0.32088  1.0000
  O   O1        1.0  0.25944  0.57239  0.02637  1.0000
  O   O2        1.0  0.25944  0.92761  0.52637  1.0000
  O   O3        1.0  0.74056  0.42761  0.97363  1.0000
  O   O4        1.0  0.74056  0.07239  0.47363  1.0000
  H   H1        1.0  0.16490  0.54360  0.99020  1.0000
  H   H2        1.0  0.16490  0.95640  0.49020  1.0000
  H   H3        1.0  0.83510  0.45640  0.00980  1.0000
  H   H4        1.0  0.83510  0.04360  0.50980  1.0000
  H   H5        1.0  0.33370  0.55950  0.98410  1.0000
  H   H6        1.0  0.33370  0.94050  0.48410  1.0000
  H   H7        1.0  0.66630  0.44050  0.01590  1.0000
  H   H8        1.0  0.66630  0.05950  0.51590  1.0000
  O   O5        1.0  0.33910  0.77279  0.16523  1.0000
  O   O6        1.0  0.33910  0.72721  0.66523  1.0000
  O   O7        1.0  0.66090  0.22721  0.83477  1.0000
  O   O8        1.0  0.66090  0.27279  0.33477  1.0000
  O   O9        1.0  0.21399  0.67487  0.25722  1.0000
  O   O10       1.0  0.21399  0.82513  0.75722  1.0000
  O   O11       1.0  0.78601  0.32513  0.74278  1.0000
  O   O12       1.0  0.78601  0.17487  0.24278  1.0000
  O   O13       1.0  0.01802  0.00968  0.38666  1.0000
  O   O14       1.0  0.01802  0.49032  0.88666  1.0000
  O   O15       1.0  0.98198  0.99032  0.61334  1.0000
  O   O16       1.0  0.98198  0.50968  0.11334  1.0000
  O   O17       1.0  0.81329  0.93671  0.28857  1.0000
  O   O18       1.0  0.81329  0.56329  0.78857  1.0000
  O   O19       1.0  0.18671  0.06329  0.71143  1.0000
  O   O20       1.0  0.18671  0.43671  0.21143  1.0000
  O   O21       1.0  0.48695  0.03839  0.24754  1.0000
  O   O22       1.0  0.48695  0.46161  0.74754  1.0000
  O   O23       1.0  0.51305  0.96161  0.75246  1.0000
  O   O24       1.0  0.51305  0.53839  0.25246  1.0000
  O   O25       1.0  0.44111  0.95130  0.38232  1.0000
  O   O26       1.0  0.44111  0.54870  0.88232  1.0000
  O   O27       1.0  0.55889  0.04870  0.61768  1.0000
  O   O28       1.0  0.55889  0.45130  0.11768  1.0000
  C   C1        1.0  0.24830  0.76315  0.22383  1.0000
  C   C2        1.0  0.24830  0.73685  0.72383  1.0000
  C   C3        1.0  0.75170  0.23685  0.77617  1.0000
  C   C4        1.0  0.75170  0.26315  0.27617  1.0000
  C   C5        1.0  0.17270  0.85984  0.25703  1.0000
  C   C6        1.0  0.17270  0.64016  0.75703  1.0000
  C   C7        1.0  0.82730  0.14016  0.74297  1.0000
  C   C8        1.0  0.82730  0.35984  0.24297  1.0000
  C   C9        1.0  0.04800  0.84962  0.29783  1.0000
  C   C10       1.0  0.04800  0.65038  0.79783  1.0000
  C   C11       1.0  0.95200  0.15038  0.70217  1.0000
  C   C12       1.0  0.95200  0.34962  0.20217  1.0000
  H   H9        1.0  0.01550  0.78170  0.30900  1.0000
  H   H10       1.0  0.01550  0.71830  0.80900  1.0000
  H   H11       1.0  0.98450  0.21830  0.69100  1.0000
  H   H12       1.0  0.98450  0.28170  0.19100  1.0000
  C   C13       1.0  0.95530  0.93937  0.32736  1.0000
  C   C14       1.0  0.95530  0.56063  0.82736  1.0000
  C   C15       1.0  0.04470  0.06063  0.67264  1.0000
  C   C16       1.0  0.04470  0.43937  0.17264  1.0000
  C   C17       1.0  0.23990  0.96297  0.23144  1.0000
  C   C18       1.0  0.23990  0.53703  0.73144  1.0000
  C   C19       1.0  0.76010  0.03703  0.76856  1.0000
  C   C20       1.0  0.76010  0.46297  0.26856  1.0000
  H   H13       1.0  0.17230  0.01950  0.24440  1.0000
  H   H14       1.0  0.17230  0.48050  0.74440  1.0000
  H   H15       1.0  0.82770  0.98050  0.75560  1.0000
  H   H16       1.0  0.82770  0.51950  0.25560  1.0000
  H   H17       1.0  0.24270  0.96390  0.15800  1.0000
  H   H18       1.0  0.24270  0.53610  0.65800  1.0000
  H   H19       1.0  0.75730  0.03610  0.84200  1.0000
  H   H20       1.0  0.75730  0.46390  0.34200  1.0000
  C   C21       1.0  0.40070  0.98398  0.29278  1.0000
  C   C22       1.0  0.40070  0.51602  0.79278  1.0000
  C   C23       1.0  0.59930  0.01602  0.70722  1.0000
  C   C24       1.0  0.59930  0.48398  0.20722  1.0000
