data_image0
_chemical_formula_structural       Sn2FeS6N2H4N2H4C2H2C2H2C2H4C2H4C2H4C2H4
_chemical_formula_sum              "Sn2 Fe1 S6 N4 H28 C12"
_cell_length_a       7.2867
_cell_length_b       11.1149
_cell_length_c       13.1459
_cell_angle_alpha    76.927
_cell_angle_beta     74.9
_cell_angle_gamma    82.578

_space_group_name_H-M_alt    "P 1"
_space_group_IT_number       1

loop_
  _space_group_symop_operation_xyz
  'x, y, z'

loop_
  _atom_site_type_symbol
  _atom_site_label
  _atom_site_symmetry_multiplicity
  _atom_site_fract_x
  _atom_site_fract_y
  _atom_site_fract_z
  _atom_site_occupancy
  Sn  Sn1       1.0  0.61376  0.36072  0.99485  1.0000
  Sn  Sn2       1.0  0.38624  0.63928  0.00515  1.0000
  Fe  Fe1       1.0  0.50000  0.00000  0.00000  1.0000
  S   S1        1.0  0.53102  0.23072  0.89963  1.0000
  S   S2        1.0  0.46898  0.76928  0.10037  1.0000
  S   S3        1.0  0.86727  0.29022  0.07592  1.0000
  S   S4        1.0  0.13273  0.70978  0.92408  1.0000
  S   S5        1.0  0.34009  0.43580  0.12231  1.0000
  S   S6        1.0  0.65991  0.56420  0.87769  1.0000
  N   N1        1.0  0.61530  0.01990  0.13386  1.0000
  N   N2        1.0  0.38470  0.98010  0.86614  1.0000
  H   H1        1.0  0.69160  0.95240  0.15210  1.0000
  H   H2        1.0  0.30840  0.04760  0.84790  1.0000
  H   H3        1.0  0.68450  0.08650  0.11400  1.0000
  H   H4        1.0  0.31550  0.91350  0.88600  1.0000
  N   N3        1.0  0.23550  0.04590  0.11263  1.0000
  N   N4        1.0  0.76450  0.95410  0.88737  1.0000
  H   H5        1.0  0.16990  0.11070  0.08000  1.0000
  H   H6        1.0  0.83010  0.88930  0.92000  1.0000
  H   H7        1.0  0.16280  0.98100  0.13450  1.0000
  H   H8        1.0  0.83720  0.01900  0.86550  1.0000
  C   C1        1.0  0.45600  0.03460  0.22510  1.0000
  C   C2        1.0  0.54400  0.96540  0.77490  1.0000
  H   H9        1.0  0.43330  0.94730  0.25510  1.0000
  H   H10       1.0  0.56670  0.05270  0.74490  1.0000
  C   C3        1.0  0.27980  0.07660  0.20460  1.0000
  C   C4        1.0  0.72020  0.92340  0.79540  1.0000
  H   H11       1.0  0.30370  0.16380  0.17460  1.0000
  H   H12       1.0  0.69630  0.83620  0.82540  1.0000
  C   C5        1.0  0.11510  0.09380  0.29600  1.0000
  C   C6        1.0  0.88490  0.90620  0.70400  1.0000
  H   H13       1.0  0.05120  0.01750  0.32200  1.0000
  H   H14       1.0  0.94880  0.98250  0.67800  1.0000
  H   H15       1.0  0.02550  0.15790  0.26970  1.0000
  H   H16       1.0  0.97450  0.84210  0.73030  1.0000
  C   C7        1.0  0.16580  0.12820  0.38830  1.0000
  C   C8        1.0  0.83420  0.87180  0.61170  1.0000
  H   H17       1.0  0.15720  0.21790  0.37660  1.0000
  H   H18       1.0  0.84280  0.78210  0.62340  1.0000
  H   H19       1.0  0.06900  0.09950  0.45280  1.0000
  H   H20       1.0  0.93100  0.90050  0.54720  1.0000
  C   C9        1.0  0.34050  0.08550  0.40920  1.0000
  C   C10       1.0  0.65950  0.91450  0.59080  1.0000
  H   H21       1.0  0.32470  0.00700  0.45970  1.0000
  H   H22       1.0  0.67530  0.99300  0.54030  1.0000
  H   H23       1.0  0.37440  0.14290  0.44590  1.0000
  H   H24       1.0  0.62560  0.85710  0.55410  1.0000
  C   C11       1.0  0.50740  0.06680  0.31820  1.0000
  C   C12       1.0  0.49260  0.93320  0.68180  1.0000
  H   H25       1.0  0.57420  0.14200  0.29300  1.0000
  H   H26       1.0  0.42580  0.85800  0.70700  1.0000
  H   H27       1.0  0.59450  0.00110  0.34500  1.0000
  H   H28       1.0  0.40550  0.99890  0.65500  1.0000
