data_image0
_chemical_formula_structural       V4P8O24H4O4C4H8C4H8
_chemical_formula_sum              "V4 P8 O28 H20 C8"
_cell_length_a       12.2895
_cell_length_b       13.4657
_cell_length_c       6.0846
_cell_angle_alpha    90
_cell_angle_beta     103.401
_cell_angle_gamma    90

_space_group_name_H-M_alt    "P 1"
_space_group_IT_number       1

loop_
  _space_group_symop_operation_xyz
  'x, y, z'

loop_
  _atom_site_type_symbol
  _atom_site_label
  _atom_site_symmetry_multiplicity
  _atom_site_fract_x
  _atom_site_fract_y
  _atom_site_fract_z
  _atom_site_occupancy
  V   V1        1.0  0.28394  0.36543  0.10959  1.0000
  V   V2        1.0  0.71606  0.86543  0.39041  1.0000
  V   V3        1.0  0.71606  0.63457  0.89041  1.0000
  V   V4        1.0  0.28394  0.13457  0.60959  1.0000
  P   P1        1.0  0.38941  0.14523  0.15957  1.0000
  P   P2        1.0  0.61059  0.64523  0.34043  1.0000
  P   P3        1.0  0.61059  0.85477  0.84043  1.0000
  P   P4        1.0  0.38941  0.35477  0.65957  1.0000
  P   P5        1.0  0.74906  0.11154  0.47407  1.0000
  P   P6        1.0  0.25094  0.61154  0.02593  1.0000
  P   P7        1.0  0.25094  0.88846  0.52593  1.0000
  P   P8        1.0  0.74906  0.38846  0.97407  1.0000
  O   O1        1.0  0.39550  0.25800  0.16870  1.0000
  O   O2        1.0  0.60450  0.75800  0.33130  1.0000
  O   O3        1.0  0.60450  0.74200  0.83130  1.0000
  O   O4        1.0  0.39550  0.24200  0.66870  1.0000
  O   O5        1.0  0.32540  0.10390  0.93140  1.0000
  O   O6        1.0  0.67460  0.60390  0.56860  1.0000
  O   O7        1.0  0.67460  0.89610  0.06860  1.0000
  O   O8        1.0  0.32540  0.39610  0.43140  1.0000
  O   O9        1.0  0.16770  0.30800  0.04570  1.0000
  O   O10       1.0  0.83230  0.80800  0.45430  1.0000
  O   O11       1.0  0.83230  0.69200  0.95430  1.0000
  O   O12       1.0  0.16770  0.19200  0.54570  1.0000
  O   O13       1.0  0.33760  0.09920  0.34320  1.0000
  O   O14       1.0  0.66240  0.59920  0.15680  1.0000
  O   O15       1.0  0.66240  0.90080  0.65680  1.0000
  O   O16       1.0  0.33760  0.40080  0.84320  1.0000
  O   O17       1.0  0.77560  0.00600  0.41290  1.0000
  O   O18       1.0  0.22440  0.50600  0.08710  1.0000
  O   O19       1.0  0.22440  0.99400  0.58710  1.0000
  O   O20       1.0  0.77560  0.49400  0.91290  1.0000
  O   O21       1.0  0.78810  0.17530  0.29040  1.0000
  O   O22       1.0  0.21190  0.67530  0.20960  1.0000
  O   O23       1.0  0.21190  0.82470  0.70960  1.0000
  O   O24       1.0  0.78810  0.32470  0.79040  1.0000
  H   H1        1.0  0.78930  0.23560  0.32630  1.0000
  H   H2        1.0  0.21070  0.73560  0.17370  1.0000
  H   H3        1.0  0.21070  0.76440  0.67370  1.0000
  H   H4        1.0  0.78930  0.26440  0.82630  1.0000
  O   O25       1.0  0.80660  0.14210  0.71240  1.0000
  O   O26       1.0  0.19340  0.64210  0.78760  1.0000
  O   O27       1.0  0.19340  0.85790  0.28760  1.0000
  O   O28       1.0  0.80660  0.35790  0.21240  1.0000
  C   C1        1.0  0.53110  0.10130  0.20700  1.0000
  C   C2        1.0  0.46890  0.60130  0.29300  1.0000
  C   C3        1.0  0.46890  0.89870  0.79300  1.0000
  C   C4        1.0  0.53110  0.39870  0.70700  1.0000
  H   H5        1.0  0.56570  0.12820  0.08790  1.0000
  H   H6        1.0  0.43430  0.62820  0.41210  1.0000
  H   H7        1.0  0.43430  0.87180  0.91210  1.0000
  H   H8        1.0  0.56570  0.37180  0.58790  1.0000
  H   H9        1.0  0.53060  0.02800  0.19470  1.0000
  H   H10       1.0  0.46940  0.52800  0.30530  1.0000
  H   H11       1.0  0.46940  0.97200  0.80530  1.0000
  H   H12       1.0  0.53060  0.47200  0.69470  1.0000
  C   C5        1.0  0.60250  0.13150  0.43920  1.0000
  C   C6        1.0  0.39750  0.63150  0.06080  1.0000
  C   C7        1.0  0.39750  0.86850  0.56080  1.0000
  C   C8        1.0  0.60250  0.36850  0.93920  1.0000
  H   H13       1.0  0.57670  0.09350  0.55700  1.0000
  H   H14       1.0  0.42330  0.59350  0.94300  1.0000
  H   H15       1.0  0.42330  0.90650  0.44300  1.0000
  H   H16       1.0  0.57670  0.40650  0.05700  1.0000
  H   H17       1.0  0.58970  0.20280  0.46390  1.0000
  H   H18       1.0  0.41030  0.70280  0.03610  1.0000
  H   H19       1.0  0.41030  0.79720  0.53610  1.0000
  H   H20       1.0  0.58970  0.29720  0.96390  1.0000
