data_image0
_chemical_formula_structural       Sm4O4N8O4N4O16C48O4C16O4C8O16Co4H4C4H8C4H8C4H4N8O8H12C16H16N4H4C4H4N4H4C4H20
_chemical_formula_sum              "Sm4 O56 N28 C108 Co4 H84"
_cell_length_a       17.819
_cell_length_b       22.47
_cell_length_c       19.077
_cell_angle_alpha    90
_cell_angle_beta     107.52
_cell_angle_gamma    90

_space_group_name_H-M_alt    "P 1"
_space_group_IT_number       1

loop_
  _space_group_symop_operation_xyz
  'x, y, z'

loop_
  _atom_site_type_symbol
  _atom_site_label
  _atom_site_symmetry_multiplicity
  _atom_site_fract_x
  _atom_site_fract_y
  _atom_site_fract_z
  _atom_site_occupancy
  Sm  Sm1       1.0  0.74327  0.34435  0.26328  1.0000
  Sm  Sm2       1.0  0.75673  0.84435  0.23672  1.0000
  Sm  Sm3       1.0  0.25673  0.65565  0.73672  1.0000
  Sm  Sm4       1.0  0.24327  0.15565  0.76328  1.0000
  O   O1        1.0  0.84930  0.29871  0.36390  1.0000
  O   O2        1.0  0.65070  0.79871  0.13610  1.0000
  O   O3        1.0  0.15070  0.70129  0.63610  1.0000
  O   O4        1.0  0.34930  0.20129  0.86390  1.0000
  N   N1        1.0  0.74740  0.23086  0.26840  1.0000
  N   N2        1.0  0.75260  0.73086  0.23160  1.0000
  N   N3        1.0  0.25260  0.76914  0.73160  1.0000
  N   N4        1.0  0.24740  0.26914  0.76840  1.0000
  N   N5        1.0  0.61560  0.39863  0.25140  1.0000
  N   N6        1.0  0.88440  0.89863  0.24860  1.0000
  N   N7        1.0  0.38440  0.60137  0.74860  1.0000
  N   N8        1.0  0.11560  0.10137  0.75140  1.0000
  O   O5        1.0  0.63960  0.29096  0.17028  1.0000
  O   O6        1.0  0.86040  0.79096  0.32972  1.0000
  O   O7        1.0  0.36040  0.70904  0.82972  1.0000
  O   O8        1.0  0.13960  0.20904  0.67028  1.0000
  N   N9        1.0  0.86820  0.39867  0.26430  1.0000
  N   N10       1.0  0.63180  0.89867  0.23570  1.0000
  N   N11       1.0  0.13180  0.60133  0.73570  1.0000
  N   N12       1.0  0.36820  0.10133  0.76430  1.0000
  O   O9        1.0  0.67440  0.31824  0.35280  1.0000
  O   O10       1.0  0.82560  0.81824  0.14720  1.0000
  O   O11       1.0  0.32560  0.68176  0.64720  1.0000
  O   O12       1.0  0.17440  0.18176  0.85280  1.0000
  O   O13       1.0  0.70320  0.41850  0.16580  1.0000
  O   O14       1.0  0.79680  0.91850  0.33420  1.0000
  O   O15       1.0  0.29680  0.58150  0.83420  1.0000
  O   O16       1.0  0.20320  0.08150  0.66580  1.0000
  O   O17       1.0  0.77900  0.42965  0.34500  1.0000
  O   O18       1.0  0.72100  0.92965  0.15500  1.0000
  O   O19       1.0  0.22100  0.57035  0.65500  1.0000
  O   O20       1.0  0.27900  0.07035  0.84500  1.0000
  O   O21       1.0  0.81300  0.30692  0.18000  1.0000
  O   O22       1.0  0.68700  0.80692  0.32000  1.0000
  O   O23       1.0  0.18700  0.69308  0.82000  1.0000
  O   O24       1.0  0.31300  0.19308  0.68000  1.0000
  C   C1        1.0  0.85980  0.24380  0.37410  1.0000
  C   C2        1.0  0.64020  0.74380  0.12590  1.0000
  C   C3        1.0  0.14020  0.75620  0.62590  1.0000
  C   C4        1.0  0.35980  0.25620  0.87410  1.0000
  C   C5        1.0  0.80440  0.20290  0.31950  1.0000
  C   C6        1.0  0.69560  0.70290  0.18050  1.0000
  C   C7        1.0  0.19560  0.79710  0.68050  1.0000
  C   C8        1.0  0.30440  0.29710  0.81950  1.0000
  C   C9        1.0  0.69630  0.19890  0.21660  1.0000
  C   C10       1.0  0.80370  0.69890  0.28340  1.0000
  C   C11       1.0  0.30370  0.80110  0.78340  1.0000
  C   C12       1.0  0.19630  0.30110  0.71660  1.0000
  C   C13       1.0  0.57430  0.38650  0.29760  1.0000
  C   C14       1.0  0.92570  0.88650  0.20240  1.0000
  C   C15       1.0  0.42570  0.61350  0.70240  1.0000
  C   C16       1.0  0.07430  0.11350  0.79760  1.0000
  C   C17       1.0  0.58780  0.43800  0.19750  1.0000
  C   C18       1.0  0.91220  0.93800  0.30250  1.0000
  C   C19       1.0  0.41220  0.56200  0.80250  1.0000
  C   C20       1.0  0.08780  0.06200  0.69750  1.0000
  C   C21       1.0  0.63660  0.23560  0.15900  1.0000
  C   C22       1.0  0.86340  0.73560  0.34100  1.0000
  C   C23       1.0  0.36340  0.76440  0.84100  1.0000
  C   C24       1.0  0.13660  0.26440  0.65900  1.0000
  C   C25       1.0  0.89190  0.44590  0.30760  1.0000
  C   C26       1.0  0.60810  0.94590  0.19240  1.0000
  C   C27       1.0  0.10810  0.55410  0.69240  1.0000
  C   C28       1.0  0.39190  0.05410  0.80760  1.0000
  C   C29       1.0  0.91080  0.38040  0.22140  1.0000
  C   C30       1.0  0.58920  0.88040  0.27860  1.0000
  C   C31       1.0  0.08920  0.61960  0.77860  1.0000
  C   C32       1.0  0.41080  0.11960  0.72140  1.0000
  C   C33       1.0  0.61380  0.34410  0.35890  1.0000
  C   C34       1.0  0.88620  0.84410  0.14110  1.0000
  C   C35       1.0  0.38620  0.65590  0.64110  1.0000
  C   C36       1.0  0.11380  0.15590  0.85890  1.0000
  C   C37       1.0  0.64370  0.45210  0.15370  1.0000
  C   C38       1.0  0.85630  0.95210  0.34630  1.0000
  C   C39       1.0  0.35630  0.54790  0.84630  1.0000
  C   C40       1.0  0.14370  0.04790  0.65370  1.0000
  C   C41       1.0  0.83560  0.46430  0.34880  1.0000
  C   C42       1.0  0.66440  0.96430  0.15120  1.0000
  C   C43       1.0  0.16440  0.53570  0.65120  1.0000
  C   C44       1.0  0.33560  0.03570  0.84880  1.0000
  C   C45       1.0  0.87450  0.32910  0.17100  1.0000
  C   C46       1.0  0.62550  0.82910  0.32900  1.0000
  C   C47       1.0  0.12550  0.67090  0.82900  1.0000
  C   C48       1.0  0.37450  0.17090  0.67100  1.0000
  O   O25       1.0  0.91120  0.21963  0.42483  1.0000
  O   O26       1.0  0.58880  0.71963  0.07517  1.0000
  O   O27       1.0  0.08880  0.78037  0.57517  1.0000
  O   O28       1.0  0.41120  0.28037  0.92483  1.0000
  C   C49       1.0  0.81180  0.14180  0.32130  1.0000
  C   C50       1.0  0.68820  0.64180  0.17870  1.0000
  C   C51       1.0  0.18820  0.85820  0.67870  1.0000
  C   C52       1.0  0.31180  0.35820  0.82130  1.0000
  C   C53       1.0  0.69980  0.13770  0.21450  1.0000
  C   C54       1.0  0.80020  0.63770  0.28550  1.0000
  C   C55       1.0  0.30020  0.86230  0.78550  1.0000
  C   C56       1.0  0.19980  0.36230  0.71450  1.0000
  C   C57       1.0  0.50100  0.41130  0.28890  1.0000
  C   C58       1.0  0.99900  0.91130  0.21110  1.0000
  C   C59       1.0  0.49900  0.58870  0.71110  1.0000
  C   C60       1.0  0.00100  0.08870  0.78890  1.0000
  C   C61       1.0  0.51500  0.46350  0.18530  1.0000
  C   C62       1.0  0.98500  0.96350  0.31470  1.0000
  C   C63       1.0  0.48500  0.53650  0.81470  1.0000
  C   C64       1.0  0.01500  0.03650  0.68530  1.0000
  O   O29       1.0  0.59112  0.20892  0.10671  1.0000
  O   O30       1.0  0.90888  0.70892  0.39329  1.0000
  O   O31       1.0  0.40888  0.79108  0.89329  1.0000
  O   O32       1.0  0.09112  0.29108  0.60671  1.0000
  C   C65       1.0  0.96050  0.47570  0.31150  1.0000
  C   C66       1.0  0.53950  0.97570  0.18850  1.0000
  C   C67       1.0  0.03950  0.52430  0.68850  1.0000
  C   C68       1.0  0.46050  0.02430  0.81150  1.0000
  C   C69       1.0  0.98020  0.40790  0.22250  1.0000
  C   C70       1.0  0.51980  0.90790  0.27750  1.0000
  C   C71       1.0  0.01980  0.59210  0.77750  1.0000
  C   C72       1.0  0.48020  0.09210  0.72250  1.0000
  O   O33       1.0  0.58520  0.33840  0.41040  1.0000
  O   O34       1.0  0.91480  0.83840  0.08960  1.0000
  O   O35       1.0  0.41480  0.66160  0.58960  1.0000
  O   O36       1.0  0.08520  0.16160  0.91040  1.0000
  O   O37       1.0  0.62990  0.49500  0.11160  1.0000
  O   O38       1.0  0.87010  0.99500  0.38840  1.0000
  O   O39       1.0  0.37010  0.50500  0.88840  1.0000
  O   O40       1.0  0.12990  0.00500  0.61160  1.0000
  O   O41       1.0  0.84460  0.51260  0.38010  1.0000
  O   O42       1.0  0.65540  0.01260  0.11990  1.0000
  O   O43       1.0  0.15540  0.48740  0.61990  1.0000
  O   O44       1.0  0.34460  0.98740  0.88010  1.0000
  O   O45       1.0  0.90670  0.31180  0.12570  1.0000
  O   O46       1.0  0.59330  0.81180  0.37430  1.0000
  O   O47       1.0  0.09330  0.68820  0.87430  1.0000
  O   O48       1.0  0.40670  0.18820  0.62570  1.0000
  Co  Co1       1.0  0.00126  0.25598  0.51497  1.0000
  Co  Co2       1.0  0.49874  0.75598  0.98503  1.0000
  Co  Co3       1.0  0.99874  0.74402  0.48503  1.0000
  Co  Co4       1.0  0.50126  0.24402  0.01497  1.0000
  H   H1        1.0  0.85190  0.12330  0.35760  1.0000
  H   H2        1.0  0.64810  0.62330  0.14240  1.0000
  H   H3        1.0  0.14810  0.87670  0.64240  1.0000
  H   H4        1.0  0.35190  0.37670  0.85760  1.0000
  C   C73       1.0  0.75850  0.10870  0.26810  1.0000
  C   C74       1.0  0.74150  0.60870  0.23190  1.0000
  C   C75       1.0  0.24150  0.89130  0.73190  1.0000
  C   C76       1.0  0.25850  0.39130  0.76810  1.0000
  H   H5        1.0  0.66350  0.11620  0.17780  1.0000
  H   H6        1.0  0.83650  0.61620  0.32220  1.0000
  H   H7        1.0  0.33650  0.88380  0.82220  1.0000
  H   H8        1.0  0.16350  0.38380  0.67780  1.0000
  H   H9        1.0  0.47300  0.40250  0.32160  1.0000
  H   H10       1.0  0.02700  0.90250  0.17840  1.0000
  H   H11       1.0  0.52700  0.59750  0.67840  1.0000
  H   H12       1.0  0.97300  0.09750  0.82160  1.0000
  C   C77       1.0  0.47070  0.44940  0.23050  1.0000
  C   C78       1.0  0.02930  0.94940  0.26950  1.0000
  C   C79       1.0  0.52930  0.55060  0.76950  1.0000
  C   C80       1.0  0.97070  0.05060  0.73050  1.0000
  H   H13       1.0  0.49600  0.49020  0.14680  1.0000
  H   H14       1.0  0.00400  0.99020  0.35320  1.0000
  H   H15       1.0  0.50400  0.50980  0.85320  1.0000
  H   H16       1.0  0.99600  0.00980  0.64680  1.0000
  H   H17       1.0  0.97600  0.50880  0.34170  1.0000
  H   H18       1.0  0.52400  0.00880  0.15830  1.0000
  H   H19       1.0  0.02400  0.49120  0.65830  1.0000
  H   H20       1.0  0.47600  0.99120  0.84170  1.0000
  C   C81       1.0  0.00570  0.45500  0.26910  1.0000
  C   C82       1.0  0.49430  0.95500  0.23090  1.0000
  C   C83       1.0  0.99430  0.54500  0.73090  1.0000
  C   C84       1.0  0.50570  0.04500  0.76910  1.0000
  H   H21       1.0  0.00920  0.39480  0.19220  1.0000
  H   H22       1.0  0.49080  0.89480  0.30780  1.0000
  H   H23       1.0  0.99080  0.60520  0.80780  1.0000
  H   H24       1.0  0.50920  0.10520  0.69220  1.0000
  N   N13       1.0  0.92630  0.24580  0.58050  1.0000
  N   N14       1.0  0.57370  0.74580  0.91950  1.0000
  N   N15       1.0  0.07370  0.75420  0.41950  1.0000
  N   N16       1.0  0.42630  0.25420  0.08050  1.0000
  N   N17       1.0  0.07460  0.26530  0.44800  1.0000
  N   N18       1.0  0.42540  0.76530  0.05200  1.0000
  N   N19       1.0  0.92540  0.73470  0.55200  1.0000
  N   N20       1.0  0.57460  0.23470  0.94800  1.0000
  O   O49       1.0  0.04350  0.16965  0.54010  1.0000
  O   O50       1.0  0.45650  0.66965  0.95990  1.0000
  O   O51       1.0  0.95650  0.83035  0.45990  1.0000
  O   O52       1.0  0.54350  0.33035  0.04010  1.0000
  O   O53       1.0  0.95700  0.34578  0.49080  1.0000
  O   O54       1.0  0.54300  0.84578  0.00920  1.0000
  O   O55       1.0  0.04300  0.65422  0.50920  1.0000
  O   O56       1.0  0.45700  0.15422  0.99080  1.0000
  H   H25       1.0  0.76190  0.06740  0.26830  1.0000
  H   H26       1.0  0.73810  0.56740  0.23170  1.0000
  H   H27       1.0  0.23810  0.93260  0.73170  1.0000
  H   H28       1.0  0.26190  0.43260  0.76830  1.0000
  H   H29       1.0  0.42050  0.46530  0.22180  1.0000
  H   H30       1.0  0.07950  0.96530  0.27820  1.0000
  H   H31       1.0  0.57950  0.53470  0.77820  1.0000
  H   H32       1.0  0.92050  0.03470  0.72180  1.0000
  H   H33       1.0  0.05360  0.47310  0.27220  1.0000
  H   H34       1.0  0.44640  0.97310  0.22780  1.0000
  H   H35       1.0  0.94640  0.52690  0.72780  1.0000
  H   H36       1.0  0.55360  0.02690  0.77220  1.0000
  C   C85       1.0  0.85830  0.27200  0.57260  1.0000
  C   C86       1.0  0.64170  0.77200  0.92740  1.0000
  C   C87       1.0  0.14170  0.72800  0.42740  1.0000
  C   C88       1.0  0.35830  0.22800  0.07260  1.0000
  C   C89       1.0  0.93760  0.20950  0.64150  1.0000
  C   C90       1.0  0.56240  0.70950  0.85850  1.0000
  C   C91       1.0  0.06240  0.79050  0.35850  1.0000
  C   C92       1.0  0.43760  0.29050  0.14150  1.0000
  C   C93       1.0  0.13580  0.23370  0.44930  1.0000
  C   C94       1.0  0.36420  0.73370  0.05070  1.0000
  C   C95       1.0  0.86420  0.76630  0.55070  1.0000
  C   C96       1.0  0.63580  0.26630  0.94930  1.0000
  C   C97       1.0  0.06950  0.30760  0.39500  1.0000
  C   C98       1.0  0.43050  0.80760  0.10500  1.0000
  C   C99       1.0  0.93050  0.69240  0.60500  1.0000
  C   C100      1.0  0.56950  0.19240  0.89500  1.0000
  H   H37       1.0  0.02720  0.13580  0.52190  1.0000
  H   H38       1.0  0.47280  0.63580  0.97810  1.0000
  H   H39       1.0  0.97280  0.86420  0.47810  1.0000
  H   H40       1.0  0.52720  0.36420  0.02190  1.0000
  H   H41       1.0  0.07680  0.16420  0.58210  1.0000
  H   H42       1.0  0.42320  0.66420  0.91790  1.0000
  H   H43       1.0  0.92320  0.83580  0.41790  1.0000
  H   H44       1.0  0.57680  0.33580  0.08210  1.0000
  H   H45       1.0  0.98230  0.34220  0.45970  1.0000
  H   H46       1.0  0.51770  0.84220  0.04030  1.0000
  H   H47       1.0  0.01770  0.65780  0.54030  1.0000
  H   H48       1.0  0.48230  0.15780  0.95970  1.0000
  H   H49       1.0  0.95910  0.37490  0.51980  1.0000
  H   H50       1.0  0.54090  0.87490  0.98020  1.0000
  H   H51       1.0  0.04090  0.62510  0.48020  1.0000
  H   H52       1.0  0.45910  0.12510  0.01980  1.0000
  N   N21       1.0  0.82710  0.25440  0.62520  1.0000
  N   N22       1.0  0.67290  0.75440  0.87480  1.0000
  N   N23       1.0  0.17290  0.74560  0.37480  1.0000
  N   N24       1.0  0.32710  0.24560  0.12520  1.0000
  H   H53       1.0  0.83490  0.29910  0.53560  1.0000
  H   H54       1.0  0.66510  0.79910  0.96440  1.0000
  H   H55       1.0  0.16510  0.70090  0.46440  1.0000
  H   H56       1.0  0.33490  0.20090  0.03560  1.0000
  C   C101      1.0  0.87690  0.21500  0.66900  1.0000
  C   C102      1.0  0.62310  0.71500  0.83100  1.0000
  C   C103      1.0  0.12310  0.78500  0.33100  1.0000
  C   C104      1.0  0.37690  0.28500  0.16900  1.0000
  H   H57       1.0  0.98090  0.18490  0.66060  1.0000
  H   H58       1.0  0.51910  0.68490  0.83940  1.0000
  H   H59       1.0  0.01910  0.81510  0.33940  1.0000
  H   H60       1.0  0.48090  0.31510  0.16060  1.0000
  N   N25       1.0  0.17020  0.25480  0.39960  1.0000
  N   N26       1.0  0.32980  0.75480  0.10040  1.0000
  N   N27       1.0  0.82980  0.74520  0.60040  1.0000
  N   N28       1.0  0.67020  0.24520  0.89960  1.0000
  H   H61       1.0  0.15360  0.20120  0.47980  1.0000
  H   H62       1.0  0.34640  0.70120  0.02020  1.0000
  H   H63       1.0  0.84640  0.79880  0.52020  1.0000
  H   H64       1.0  0.65360  0.29880  0.97980  1.0000
  C   C105      1.0  0.12760  0.30160  0.36510  1.0000
  C   C106      1.0  0.37240  0.80160  0.13490  1.0000
  C   C107      1.0  0.87240  0.69840  0.63490  1.0000
  C   C108      1.0  0.62760  0.19840  0.86510  1.0000
  H   H65       1.0  0.03070  0.33670  0.38170  1.0000
  H   H66       1.0  0.46930  0.83670  0.11830  1.0000
  H   H67       1.0  0.96930  0.66330  0.61830  1.0000
  H   H68       1.0  0.53070  0.16330  0.88170  1.0000
  H   H69       1.0  0.78300  0.26630  0.63010  1.0000
  H   H70       1.0  0.71700  0.76630  0.86990  1.0000
  H   H71       1.0  0.21700  0.73370  0.36990  1.0000
  H   H72       1.0  0.28300  0.23370  0.13010  1.0000
  H   H73       1.0  0.87040  0.19560  0.70990  1.0000
  H   H74       1.0  0.62960  0.69560  0.79010  1.0000
  H   H75       1.0  0.12960  0.80440  0.29010  1.0000
  H   H76       1.0  0.37040  0.30440  0.20990  1.0000
  H   H77       1.0  0.21180  0.24070  0.39160  1.0000
  H   H78       1.0  0.28820  0.74070  0.10840  1.0000
  H   H79       1.0  0.78820  0.75930  0.60840  1.0000
  H   H80       1.0  0.71180  0.25930  0.89160  1.0000
  H   H81       1.0  0.13680  0.32480  0.32820  1.0000
  H   H82       1.0  0.36320  0.82480  0.17180  1.0000
  H   H83       1.0  0.86320  0.67520  0.67180  1.0000
  H   H84       1.0  0.63680  0.17520  0.82820  1.0000
