data_image0
_chemical_formula_structural       Pr4Co4O24C24O8N8O8N8O8C8H8C16H8O8C8H8C8H8C16N8H8N4C4H4C8H8C8H8C8H24
_chemical_formula_sum              "Pr4 Co4 O56 C108 N28 H84"
_cell_length_a       21.378
_cell_length_b       10.702
_cell_length_c       19.664
_cell_angle_alpha    90
_cell_angle_beta     114.49
_cell_angle_gamma    90

_space_group_name_H-M_alt    "P 1"
_space_group_IT_number       1

loop_
  _space_group_symop_operation_xyz
  'x, y, z'

loop_
  _atom_site_type_symbol
  _atom_site_label
  _atom_site_symmetry_multiplicity
  _atom_site_fract_x
  _atom_site_fract_y
  _atom_site_fract_z
  _atom_site_occupancy
  Pr  Pr1       1.0  0.50000  0.43333  0.75000  1.0000
  Pr  Pr2       1.0  0.00000  0.93333  0.75000  1.0000
  Pr  Pr3       1.0  0.50000  0.56667  0.25000  1.0000
  Pr  Pr4       1.0  0.00000  0.06667  0.25000  1.0000
  Co  Co1       1.0  0.75000  0.25000  0.00000  1.0000
  Co  Co2       1.0  0.25000  0.25000  0.50000  1.0000
  Co  Co3       1.0  0.25000  0.75000  0.00000  1.0000
  Co  Co4       1.0  0.75000  0.75000  0.50000  1.0000
  O   O1        1.0  0.67700  0.39320  0.98300  1.0000
  O   O2        1.0  0.32300  0.39320  0.51700  1.0000
  O   O3        1.0  0.17700  0.89320  0.98300  1.0000
  O   O4        1.0  0.82300  0.89320  0.51700  1.0000
  O   O5        1.0  0.32300  0.60680  0.01700  1.0000
  O   O6        1.0  0.67700  0.60680  0.48300  1.0000
  O   O7        1.0  0.82300  0.10680  0.01700  1.0000
  O   O8        1.0  0.17700  0.10680  0.48300  1.0000
  O   O9        1.0  0.42000  0.60200  0.74740  1.0000
  O   O10       1.0  0.58000  0.60200  0.75260  1.0000
  O   O11       1.0  0.92000  0.10200  0.74740  1.0000
  O   O12       1.0  0.08000  0.10200  0.75260  1.0000
  O   O13       1.0  0.58000  0.39800  0.25260  1.0000
  O   O14       1.0  0.42000  0.39800  0.24740  1.0000
  O   O15       1.0  0.08000  0.89800  0.25260  1.0000
  O   O16       1.0  0.92000  0.89800  0.24740  1.0000
  O   O17       1.0  0.70430  0.20610  0.88530  1.0000
  O   O18       1.0  0.29570  0.20610  0.61470  1.0000
  O   O19       1.0  0.20430  0.70610  0.88530  1.0000
  O   O20       1.0  0.79570  0.70610  0.61470  1.0000
  O   O21       1.0  0.29570  0.79390  0.11470  1.0000
  O   O22       1.0  0.70430  0.79390  0.38530  1.0000
  O   O23       1.0  0.79570  0.29390  0.11470  1.0000
  O   O24       1.0  0.20430  0.29390  0.38530  1.0000
  C   C1        1.0  0.62300  0.41960  0.92820  1.0000
  C   C2        1.0  0.37700  0.41960  0.57180  1.0000
  C   C3        1.0  0.12300  0.91960  0.92820  1.0000
  C   C4        1.0  0.87700  0.91960  0.57180  1.0000
  C   C5        1.0  0.37700  0.58040  0.07180  1.0000
  C   C6        1.0  0.62300  0.58040  0.42820  1.0000
  C   C7        1.0  0.87700  0.08040  0.07180  1.0000
  C   C8        1.0  0.12300  0.08040  0.42820  1.0000
  C   C9        1.0  0.42090  0.66340  0.80250  1.0000
  C   C10       1.0  0.57910  0.66340  0.69750  1.0000
  C   C11       1.0  0.92090  0.16340  0.80250  1.0000
  C   C12       1.0  0.07910  0.16340  0.69750  1.0000
  C   C13       1.0  0.57910  0.33660  0.19750  1.0000
  C   C14       1.0  0.42090  0.33660  0.30250  1.0000
  C   C15       1.0  0.07910  0.83660  0.19750  1.0000
  C   C16       1.0  0.92090  0.83660  0.30250  1.0000
  C   C17       1.0  0.42070  0.20760  0.80620  1.0000
  C   C18       1.0  0.57930  0.20760  0.69380  1.0000
  C   C19       1.0  0.92070  0.70760  0.80620  1.0000
  C   C20       1.0  0.07930  0.70760  0.69380  1.0000
  C   C21       1.0  0.57930  0.79240  0.19380  1.0000
  C   C22       1.0  0.42070  0.79240  0.30620  1.0000
  C   C23       1.0  0.07930  0.29240  0.19380  1.0000
  C   C24       1.0  0.92070  0.29240  0.30620  1.0000
  O   O25       1.0  0.42640  0.32230  0.80150  1.0000
  O   O26       1.0  0.57360  0.32230  0.69850  1.0000
  O   O27       1.0  0.92640  0.82230  0.80150  1.0000
  O   O28       1.0  0.07360  0.82230  0.69850  1.0000
  O   O29       1.0  0.57360  0.67770  0.19850  1.0000
  O   O30       1.0  0.42640  0.67770  0.30150  1.0000
  O   O31       1.0  0.07360  0.17770  0.19850  1.0000
  O   O32       1.0  0.92640  0.17770  0.30150  1.0000
  N   N1        1.0  0.52280  0.54770  0.87450  1.0000
  N   N2        1.0  0.47720  0.54770  0.62550  1.0000
  N   N3        1.0  0.02280  0.04770  0.87450  1.0000
  N   N4        1.0  0.97720  0.04770  0.62550  1.0000
  N   N5        1.0  0.47720  0.45230  0.12550  1.0000
  N   N6        1.0  0.52280  0.45230  0.37450  1.0000
  N   N7        1.0  0.97720  0.95230  0.12550  1.0000
  N   N8        1.0  0.02280  0.95230  0.37450  1.0000
  O   O33       1.0  0.60340  0.37120  0.86390  1.0000
  O   O34       1.0  0.39660  0.37120  0.63610  1.0000
  O   O35       1.0  0.10340  0.87120  0.86390  1.0000
  O   O36       1.0  0.89660  0.87120  0.63610  1.0000
  O   O37       1.0  0.39660  0.62880  0.13610  1.0000
  O   O38       1.0  0.60340  0.62880  0.36390  1.0000
  O   O39       1.0  0.89660  0.12880  0.13610  1.0000
  O   O40       1.0  0.10340  0.12880  0.36390  1.0000
  N   N9        1.0  0.67950  0.12530  0.01360  1.0000
  N   N10       1.0  0.32050  0.12530  0.48640  1.0000
  N   N11       1.0  0.17950  0.62530  0.01360  1.0000
  N   N12       1.0  0.82050  0.62530  0.48640  1.0000
  N   N13       1.0  0.32050  0.87470  0.98640  1.0000
  N   N14       1.0  0.67950  0.87470  0.51360  1.0000
  N   N15       1.0  0.82050  0.37470  0.98640  1.0000
  N   N16       1.0  0.17950  0.37470  0.51360  1.0000
  O   O41       1.0  0.37870  0.74590  0.79970  1.0000
  O   O42       1.0  0.62130  0.74590  0.70030  1.0000
  O   O43       1.0  0.87870  0.24590  0.79970  1.0000
  O   O44       1.0  0.12130  0.24590  0.70030  1.0000
  O   O45       1.0  0.62130  0.25410  0.20030  1.0000
  O   O46       1.0  0.37870  0.25410  0.29970  1.0000
  O   O47       1.0  0.12130  0.75410  0.20030  1.0000
  O   O48       1.0  0.87870  0.75410  0.29970  1.0000
  C   C25       1.0  0.58830  0.57260  0.00560  1.0000
  C   C26       1.0  0.41170  0.57260  0.49440  1.0000
  C   C27       1.0  0.08830  0.07260  0.00560  1.0000
  C   C28       1.0  0.91170  0.07260  0.49440  1.0000
  C   C29       1.0  0.41170  0.42740  0.99440  1.0000
  C   C30       1.0  0.58830  0.42740  0.50560  1.0000
  C   C31       1.0  0.91170  0.92740  0.99440  1.0000
  C   C32       1.0  0.08830  0.92740  0.50560  1.0000
  H   H1        1.0  0.62640  0.55090  0.04880  1.0000
  H   H2        1.0  0.37360  0.55090  0.45120  1.0000
  H   H3        1.0  0.12640  0.05090  0.04880  1.0000
  H   H4        1.0  0.87360  0.05090  0.45120  1.0000
  H   H5        1.0  0.37360  0.44910  0.95120  1.0000
  H   H6        1.0  0.62640  0.44910  0.54880  1.0000
  H   H7        1.0  0.87360  0.94910  0.95120  1.0000
  H   H8        1.0  0.12640  0.94910  0.54880  1.0000
  C   C33       1.0  0.46130  0.12730  0.77720  1.0000
  C   C34       1.0  0.53870  0.12730  0.72280  1.0000
  C   C35       1.0  0.96130  0.62730  0.77720  1.0000
  C   C36       1.0  0.03870  0.62730  0.72280  1.0000
  C   C37       1.0  0.53870  0.87270  0.22280  1.0000
  C   C38       1.0  0.46130  0.87270  0.27720  1.0000
  C   C39       1.0  0.03870  0.37270  0.22280  1.0000
  C   C40       1.0  0.96130  0.37270  0.27720  1.0000
  C   C41       1.0  0.45920  0.99750  0.77750  1.0000
  C   C42       1.0  0.54080  0.99750  0.72250  1.0000
  C   C43       1.0  0.95920  0.49750  0.77750  1.0000
  C   C44       1.0  0.04080  0.49750  0.72250  1.0000
  C   C45       1.0  0.54080  0.00250  0.22250  1.0000
  C   C46       1.0  0.45920  0.00250  0.27750  1.0000
  C   C47       1.0  0.04080  0.50250  0.22250  1.0000
  C   C48       1.0  0.95920  0.50250  0.27750  1.0000
  H   H9        1.0  0.43150  0.95450  0.79560  1.0000
  H   H10       1.0  0.56850  0.95450  0.70440  1.0000
  H   H11       1.0  0.93150  0.45450  0.79560  1.0000
  H   H12       1.0  0.06850  0.45450  0.70440  1.0000
  H   H13       1.0  0.56850  0.04550  0.20440  1.0000
  H   H14       1.0  0.43150  0.04550  0.29560  1.0000
  H   H15       1.0  0.06850  0.54550  0.20440  1.0000
  H   H16       1.0  0.93150  0.54550  0.29560  1.0000
  O   O49       1.0  0.38280  0.15620  0.83150  1.0000
  O   O50       1.0  0.61720  0.15620  0.66850  1.0000
  O   O51       1.0  0.88280  0.65620  0.83150  1.0000
  O   O52       1.0  0.11720  0.65620  0.66850  1.0000
  O   O53       1.0  0.61720  0.84380  0.16850  1.0000
  O   O54       1.0  0.38280  0.84380  0.33150  1.0000
  O   O55       1.0  0.11720  0.34380  0.16850  1.0000
  O   O56       1.0  0.88280  0.34380  0.33150  1.0000
  C   C49       1.0  0.68230  0.07240  0.07470  1.0000
  C   C50       1.0  0.31770  0.07240  0.42530  1.0000
  C   C51       1.0  0.18230  0.57240  0.07470  1.0000
  C   C52       1.0  0.81770  0.57240  0.42530  1.0000
  C   C53       1.0  0.31770  0.92760  0.92530  1.0000
  C   C54       1.0  0.68230  0.92760  0.57470  1.0000
  C   C55       1.0  0.81770  0.42760  0.92530  1.0000
  C   C56       1.0  0.18230  0.42760  0.57470  1.0000
  H   H17       1.0  0.71730  0.08700  0.12170  1.0000
  H   H18       1.0  0.28270  0.08700  0.37830  1.0000
  H   H19       1.0  0.21730  0.58700  0.12170  1.0000
  H   H20       1.0  0.78270  0.58700  0.37830  1.0000
  H   H21       1.0  0.28270  0.91300  0.87830  1.0000
  H   H22       1.0  0.71730  0.91300  0.62170  1.0000
  H   H23       1.0  0.78270  0.41300  0.87830  1.0000
  H   H24       1.0  0.21730  0.41300  0.62170  1.0000
  C   C57       1.0  0.48650  0.68980  0.94400  1.0000
  C   C58       1.0  0.51350  0.68980  0.55600  1.0000
  C   C59       1.0  0.98650  0.18980  0.94400  1.0000
  C   C60       1.0  0.01350  0.18980  0.55600  1.0000
  C   C61       1.0  0.51350  0.31020  0.05600  1.0000
  C   C62       1.0  0.48650  0.31020  0.44400  1.0000
  C   C63       1.0  0.01350  0.81020  0.05600  1.0000
  C   C64       1.0  0.98650  0.81020  0.44400  1.0000
  H   H25       1.0  0.45410  0.74700  0.94490  1.0000
  H   H26       1.0  0.54590  0.74700  0.55510  1.0000
  H   H27       1.0  0.95410  0.24700  0.94490  1.0000
  H   H28       1.0  0.04590  0.24700  0.55510  1.0000
  H   H29       1.0  0.54590  0.25300  0.05510  1.0000
  H   H30       1.0  0.45410  0.25300  0.44490  1.0000
  H   H31       1.0  0.04590  0.75300  0.05510  1.0000
  H   H32       1.0  0.95410  0.75300  0.44490  1.0000
  C   C65       1.0  0.47930  0.63270  0.87710  1.0000
  C   C66       1.0  0.52070  0.63270  0.62290  1.0000
  C   C67       1.0  0.97930  0.13270  0.87710  1.0000
  C   C68       1.0  0.02070  0.13270  0.62290  1.0000
  C   C69       1.0  0.52070  0.36730  0.12290  1.0000
  C   C70       1.0  0.47930  0.36730  0.37710  1.0000
  C   C71       1.0  0.02070  0.86730  0.12290  1.0000
  C   C72       1.0  0.97930  0.86730  0.37710  1.0000
  C   C73       1.0  0.57680  0.51720  0.93730  1.0000
  C   C74       1.0  0.42320  0.51720  0.56270  1.0000
  C   C75       1.0  0.07680  0.01720  0.93730  1.0000
  C   C76       1.0  0.92320  0.01720  0.56270  1.0000
  C   C77       1.0  0.42320  0.48280  0.06270  1.0000
  C   C78       1.0  0.57680  0.48280  0.43730  1.0000
  C   C79       1.0  0.92320  0.98280  0.06270  1.0000
  C   C80       1.0  0.07680  0.98280  0.43730  1.0000
  N   N17       1.0  0.63090  0.99680  0.06280  1.0000
  N   N18       1.0  0.36910  0.99680  0.43720  1.0000
  N   N19       1.0  0.13090  0.49680  0.06280  1.0000
  N   N20       1.0  0.86910  0.49680  0.43720  1.0000
  N   N21       1.0  0.36910  0.00320  0.93720  1.0000
  N   N22       1.0  0.63090  0.00320  0.56280  1.0000
  N   N23       1.0  0.86910  0.50320  0.93720  1.0000
  N   N24       1.0  0.13090  0.50320  0.56280  1.0000
  H   H33       1.0  0.62520  0.94970  0.09520  1.0000
  H   H34       1.0  0.37480  0.94970  0.40480  1.0000
  H   H35       1.0  0.12520  0.44970  0.09520  1.0000
  H   H36       1.0  0.87480  0.44970  0.40480  1.0000
  H   H37       1.0  0.37480  0.05030  0.90480  1.0000
  H   H38       1.0  0.62520  0.05030  0.59520  1.0000
  H   H39       1.0  0.87480  0.55030  0.90480  1.0000
  H   H40       1.0  0.12520  0.55030  0.59520  1.0000
  N   N25       1.0  0.50000  0.19060  0.75000  1.0000
  N   N26       1.0  0.00000  0.69060  0.75000  1.0000
  N   N27       1.0  0.50000  0.80940  0.25000  1.0000
  N   N28       1.0  0.00000  0.30940  0.25000  1.0000
  C   C81       1.0  0.50000  0.93550  0.75000  1.0000
  C   C82       1.0  0.00000  0.43550  0.75000  1.0000
  C   C83       1.0  0.50000  0.06450  0.25000  1.0000
  C   C84       1.0  0.00000  0.56450  0.25000  1.0000
  H   H41       1.0  0.50000  0.84860  0.75000  1.0000
  H   H42       1.0  0.00000  0.34860  0.75000  1.0000
  H   H43       1.0  0.50000  0.15140  0.25000  1.0000
  H   H44       1.0  0.00000  0.65140  0.25000  1.0000
  C   C85       1.0  0.54200  0.65990  0.00770  1.0000
  C   C86       1.0  0.45800  0.65990  0.49230  1.0000
  C   C87       1.0  0.04200  0.15990  0.00770  1.0000
  C   C88       1.0  0.95800  0.15990  0.49230  1.0000
  C   C89       1.0  0.45800  0.34010  0.99230  1.0000
  C   C90       1.0  0.54200  0.34010  0.50770  1.0000
  C   C91       1.0  0.95800  0.84010  0.99230  1.0000
  C   C92       1.0  0.04200  0.84010  0.50770  1.0000
  H   H45       1.0  0.54860  0.69830  0.05260  1.0000
  H   H46       1.0  0.45140  0.69830  0.44740  1.0000
  H   H47       1.0  0.04860  0.19830  0.05260  1.0000
  H   H48       1.0  0.95140  0.19830  0.44740  1.0000
  H   H49       1.0  0.45140  0.30170  0.94740  1.0000
  H   H50       1.0  0.54860  0.30170  0.55260  1.0000
  H   H51       1.0  0.95140  0.80170  0.94740  1.0000
  H   H52       1.0  0.04860  0.80170  0.55260  1.0000
  C   C93       1.0  0.61920  0.08380  0.96080  1.0000
  C   C94       1.0  0.38080  0.08380  0.53920  1.0000
  C   C95       1.0  0.11920  0.58380  0.96080  1.0000
  C   C96       1.0  0.88080  0.58380  0.53920  1.0000
  C   C97       1.0  0.38080  0.91620  0.03920  1.0000
  C   C98       1.0  0.61920  0.91620  0.46080  1.0000
  C   C99       1.0  0.88080  0.41620  0.03920  1.0000
  C   C100      1.0  0.11920  0.41620  0.46080  1.0000
  H   H53       1.0  0.60150  0.10600  0.91060  1.0000
  H   H54       1.0  0.39850  0.10600  0.58940  1.0000
  H   H55       1.0  0.10150  0.60600  0.91060  1.0000
  H   H56       1.0  0.89850  0.60600  0.58940  1.0000
  H   H57       1.0  0.39850  0.89400  0.08940  1.0000
  H   H58       1.0  0.60150  0.89400  0.41060  1.0000
  H   H59       1.0  0.89850  0.39400  0.08940  1.0000
  H   H60       1.0  0.10150  0.39400  0.41060  1.0000
  C   C101      1.0  0.58890  0.00700  0.99070  1.0000
  C   C102      1.0  0.41110  0.00700  0.50930  1.0000
  C   C103      1.0  0.08890  0.50700  0.99070  1.0000
  C   C104      1.0  0.91110  0.50700  0.50930  1.0000
  C   C105      1.0  0.41110  0.99300  0.00930  1.0000
  C   C106      1.0  0.58890  0.99300  0.49070  1.0000
  C   C107      1.0  0.91110  0.49300  0.00930  1.0000
  C   C108      1.0  0.08890  0.49300  0.49070  1.0000
  H   H61       1.0  0.54660  0.96790  0.96610  1.0000
  H   H62       1.0  0.45340  0.96790  0.53390  1.0000
  H   H63       1.0  0.04660  0.46790  0.96610  1.0000
  H   H64       1.0  0.95340  0.46790  0.53390  1.0000
  H   H65       1.0  0.45340  0.03210  0.03390  1.0000
  H   H66       1.0  0.54660  0.03210  0.46610  1.0000
  H   H67       1.0  0.95340  0.53210  0.03390  1.0000
  H   H68       1.0  0.04660  0.53210  0.46610  1.0000
  H   H69       1.0  0.72780  0.18250  0.85960  1.0000
  H   H70       1.0  0.27220  0.18250  0.64040  1.0000
  H   H71       1.0  0.22780  0.68250  0.85960  1.0000
  H   H72       1.0  0.77220  0.68250  0.64040  1.0000
  H   H73       1.0  0.27220  0.81750  0.14040  1.0000
  H   H74       1.0  0.72780  0.81750  0.35960  1.0000
  H   H75       1.0  0.77220  0.31750  0.14040  1.0000
  H   H76       1.0  0.22780  0.31750  0.35960  1.0000
  H   H77       1.0  0.67210  0.26550  0.85860  1.0000
  H   H78       1.0  0.32790  0.26550  0.64140  1.0000
  H   H79       1.0  0.17210  0.76550  0.85860  1.0000
  H   H80       1.0  0.82790  0.76550  0.64140  1.0000
  H   H81       1.0  0.32790  0.73450  0.14140  1.0000
  H   H82       1.0  0.67210  0.73450  0.35860  1.0000
  H   H83       1.0  0.82790  0.23450  0.14140  1.0000
  H   H84       1.0  0.17210  0.23450  0.35860  1.0000
