data_image0
_chemical_formula_structural       Zn8O32N20H16C24H8C16H8C16H8C16
_chemical_formula_sum              "Zn8 O32 N20 H40 C72"
_cell_length_a       17.724
_cell_length_b       19.705
_cell_length_c       13.139
_cell_angle_alpha    90
_cell_angle_beta     127.496
_cell_angle_gamma    90

_space_group_name_H-M_alt    "P 1"
_space_group_IT_number       1

loop_
  _space_group_symop_operation_xyz
  'x, y, z'

loop_
  _atom_site_type_symbol
  _atom_site_label
  _atom_site_symmetry_multiplicity
  _atom_site_fract_x
  _atom_site_fract_y
  _atom_site_fract_z
  _atom_site_occupancy
  Zn  Zn1       1.0  0.40437  0.50000  0.36862  1.0000
  Zn  Zn2       1.0  0.59563  0.50000  0.63138  1.0000
  Zn  Zn3       1.0  0.90437  0.00000  0.36862  1.0000
  Zn  Zn4       1.0  0.09563  0.00000  0.63138  1.0000
  Zn  Zn5       1.0  0.00000  0.40852  0.00000  1.0000
  Zn  Zn6       1.0  0.50000  0.90852  0.00000  1.0000
  Zn  Zn7       1.0  0.00000  0.59148  0.00000  1.0000
  Zn  Zn8       1.0  0.50000  0.09148  0.00000  1.0000
  O   O1        1.0  0.45455  0.42353  0.32120  1.0000
  O   O2        1.0  0.54545  0.42353  0.67880  1.0000
  O   O3        1.0  0.95455  0.92353  0.32120  1.0000
  O   O4        1.0  0.04545  0.92353  0.67880  1.0000
  O   O5        1.0  0.54545  0.57647  0.67880  1.0000
  O   O6        1.0  0.45455  0.57647  0.32120  1.0000
  O   O7        1.0  0.04545  0.07647  0.67880  1.0000
  O   O8        1.0  0.95455  0.07647  0.32120  1.0000
  O   O9        1.0  0.59419  0.42848  0.51480  1.0000
  O   O10       1.0  0.40581  0.42848  0.48520  1.0000
  O   O11       1.0  0.09419  0.92848  0.51480  1.0000
  O   O12       1.0  0.90581  0.92848  0.48520  1.0000
  O   O13       1.0  0.40581  0.57152  0.48520  1.0000
  O   O14       1.0  0.59419  0.57152  0.51480  1.0000
  O   O15       1.0  0.90581  0.07152  0.48520  1.0000
  O   O16       1.0  0.09419  0.07152  0.51480  1.0000
  O   O17       1.0  0.40490  0.22206  0.03350  1.0000
  O   O18       1.0  0.59510  0.22206  0.96650  1.0000
  O   O19       1.0  0.90490  0.72206  0.03350  1.0000
  O   O20       1.0  0.09510  0.72206  0.96650  1.0000
  O   O21       1.0  0.59510  0.77794  0.96650  1.0000
  O   O22       1.0  0.40490  0.77794  0.03350  1.0000
  O   O23       1.0  0.09510  0.27794  0.96650  1.0000
  O   O24       1.0  0.90490  0.27794  0.03350  1.0000
  O   O25       1.0  0.52120  0.14670  0.13560  1.0000
  O   O26       1.0  0.47880  0.14670  0.86440  1.0000
  O   O27       1.0  0.02120  0.64670  0.13560  1.0000
  O   O28       1.0  0.97880  0.64670  0.86440  1.0000
  O   O29       1.0  0.47880  0.85330  0.86440  1.0000
  O   O30       1.0  0.52120  0.85330  0.13560  1.0000
  O   O31       1.0  0.97880  0.35330  0.86440  1.0000
  O   O32       1.0  0.02120  0.35330  0.13560  1.0000
  N   N1        1.0  0.26560  0.50000  0.21730  1.0000
  N   N2        1.0  0.73440  0.50000  0.78270  1.0000
  N   N3        1.0  0.76560  0.00000  0.21730  1.0000
  N   N4        1.0  0.23440  0.00000  0.78270  1.0000
  N   N5        1.0  0.11609  0.46438  0.08380  1.0000
  N   N6        1.0  0.88391  0.46438  0.91620  1.0000
  N   N7        1.0  0.61609  0.96438  0.08380  1.0000
  N   N8        1.0  0.38391  0.96438  0.91620  1.0000
  N   N9        1.0  0.88391  0.53562  0.91620  1.0000
  N   N10       1.0  0.11609  0.53562  0.08380  1.0000
  N   N11       1.0  0.38391  0.03562  0.91620  1.0000
  N   N12       1.0  0.61609  0.03562  0.08380  1.0000
  N   N13       1.0  0.23620  0.38032  0.18940  1.0000
  N   N14       1.0  0.76380  0.38032  0.81060  1.0000
  N   N15       1.0  0.73620  0.88032  0.18940  1.0000
  N   N16       1.0  0.26380  0.88032  0.81060  1.0000
  N   N17       1.0  0.76380  0.61968  0.81060  1.0000
  N   N18       1.0  0.23620  0.61968  0.18940  1.0000
  N   N19       1.0  0.26380  0.11968  0.81060  1.0000
  N   N20       1.0  0.73620  0.11968  0.18940  1.0000
  H   H1        1.0  0.19530  0.34790  0.15310  1.0000
  H   H2        1.0  0.80470  0.34790  0.84690  1.0000
  H   H3        1.0  0.69530  0.84790  0.15310  1.0000
  H   H4        1.0  0.30470  0.84790  0.84690  1.0000
  H   H5        1.0  0.80470  0.65210  0.84690  1.0000
  H   H6        1.0  0.19530  0.65210  0.15310  1.0000
  H   H7        1.0  0.30470  0.15210  0.84690  1.0000
  H   H8        1.0  0.69530  0.15210  0.15310  1.0000
  H   H9        1.0  0.29590  0.37130  0.24210  1.0000
  H   H10       1.0  0.70410  0.37130  0.75790  1.0000
  H   H11       1.0  0.79590  0.87130  0.24210  1.0000
  H   H12       1.0  0.20410  0.87130  0.75790  1.0000
  H   H13       1.0  0.70410  0.62870  0.75790  1.0000
  H   H14       1.0  0.29590  0.62870  0.24210  1.0000
  H   H15       1.0  0.20410  0.12870  0.75790  1.0000
  H   H16       1.0  0.79590  0.12870  0.24210  1.0000
  C   C1        1.0  0.53740  0.40273  0.40640  1.0000
  C   C2        1.0  0.46260  0.40273  0.59360  1.0000
  C   C3        1.0  0.03740  0.90273  0.40640  1.0000
  C   C4        1.0  0.96260  0.90273  0.59360  1.0000
  C   C5        1.0  0.46260  0.59727  0.59360  1.0000
  C   C6        1.0  0.53740  0.59727  0.40640  1.0000
  C   C7        1.0  0.96260  0.09727  0.59360  1.0000
  C   C8        1.0  0.03740  0.09727  0.40640  1.0000
  C   C9        1.0  0.57090  0.34051  0.37780  1.0000
  C   C10       1.0  0.42910  0.34051  0.62220  1.0000
  C   C11       1.0  0.07090  0.84051  0.37780  1.0000
  C   C12       1.0  0.92910  0.84051  0.62220  1.0000
  C   C13       1.0  0.42910  0.65949  0.62220  1.0000
  C   C14       1.0  0.57090  0.65949  0.37780  1.0000
  C   C15       1.0  0.92910  0.15949  0.62220  1.0000
  C   C16       1.0  0.07090  0.15949  0.37780  1.0000
  C   C17       1.0  0.66410  0.31913  0.46970  1.0000
  C   C18       1.0  0.33590  0.31913  0.53030  1.0000
  C   C19       1.0  0.16410  0.81913  0.46970  1.0000
  C   C20       1.0  0.83590  0.81913  0.53030  1.0000
  C   C21       1.0  0.33590  0.68087  0.53030  1.0000
  C   C22       1.0  0.66410  0.68087  0.46970  1.0000
  C   C23       1.0  0.83590  0.18087  0.53030  1.0000
  C   C24       1.0  0.16410  0.18087  0.46970  1.0000
  H   H17       1.0  0.70310  0.34380  0.54530  1.0000
  H   H18       1.0  0.29690  0.34380  0.45470  1.0000
  H   H19       1.0  0.20310  0.84380  0.54530  1.0000
  H   H20       1.0  0.79690  0.84380  0.45470  1.0000
  H   H21       1.0  0.29690  0.65620  0.45470  1.0000
  H   H22       1.0  0.70310  0.65620  0.54530  1.0000
  H   H23       1.0  0.79690  0.15620  0.45470  1.0000
  H   H24       1.0  0.20310  0.15620  0.54530  1.0000
  C   C25       1.0  0.70030  0.26160  0.45110  1.0000
  C   C26       1.0  0.29970  0.26160  0.54890  1.0000
  C   C27       1.0  0.20030  0.76160  0.45110  1.0000
  C   C28       1.0  0.79970  0.76160  0.54890  1.0000
  C   C29       1.0  0.29970  0.73840  0.54890  1.0000
  C   C30       1.0  0.70030  0.73840  0.45110  1.0000
  C   C31       1.0  0.79970  0.23840  0.54890  1.0000
  C   C32       1.0  0.20030  0.23840  0.45110  1.0000
  C   C33       1.0  0.63840  0.22620  0.33720  1.0000
  C   C34       1.0  0.36160  0.22620  0.66280  1.0000
  C   C35       1.0  0.13840  0.72620  0.33720  1.0000
  C   C36       1.0  0.86160  0.72620  0.66280  1.0000
  C   C37       1.0  0.36160  0.77380  0.66280  1.0000
  C   C38       1.0  0.63840  0.77380  0.33720  1.0000
  C   C39       1.0  0.86160  0.27380  0.66280  1.0000
  C   C40       1.0  0.13840  0.27380  0.33720  1.0000
  H   H25       1.0  0.66040  0.18740  0.32250  1.0000
  H   H26       1.0  0.33960  0.18740  0.67750  1.0000
  H   H27       1.0  0.16040  0.68740  0.32250  1.0000
  H   H28       1.0  0.83960  0.68740  0.67750  1.0000
  H   H29       1.0  0.33960  0.81260  0.67750  1.0000
  H   H30       1.0  0.66040  0.81260  0.32250  1.0000
  H   H31       1.0  0.83960  0.31260  0.67750  1.0000
  H   H32       1.0  0.16040  0.31260  0.32250  1.0000
  C   C41       1.0  0.54530  0.24610  0.24500  1.0000
  C   C42       1.0  0.45470  0.24610  0.75500  1.0000
  C   C43       1.0  0.04530  0.74610  0.24500  1.0000
  C   C44       1.0  0.95470  0.74610  0.75500  1.0000
  C   C45       1.0  0.45470  0.75390  0.75500  1.0000
  C   C46       1.0  0.54530  0.75390  0.24500  1.0000
  C   C47       1.0  0.95470  0.25390  0.75500  1.0000
  C   C48       1.0  0.04530  0.25390  0.24500  1.0000
  C   C49       1.0  0.51130  0.30460  0.26450  1.0000
  C   C50       1.0  0.48870  0.30460  0.73550  1.0000
  C   C51       1.0  0.01130  0.80460  0.26450  1.0000
  C   C52       1.0  0.98870  0.80460  0.73550  1.0000
  C   C53       1.0  0.48870  0.69540  0.73550  1.0000
  C   C54       1.0  0.51130  0.69540  0.26450  1.0000
  C   C55       1.0  0.98870  0.19540  0.73550  1.0000
  C   C56       1.0  0.01130  0.19540  0.26450  1.0000
  H   H33       1.0  0.44940  0.31930  0.20220  1.0000
  H   H34       1.0  0.55060  0.31930  0.79780  1.0000
  H   H35       1.0  0.94940  0.81930  0.20220  1.0000
  H   H36       1.0  0.05060  0.81930  0.79780  1.0000
  H   H37       1.0  0.55060  0.68070  0.79780  1.0000
  H   H38       1.0  0.44940  0.68070  0.20220  1.0000
  H   H39       1.0  0.05060  0.18070  0.79780  1.0000
  H   H40       1.0  0.94940  0.18070  0.20220  1.0000
  C   C57       1.0  0.48420  0.20340  0.12620  1.0000
  C   C58       1.0  0.51580  0.20340  0.87380  1.0000
  C   C59       1.0  0.98420  0.70340  0.12620  1.0000
  C   C60       1.0  0.01580  0.70340  0.87380  1.0000
  C   C61       1.0  0.51580  0.79660  0.87380  1.0000
  C   C62       1.0  0.48420  0.79660  0.12620  1.0000
  C   C63       1.0  0.01580  0.29660  0.87380  1.0000
  C   C64       1.0  0.98420  0.29660  0.12620  1.0000
  C   C65       1.0  0.20620  0.44616  0.16330  1.0000
  C   C66       1.0  0.79380  0.44616  0.83670  1.0000
  C   C67       1.0  0.70620  0.94616  0.16330  1.0000
  C   C68       1.0  0.29380  0.94616  0.83670  1.0000
  C   C69       1.0  0.79380  0.55384  0.83670  1.0000
  C   C70       1.0  0.20620  0.55384  0.16330  1.0000
  C   C71       1.0  0.29380  0.05384  0.83670  1.0000
  C   C72       1.0  0.70620  0.05384  0.16330  1.0000
