data_image0
_chemical_formula_structural       Zn4P8O24H4C4H8C4H8C4H8
_chemical_formula_sum              "Zn4 P8 O24 H28 C12"
_cell_length_a       11.6226
_cell_length_b       8.1412
_cell_length_c       11.8917
_cell_angle_alpha    90
_cell_angle_beta     96.381
_cell_angle_gamma    90

_space_group_name_H-M_alt    "P 1"
_space_group_IT_number       1

loop_
  _space_group_symop_operation_xyz
  'x, y, z'

loop_
  _atom_site_type_symbol
  _atom_site_label
  _atom_site_symmetry_multiplicity
  _atom_site_fract_x
  _atom_site_fract_y
  _atom_site_fract_z
  _atom_site_occupancy
  Zn  Zn1       1.0  0.02592  0.25307  0.02388  1.0000
  Zn  Zn2       1.0  0.47408  0.75307  0.47612  1.0000
  Zn  Zn3       1.0  0.97408  0.74693  0.97612  1.0000
  Zn  Zn4       1.0  0.52592  0.24693  0.52388  1.0000
  P   P1        1.0  0.79869  0.44729  0.98525  1.0000
  P   P2        1.0  0.70131  0.94729  0.51475  1.0000
  P   P3        1.0  0.20131  0.55271  0.01475  1.0000
  P   P4        1.0  0.29869  0.05271  0.48525  1.0000
  P   P5        1.0  0.48607  0.45418  0.30567  1.0000
  P   P6        1.0  0.01393  0.95418  0.19433  1.0000
  P   P7        1.0  0.51393  0.54582  0.69433  1.0000
  P   P8        1.0  0.98607  0.04582  0.80567  1.0000
  O   O1        1.0  0.86773  0.30720  0.04353  1.0000
  O   O2        1.0  0.63227  0.80720  0.45647  1.0000
  O   O3        1.0  0.13227  0.69280  0.95647  1.0000
  O   O4        1.0  0.36773  0.19280  0.54353  1.0000
  O   O5        1.0  0.87289  0.56616  0.92333  1.0000
  O   O6        1.0  0.62711  0.06616  0.57667  1.0000
  O   O7        1.0  0.12711  0.43384  0.07667  1.0000
  O   O8        1.0  0.37289  0.93384  0.42333  1.0000
  O   O9        1.0  0.70011  0.38285  0.90058  1.0000
  O   O10       1.0  0.79989  0.88285  0.59942  1.0000
  O   O11       1.0  0.29989  0.61715  0.09942  1.0000
  O   O12       1.0  0.20011  0.11715  0.40058  1.0000
  O   O13       1.0  0.54387  0.31130  0.37018  1.0000
  O   O14       1.0  0.95613  0.81130  0.12982  1.0000
  O   O15       1.0  0.45613  0.68870  0.62982  1.0000
  O   O16       1.0  0.04387  0.18870  0.87018  1.0000
  O   O17       1.0  0.42089  0.57182  0.37532  1.0000
  O   O18       1.0  0.07911  0.07182  0.12468  1.0000
  O   O19       1.0  0.57911  0.42818  0.62468  1.0000
  O   O20       1.0  0.92089  0.92818  0.87532  1.0000
  O   O21       1.0  0.39814  0.38397  0.20867  1.0000
  O   O22       1.0  0.10186  0.88397  0.29133  1.0000
  O   O23       1.0  0.60186  0.61603  0.79133  1.0000
  O   O24       1.0  0.89814  0.11603  0.70867  1.0000
  H   H1        1.0  0.36300  0.47000  0.16900  1.0000
  H   H2        1.0  0.13700  0.97000  0.33100  1.0000
  H   H3        1.0  0.63700  0.53000  0.83100  1.0000
  H   H4        1.0  0.86300  0.03000  0.66900  1.0000
  C   C1        1.0  0.73470  0.56170  0.09160  1.0000
  C   C2        1.0  0.76530  0.06170  0.40840  1.0000
  C   C3        1.0  0.26530  0.43830  0.90840  1.0000
  C   C4        1.0  0.23470  0.93830  0.59160  1.0000
  H   H5        1.0  0.79400  0.60300  0.14300  1.0000
  H   H6        1.0  0.70600  0.10300  0.35700  1.0000
  H   H7        1.0  0.20600  0.39700  0.85700  1.0000
  H   H8        1.0  0.29400  0.89700  0.64300  1.0000
  H   H9        1.0  0.68900  0.65400  0.05300  1.0000
  H   H10       1.0  0.81100  0.15400  0.44700  1.0000
  H   H11       1.0  0.31100  0.34600  0.94700  1.0000
  H   H12       1.0  0.18900  0.84600  0.55300  1.0000
  C   C5        1.0  0.65340  0.45980  0.15580  1.0000
  C   C6        1.0  0.84660  0.95980  0.34420  1.0000
  C   C7        1.0  0.34660  0.54020  0.84420  1.0000
  C   C8        1.0  0.15340  0.04020  0.65580  1.0000
  H   H13       1.0  0.59700  0.40700  0.10200  1.0000
  H   H14       1.0  0.90300  0.90700  0.39800  1.0000
  H   H15       1.0  0.40300  0.59300  0.89800  1.0000
  H   H16       1.0  0.09700  0.09300  0.60200  1.0000
  H   H17       1.0  0.69000  0.37800  0.19300  1.0000
  H   H18       1.0  0.81000  0.87800  0.30700  1.0000
  H   H19       1.0  0.31000  0.62200  0.80700  1.0000
  H   H20       1.0  0.19000  0.12200  0.69300  1.0000
  C   C9        1.0  0.59230  0.56510  0.23820  1.0000
  C   C10       1.0  0.90770  0.06510  0.26180  1.0000
  C   C11       1.0  0.40770  0.43490  0.76180  1.0000
  C   C12       1.0  0.09230  0.93490  0.73820  1.0000
  H   H21       1.0  0.65300  0.60400  0.30200  1.0000
  H   H22       1.0  0.84700  0.10400  0.19800  1.0000
  H   H23       1.0  0.34700  0.39600  0.69800  1.0000
  H   H24       1.0  0.15300  0.89600  0.80200  1.0000
  H   H25       1.0  0.54800  0.65400  0.19800  1.0000
  H   H26       1.0  0.95200  0.15400  0.30200  1.0000
  H   H27       1.0  0.45200  0.34600  0.80200  1.0000
  H   H28       1.0  0.04800  0.84600  0.69800  1.0000
