data_image0
_chemical_formula_structural       Zn2P4O2H2O10C2H4C2H4C2H4C2H4
_chemical_formula_sum              "Zn2 P4 O12 H18 C8"
_cell_length_a       4.8852
_cell_length_b       9.986
_cell_length_c       10.432
_cell_angle_alpha    92.918
_cell_angle_beta     98.418
_cell_angle_gamma    90.801

_space_group_name_H-M_alt    "P 1"
_space_group_IT_number       1

loop_
  _space_group_symop_operation_xyz
  'x, y, z'

loop_
  _atom_site_type_symbol
  _atom_site_label
  _atom_site_symmetry_multiplicity
  _atom_site_fract_x
  _atom_site_fract_y
  _atom_site_fract_z
  _atom_site_occupancy
  Zn  Zn1       1.0  0.34556  0.11113  0.12597  1.0000
  Zn  Zn2       1.0  0.65444  0.88887  0.87403  1.0000
  P   P1        1.0  0.24160  0.25630  0.40458  1.0000
  P   P2        1.0  0.75840  0.74370  0.59542  1.0000
  P   P3        1.0  0.18953  0.81422  0.03031  1.0000
  P   P4        1.0  0.81047  0.18578  0.96969  1.0000
  O   O1        1.0  0.50340  0.29518  0.50836  1.0000
  O   O2        1.0  0.49660  0.70482  0.49164  1.0000
  H   H1        1.0  0.63800  0.27100  0.49200  1.0000
  H   H2        1.0  0.36200  0.72900  0.50800  1.0000
  O   O3        1.0  0.01400  0.20465  0.47430  1.0000
  O   O4        1.0  0.98600  0.79535  0.52570  1.0000
  O   O5        1.0  0.33180  0.15624  0.30651  1.0000
  O   O6        1.0  0.66820  0.84376  0.69349  1.0000
  O   O7        1.0  0.87380  0.80697  0.01559  1.0000
  O   O8        1.0  0.12620  0.19303  0.98441  1.0000
  O   O9        1.0  0.30420  0.91575  0.14229  1.0000
  O   O10       1.0  0.69580  0.08425  0.85771  1.0000
  O   O11       1.0  0.27870  0.84900  0.90156  1.0000
  O   O12       1.0  0.72130  0.15100  0.09844  1.0000
  C   C1        1.0  0.12270  0.40720  0.33070  1.0000
  C   C2        1.0  0.87730  0.59280  0.66930  1.0000
  H   H3        1.0  0.08300  0.47400  0.40000  1.0000
  H   H4        1.0  0.91700  0.52600  0.60000  1.0000
  H   H5        1.0  0.95000  0.38600  0.28900  1.0000
  H   H6        1.0  0.05000  0.61400  0.71100  1.0000
  C   C3        1.0  0.30150  0.46930  0.23900  1.0000
  C   C4        1.0  0.69850  0.53070  0.76100  1.0000
  H   H7        1.0  0.49700  0.48600  0.28400  1.0000
  H   H8        1.0  0.50300  0.51400  0.71600  1.0000
  H   H9        1.0  0.31800  0.40600  0.16700  1.0000
  H   H10       1.0  0.68200  0.59400  0.83300  1.0000
  C   C5        1.0  0.17680  0.59900  0.18830  1.0000
  C   C6        1.0  0.82320  0.40100  0.81170  1.0000
  H   H11       1.0  0.99300  0.58700  0.15900  1.0000
  H   H12       1.0  0.00700  0.41300  0.84100  1.0000
  H   H13       1.0  0.18700  0.66400  0.25800  1.0000
  H   H14       1.0  0.81300  0.33600  0.74200  1.0000
  C   C7        1.0  0.31390  0.65288  0.07790  1.0000
  C   C8        1.0  0.68610  0.34712  0.92210  1.0000
  H   H15       1.0  0.52000  0.66000  0.10200  1.0000
  H   H16       1.0  0.48000  0.34000  0.89800  1.0000
  H   H17       1.0  0.28100  0.59600  0.00600  1.0000
  H   H18       1.0  0.71900  0.40400  0.99400  1.0000
