data_image0
_chemical_formula_structural       Cr3Mn3O36C18NC2H3NC2H3
_chemical_formula_sum              "Cr3 Mn3 O36 C22 N2 H6"
_cell_length_a       15.966
_cell_length_b       15.966
_cell_length_c       9.36
_cell_angle_alpha    90
_cell_angle_beta     90
_cell_angle_gamma    120

_space_group_name_H-M_alt    "P 1"
_space_group_IT_number       1

loop_
  _space_group_symop_operation_xyz
  'x, y, z'

loop_
  _atom_site_type_symbol
  _atom_site_label
  _atom_site_symmetry_multiplicity
  _atom_site_fract_x
  _atom_site_fract_y
  _atom_site_fract_z
  _atom_site_occupancy
  Cr  Cr1       1.0  0.00466  0.34206  0.50405  1.0000
  Cr  Cr2       1.0  0.65794  0.66260  0.50405  1.0000
  Cr  Cr3       1.0  0.33740  0.99534  0.50405  1.0000
  Mn  Mn1       1.0  0.00000  0.00000  0.53621  1.0000
  Mn  Mn2       1.0  0.66670  0.33330  0.67320  1.0000
  Mn  Mn3       1.0  0.33330  0.66670  0.30500  1.0000
  O   O1        1.0  0.98220  0.24470  0.64970  1.0000
  O   O2        1.0  0.75530  0.73750  0.64970  1.0000
  O   O3        1.0  0.26250  0.01780  0.64970  1.0000
  O   O4        1.0  0.03060  0.25890  0.37890  1.0000
  O   O5        1.0  0.74110  0.77170  0.37890  1.0000
  O   O6        1.0  0.22830  0.96940  0.37890  1.0000
  O   O7        1.0  0.98760  0.10770  0.67040  1.0000
  O   O8        1.0  0.89230  0.87990  0.67040  1.0000
  O   O9        1.0  0.12010  0.01240  0.67040  1.0000
  O   O10       1.0  0.03570  0.11970  0.39150  1.0000
  O   O11       1.0  0.88030  0.91600  0.39150  1.0000
  O   O12       1.0  0.08400  0.96430  0.39150  1.0000
  O   O13       1.0  0.04270  0.44210  0.35010  1.0000
  O   O14       1.0  0.55790  0.60060  0.35010  1.0000
  O   O15       1.0  0.39940  0.95730  0.35010  1.0000
  O   O16       1.0  0.14400  0.42020  0.55340  1.0000
  O   O17       1.0  0.57980  0.72380  0.55340  1.0000
  O   O18       1.0  0.27620  0.85600  0.55340  1.0000
  O   O19       1.0  0.17510  0.56580  0.25610  1.0000
  O   O20       1.0  0.43420  0.60930  0.25610  1.0000
  O   O21       1.0  0.39070  0.82490  0.25610  1.0000
  O   O22       1.0  0.28110  0.54430  0.46870  1.0000
  O   O23       1.0  0.45570  0.73680  0.46870  1.0000
  O   O24       1.0  0.26320  0.71890  0.46870  1.0000
  O   O25       1.0  0.96440  0.41180  0.63920  1.0000
  O   O26       1.0  0.58820  0.55260  0.63920  1.0000
  O   O27       1.0  0.44740  0.03560  0.63920  1.0000
  O   O28       1.0  0.86760  0.27850  0.44740  1.0000
  O   O29       1.0  0.72150  0.58910  0.44740  1.0000
  O   O30       1.0  0.41090  0.13240  0.44740  1.0000
  O   O31       1.0  0.83020  0.40430  0.72140  1.0000
  O   O32       1.0  0.59570  0.42590  0.72140  1.0000
  O   O33       1.0  0.57410  0.16980  0.72140  1.0000
  O   O34       1.0  0.72910  0.27000  0.51720  1.0000
  O   O35       1.0  0.73000  0.45910  0.51720  1.0000
  O   O36       1.0  0.54090  0.27090  0.51720  1.0000
  C   C1        1.0  0.99520  0.17560  0.60280  1.0000
  C   C2        1.0  0.82440  0.81960  0.60280  1.0000
  C   C3        1.0  0.18040  0.00480  0.60280  1.0000
  C   C4        1.0  0.02300  0.18570  0.44260  1.0000
  C   C5        1.0  0.81430  0.83730  0.44260  1.0000
  C   C6        1.0  0.16270  0.97700  0.44260  1.0000
  C   C7        1.0  0.13190  0.49920  0.34440  1.0000
  C   C8        1.0  0.50080  0.63270  0.34440  1.0000
  C   C9        1.0  0.36730  0.86810  0.34440  1.0000
  C   C10       1.0  0.19170  0.48840  0.46840  1.0000
  C   C11       1.0  0.51160  0.70330  0.46840  1.0000
  C   C12       1.0  0.29670  0.80830  0.46840  1.0000
  C   C13       1.0  0.87450  0.37880  0.64000  1.0000
  C   C14       1.0  0.62120  0.49570  0.64000  1.0000
  C   C15       1.0  0.50430  0.12550  0.64000  1.0000
  C   C16       1.0  0.81330  0.30060  0.52750  1.0000
  C   C17       1.0  0.69940  0.51270  0.52750  1.0000
  C   C18       1.0  0.48730  0.18670  0.52750  1.0000
  N   N1        1.0  0.33330  0.66670  0.05820  1.0000
  C   C19       1.0  0.33330  0.66670  0.95000  1.0000
  C   C20       1.0  0.33330  0.66670  0.78280  1.0000
  H   H1        1.0  0.30580  0.60150  0.74860  1.0000
  H   H2        1.0  0.39850  0.70430  0.74860  1.0000
  H   H3        1.0  0.29570  0.69420  0.74860  1.0000
  N   N2        1.0  0.66670  0.33330  0.92850  1.0000
  C   C21       1.0  0.66670  0.33330  0.03990  1.0000
  C   C22       1.0  0.66670  0.33330  0.21130  1.0000
  H   H4        1.0  0.64560  0.37650  0.24550  1.0000
  H   H5        1.0  0.62350  0.26910  0.24550  1.0000
  H   H6        1.0  0.73090  0.35440  0.24550  1.0000
