data_image0
_chemical_formula_structural       In8O8H8O48N4O8C36H4C28H4C8H4C12H4C8H4C4H4C4H4C4H4C4H4C4H4C12H4C4H4C4H4C4H4C4H4C4H4C4H4C4H4C4H4C4H4C4H4C4H4C8H4C8H4C8H12C4H12C4H12C4H4C8
_chemical_formula_sum              "In8 O64 H144 N4 C212"
_cell_length_a       12.666
_cell_length_b       29.888
_cell_length_c       15.424
_cell_angle_alpha    90
_cell_angle_beta     112.43
_cell_angle_gamma    90

_space_group_name_H-M_alt    "P 1"
_space_group_IT_number       1

loop_
  _space_group_symop_operation_xyz
  'x, y, z'

loop_
  _atom_site_type_symbol
  _atom_site_label
  _atom_site_symmetry_multiplicity
  _atom_site_fract_x
  _atom_site_fract_y
  _atom_site_fract_z
  _atom_site_occupancy
  In  In1       1.0  0.54602  0.31507  0.99520  1.0000
  In  In2       1.0  0.45398  0.81507  0.50480  1.0000
  In  In3       1.0  0.45398  0.68493  0.00480  1.0000
  In  In4       1.0  0.54602  0.18493  0.49520  1.0000
  In  In5       1.0  0.97844  0.81952  0.62358  1.0000
  In  In6       1.0  0.02156  0.31952  0.87642  1.0000
  In  In7       1.0  0.02156  0.18048  0.37642  1.0000
  In  In8       1.0  0.97844  0.68048  0.12358  1.0000
  O   O1        1.0  0.50240  0.25580  0.41240  1.0000
  O   O2        1.0  0.49760  0.75580  0.08760  1.0000
  O   O3        1.0  0.49760  0.74420  0.58760  1.0000
  O   O4        1.0  0.50240  0.24420  0.91240  1.0000
  O   O5        1.0  0.37110  0.32950  0.90830  1.0000
  O   O6        1.0  0.62890  0.82950  0.59170  1.0000
  O   O7        1.0  0.62890  0.67050  0.09170  1.0000
  O   O8        1.0  0.37110  0.17050  0.40830  1.0000
  H   H1        1.0  0.35275  0.32057  0.84867  1.0000
  H   H2        1.0  0.64725  0.82057  0.65133  1.0000
  H   H3        1.0  0.64725  0.67943  0.15133  1.0000
  H   H4        1.0  0.35275  0.17943  0.34867  1.0000
  H   H5        1.0  0.35667  0.35894  0.90636  1.0000
  H   H6        1.0  0.64333  0.85894  0.59364  1.0000
  H   H7        1.0  0.64333  0.64106  0.09364  1.0000
  H   H8        1.0  0.35667  0.14106  0.40636  1.0000
  O   O9        1.0  0.66620  0.24000  0.52470  1.0000
  O   O10       1.0  0.33380  0.74000  0.97530  1.0000
  O   O11       1.0  0.33380  0.76000  0.47530  1.0000
  O   O12       1.0  0.66620  0.26000  0.02470  1.0000
  O   O13       1.0  0.99660  0.61690  0.20390  1.0000
  O   O14       1.0  0.00340  0.11690  0.29610  1.0000
  O   O15       1.0  0.00340  0.38310  0.79610  1.0000
  O   O16       1.0  0.99660  0.88310  0.70390  1.0000
  O   O17       1.0  0.53590  0.37850  0.06670  1.0000
  O   O18       1.0  0.46410  0.87850  0.43330  1.0000
  O   O19       1.0  0.46410  0.62150  0.93330  1.0000
  O   O20       1.0  0.53590  0.12150  0.56670  1.0000
  O   O21       1.0  0.14700  0.80380  0.61940  1.0000
  O   O22       1.0  0.85300  0.30380  0.88060  1.0000
  O   O23       1.0  0.85300  0.19620  0.38060  1.0000
  O   O24       1.0  0.14700  0.69620  0.11940  1.0000
  O   O25       1.0  0.88380  0.66980  0.21590  1.0000
  O   O26       1.0  0.11620  0.16980  0.28410  1.0000
  O   O27       1.0  0.11620  0.33020  0.78410  1.0000
  O   O28       1.0  0.88380  0.83020  0.71590  1.0000
  O   O29       1.0  0.92510  0.75540  0.57300  1.0000
  O   O30       1.0  0.07490  0.25540  0.92700  1.0000
  O   O31       1.0  0.07490  0.24460  0.42700  1.0000
  O   O32       1.0  0.92510  0.74460  0.07300  1.0000
  O   O33       1.0  0.68250  0.33500  0.14180  1.0000
  O   O34       1.0  0.31750  0.83500  0.35820  1.0000
  O   O35       1.0  0.31750  0.66500  0.85820  1.0000
  O   O36       1.0  0.68250  0.16500  0.64180  1.0000
  O   O37       1.0  0.58480  0.34600  0.88880  1.0000
  O   O38       1.0  0.41520  0.84600  0.61120  1.0000
  O   O39       1.0  0.41520  0.65400  0.11120  1.0000
  O   O40       1.0  0.58480  0.15400  0.38880  1.0000
  O   O41       1.0  0.11880  0.78370  0.74560  1.0000
  O   O42       1.0  0.88120  0.28370  0.75440  1.0000
  O   O43       1.0  0.88120  0.21630  0.25440  1.0000
  O   O44       1.0  0.11880  0.71630  0.24560  1.0000
  O   O45       1.0  0.75310  0.36860  0.99200  1.0000
  O   O46       1.0  0.24690  0.86860  0.50800  1.0000
  O   O47       1.0  0.24690  0.63140  0.00800  1.0000
  O   O48       1.0  0.75310  0.13140  0.49200  1.0000
  O   O49       1.0  0.47660  0.27640  0.08310  1.0000
  O   O50       1.0  0.52340  0.77640  0.41690  1.0000
  O   O51       1.0  0.52340  0.72360  0.91690  1.0000
  O   O52       1.0  0.47660  0.22360  0.58310  1.0000
  O   O53       1.0  0.75650  0.76120  0.58500  1.0000
  O   O54       1.0  0.24350  0.26120  0.91500  1.0000
  O   O55       1.0  0.24350  0.23880  0.41500  1.0000
  O   O56       1.0  0.75650  0.73880  0.08500  1.0000
  N   N1        1.0  0.36770  0.26160  0.16340  1.0000
  N   N2        1.0  0.63230  0.76160  0.33660  1.0000
  N   N3        1.0  0.63230  0.73840  0.83660  1.0000
  N   N4        1.0  0.36770  0.23840  0.66340  1.0000
  O   O57       1.0  0.96460  0.64510  0.00020  1.0000
  O   O58       1.0  0.03540  0.14510  0.49980  1.0000
  O   O59       1.0  0.03540  0.35490  0.99980  1.0000
  O   O60       1.0  0.96460  0.85490  0.50020  1.0000
  O   O61       1.0  0.79660  0.63680  0.00580  1.0000
  O   O62       1.0  0.20340  0.13680  0.49420  1.0000
  O   O63       1.0  0.20340  0.36320  0.99420  1.0000
  O   O64       1.0  0.79660  0.86320  0.50580  1.0000
  C   C1        1.0  0.72420  0.45590  0.37830  1.0000
  C   C2        1.0  0.27580  0.95590  0.12170  1.0000
  C   C3        1.0  0.27580  0.54410  0.62170  1.0000
  C   C4        1.0  0.72420  0.04410  0.87830  1.0000
  C   C5        1.0  0.62800  0.31760  0.48540  1.0000
  C   C6        1.0  0.37200  0.81760  0.01460  1.0000
  C   C7        1.0  0.37200  0.68240  0.51460  1.0000
  C   C8        1.0  0.62800  0.18240  0.98540  1.0000
  C   C9        1.0  0.71560  0.45610  0.53600  1.0000
  C   C10       1.0  0.28440  0.95610  0.96400  1.0000
  C   C11       1.0  0.28440  0.54390  0.46400  1.0000
  C   C12       1.0  0.71560  0.04390  0.03600  1.0000
  C   C13       1.0  0.76290  0.52260  0.63310  1.0000
  C   C14       1.0  0.23710  0.02260  0.86690  1.0000
  C   C15       1.0  0.23710  0.47740  0.36690  1.0000
  C   C16       1.0  0.76290  0.97740  0.13310  1.0000
  C   C17       1.0  0.68210  0.40820  0.52020  1.0000
  C   C18       1.0  0.31790  0.90820  0.97980  1.0000
  C   C19       1.0  0.31790  0.59180  0.47980  1.0000
  C   C20       1.0  0.68210  0.09180  0.02020  1.0000
  C   C21       1.0  0.78650  0.54590  0.72510  1.0000
  C   C22       1.0  0.21350  0.04590  0.77490  1.0000
  C   C23       1.0  0.21350  0.45410  0.27490  1.0000
  C   C24       1.0  0.78650  0.95410  0.22510  1.0000
  C   C25       1.0  0.80280  0.59570  0.57220  1.0000
  C   C26       1.0  0.19720  0.09570  0.92780  1.0000
  C   C27       1.0  0.19720  0.40430  0.42780  1.0000
  C   C28       1.0  0.80280  0.90430  0.07220  1.0000
  C   C29       1.0  0.82410  0.68850  0.57420  1.0000
  C   C30       1.0  0.17590  0.18850  0.92580  1.0000
  C   C31       1.0  0.17590  0.31150  0.42580  1.0000
  C   C32       1.0  0.82410  0.81150  0.07420  1.0000
  C   C33       1.0  0.55510  0.34980  0.42490  1.0000
  C   C34       1.0  0.44490  0.84980  0.07510  1.0000
  C   C35       1.0  0.44490  0.65020  0.57510  1.0000
  C   C36       1.0  0.55510  0.15020  0.92490  1.0000
  H   H9        1.0  0.49011  0.34144  0.37391  1.0000
  H   H10       1.0  0.50989  0.84144  0.12609  1.0000
  H   H11       1.0  0.50989  0.65856  0.62609  1.0000
  H   H12       1.0  0.49011  0.15856  0.87391  1.0000
  C   C37       1.0  0.88250  0.60190  0.29330  1.0000
  C   C38       1.0  0.11750  0.10190  0.20670  1.0000
  C   C39       1.0  0.11750  0.39810  0.70670  1.0000
  C   C40       1.0  0.88250  0.89810  0.79330  1.0000
  C   C41       1.0  0.68680  0.39790  0.83700  1.0000
  C   C42       1.0  0.31320  0.89790  0.66300  1.0000
  C   C43       1.0  0.31320  0.60210  0.16300  1.0000
  C   C44       1.0  0.68680  0.10210  0.33700  1.0000
  C   C45       1.0  0.83590  0.59690  0.88850  1.0000
  C   C46       1.0  0.16410  0.09690  0.61150  1.0000
  C   C47       1.0  0.16410  0.40310  0.11150  1.0000
  C   C48       1.0  0.83590  0.90310  0.38850  1.0000
  C   C49       1.0  0.80600  0.54930  0.40910  1.0000
  C   C50       1.0  0.19400  0.04930  0.09090  1.0000
  C   C51       1.0  0.19400  0.45070  0.59090  1.0000
  C   C52       1.0  0.80600  0.95070  0.90910  1.0000
  C   C53       1.0  0.74000  0.47950  0.46550  1.0000
  C   C54       1.0  0.26000  0.97950  0.03450  1.0000
  C   C55       1.0  0.26000  0.52050  0.53450  1.0000
  C   C56       1.0  0.74000  0.02050  0.96550  1.0000
  C   C57       1.0  0.72950  0.47780  0.62070  1.0000
  C   C58       1.0  0.27050  0.97780  0.87930  1.0000
  C   C59       1.0  0.27050  0.52220  0.37930  1.0000
  C   C60       1.0  0.72950  0.02220  0.12070  1.0000
  C   C61       1.0  0.58450  0.39530  0.44480  1.0000
  C   C62       1.0  0.41550  0.89530  0.05520  1.0000
  C   C63       1.0  0.41550  0.60470  0.55520  1.0000
  C   C64       1.0  0.58450  0.10470  0.94480  1.0000
  H   H13       1.0  0.53728  0.41718  0.40651  1.0000
  H   H14       1.0  0.46272  0.91718  0.09349  1.0000
  H   H15       1.0  0.46272  0.58282  0.59349  1.0000
  H   H16       1.0  0.53728  0.08282  0.90651  1.0000
  C   C65       1.0  0.59690  0.26840  0.47190  1.0000
  C   C66       1.0  0.40310  0.76840  0.02810  1.0000
  C   C67       1.0  0.40310  0.73160  0.52810  1.0000
  C   C68       1.0  0.59690  0.23160  0.97190  1.0000
  C   C69       1.0  0.72240  0.66930  0.56990  1.0000
  C   C70       1.0  0.27760  0.16930  0.93010  1.0000
  C   C71       1.0  0.27760  0.33070  0.43010  1.0000
  C   C72       1.0  0.72240  0.83070  0.06990  1.0000
  H   H17       1.0  0.66163  0.68743  0.56750  1.0000
  H   H18       1.0  0.33837  0.18743  0.93250  1.0000
  H   H19       1.0  0.33837  0.31257  0.43250  1.0000
  H   H20       1.0  0.66163  0.81257  0.06750  1.0000
  C   C73       1.0  0.77280  0.52450  0.47900  1.0000
  C   C74       1.0  0.22720  0.02450  0.02100  1.0000
  C   C75       1.0  0.22720  0.47550  0.52100  1.0000
  C   C76       1.0  0.77280  0.97550  0.97900  1.0000
  C   C77       1.0  0.66770  0.40210  0.21860  1.0000
  C   C78       1.0  0.33230  0.90210  0.28140  1.0000
  C   C79       1.0  0.33230  0.59790  0.78140  1.0000
  C   C80       1.0  0.66770  0.09790  0.71860  1.0000
  C   C81       1.0  0.92350  0.58490  0.85750  1.0000
  C   C82       1.0  0.07650  0.08490  0.64250  1.0000
  C   C83       1.0  0.07650  0.41510  0.14250  1.0000
  C   C84       1.0  0.92350  0.91510  0.35750  1.0000
  H   H21       1.0  0.99844  0.59368  0.89127  1.0000
  H   H22       1.0  0.00156  0.09368  0.60873  1.0000
  H   H23       1.0  0.00156  0.40632  0.10873  1.0000
  H   H24       1.0  0.99844  0.90632  0.39127  1.0000
  C   C85       1.0  0.71240  0.45180  0.69690  1.0000
  C   C86       1.0  0.28760  0.95180  0.80310  1.0000
  C   C87       1.0  0.28760  0.54820  0.30310  1.0000
  C   C88       1.0  0.71240  0.04820  0.19690  1.0000
  C   C89       1.0  0.60640  0.43180  0.68410  1.0000
  C   C90       1.0  0.39360  0.93180  0.81590  1.0000
  C   C91       1.0  0.39360  0.56820  0.31590  1.0000
  C   C92       1.0  0.60640  0.06820  0.18410  1.0000
  H   H25       1.0  0.54364  0.43644  0.62857  1.0000
  H   H26       1.0  0.45636  0.93644  0.87143  1.0000
  H   H27       1.0  0.45636  0.56356  0.37143  1.0000
  H   H28       1.0  0.54364  0.06356  0.12857  1.0000
  C   C93       1.0  0.59590  0.40540  0.75380  1.0000
  C   C94       1.0  0.40410  0.90540  0.74620  1.0000
  C   C95       1.0  0.40410  0.59460  0.24620  1.0000
  C   C96       1.0  0.59590  0.09460  0.25380  1.0000
  H   H29       1.0  0.52572  0.39230  0.74435  1.0000
  H   H30       1.0  0.47428  0.89230  0.75565  1.0000
  H   H31       1.0  0.47428  0.60770  0.25565  1.0000
  H   H32       1.0  0.52572  0.10770  0.24435  1.0000
  C   C97       1.0  0.94110  0.56270  0.33620  1.0000
  C   C98       1.0  0.05890  0.06270  0.16380  1.0000
  C   C99       1.0  0.05890  0.43730  0.66380  1.0000
  C   C100      1.0  0.94110  0.93730  0.83620  1.0000
  H   H33       1.0  0.00623  0.55392  0.32667  1.0000
  H   H34       1.0  0.99377  0.05392  0.17333  1.0000
  H   H35       1.0  0.99377  0.44608  0.67333  1.0000
  H   H36       1.0  0.00623  0.94608  0.82667  1.0000
  C   C101      1.0  0.90470  0.61560  0.57680  1.0000
  C   C102      1.0  0.09530  0.11560  0.92320  1.0000
  C   C103      1.0  0.09530  0.38440  0.42320  1.0000
  C   C104      1.0  0.90470  0.88440  0.07680  1.0000
  H   H37       1.0  0.96577  0.59761  0.57938  1.0000
  H   H38       1.0  0.03423  0.09761  0.92062  1.0000
  H   H39       1.0  0.03423  0.40239  0.42062  1.0000
  H   H40       1.0  0.96577  0.90239  0.07938  1.0000
  C   C105      1.0  0.72470  0.33020  0.55800  1.0000
  C   C106      1.0  0.27530  0.83020  0.94200  1.0000
  C   C107      1.0  0.27530  0.66980  0.44200  1.0000
  C   C108      1.0  0.72470  0.16980  0.05800  1.0000
  H   H41       1.0  0.77325  0.30843  0.59541  1.0000
  H   H42       1.0  0.22675  0.80843  0.90459  1.0000
  H   H43       1.0  0.22675  0.69157  0.40459  1.0000
  H   H44       1.0  0.77325  0.19157  0.09541  1.0000
  C   C109      1.0  0.75910  0.39090  0.29810  1.0000
  C   C110      1.0  0.24090  0.89090  0.20190  1.0000
  C   C111      1.0  0.24090  0.60910  0.70190  1.0000
  C   C112      1.0  0.75910  0.10910  0.79810  1.0000
  H   H45       1.0  0.80209  0.36560  0.29883  1.0000
  H   H46       1.0  0.19791  0.86560  0.20117  1.0000
  H   H47       1.0  0.19791  0.63440  0.70117  1.0000
  H   H48       1.0  0.80209  0.13440  0.79883  1.0000
  C   C113      1.0  0.78140  0.54610  0.56220  1.0000
  C   C114      1.0  0.21860  0.04610  0.93780  1.0000
  C   C115      1.0  0.21860  0.45390  0.43780  1.0000
  C   C116      1.0  0.78140  0.95390  0.06220  1.0000
  C   C117      1.0  0.62790  0.37040  0.13800  1.0000
  C   C118      1.0  0.37210  0.87040  0.36200  1.0000
  C   C119      1.0  0.37210  0.62960  0.86200  1.0000
  C   C120      1.0  0.62790  0.12960  0.63800  1.0000
  C   C121      1.0  0.60820  0.44210  0.21590  1.0000
  C   C122      1.0  0.39180  0.94210  0.28410  1.0000
  C   C123      1.0  0.39180  0.55790  0.78410  1.0000
  C   C124      1.0  0.60820  0.05790  0.71590  1.0000
  H   H49       1.0  0.54870  0.45039  0.16074  1.0000
  H   H50       1.0  0.45130  0.95039  0.33926  1.0000
  H   H51       1.0  0.45130  0.54961  0.83926  1.0000
  H   H52       1.0  0.54870  0.04961  0.66074  1.0000
  C   C125      1.0  0.75190  0.37470  0.57700  1.0000
  C   C126      1.0  0.24810  0.87470  0.92300  1.0000
  C   C127      1.0  0.24810  0.62530  0.42300  1.0000
  C   C128      1.0  0.75190  0.12530  0.07700  1.0000
  H   H53       1.0  0.81742  0.38251  0.62805  1.0000
  H   H54       1.0  0.18258  0.88251  0.87195  1.0000
  H   H55       1.0  0.18258  0.61749  0.37195  1.0000
  H   H56       1.0  0.81742  0.11749  0.12805  1.0000
  C   C129      1.0  0.89700  0.55990  0.77690  1.0000
  C   C130      1.0  0.10300  0.05990  0.72310  1.0000
  C   C131      1.0  0.10300  0.44010  0.22310  1.0000
  C   C132      1.0  0.89700  0.94010  0.27690  1.0000
  H   H57       1.0  0.95503  0.55222  0.75671  1.0000
  H   H58       1.0  0.04497  0.05222  0.74329  1.0000
  H   H59       1.0  0.04497  0.44778  0.24329  1.0000
  H   H60       1.0  0.95503  0.94778  0.25671  1.0000
  C   C133      1.0  0.90140  0.53760  0.39240  1.0000
  C   C134      1.0  0.09860  0.03760  0.10760  1.0000
  C   C135      1.0  0.09860  0.46240  0.60760  1.0000
  C   C136      1.0  0.90140  0.96240  0.89240  1.0000
  H   H61       1.0  0.94063  0.51167  0.41994  1.0000
  H   H62       1.0  0.05937  0.01167  0.08006  1.0000
  H   H63       1.0  0.05937  0.48833  0.58006  1.0000
  H   H64       1.0  0.94063  0.98833  0.91994  1.0000
  C   C137      1.0  0.74440  0.58760  0.36370  1.0000
  C   C138      1.0  0.25560  0.08760  0.13630  1.0000
  C   C139      1.0  0.25560  0.41240  0.63630  1.0000
  C   C140      1.0  0.74440  0.91240  0.86370  1.0000
  H   H65       1.0  0.67717  0.59535  0.37106  1.0000
  H   H66       1.0  0.32283  0.09535  0.12894  1.0000
  H   H67       1.0  0.32283  0.40465  0.62894  1.0000
  H   H68       1.0  0.67717  0.90465  0.87106  1.0000
  C   C141      1.0  0.78770  0.41750  0.37820  1.0000
  C   C142      1.0  0.21230  0.91750  0.12180  1.0000
  C   C143      1.0  0.21230  0.58250  0.62180  1.0000
  C   C144      1.0  0.78770  0.08250  0.87820  1.0000
  H   H69       1.0  0.84970  0.40972  0.43216  1.0000
  H   H70       1.0  0.15030  0.90972  0.06784  1.0000
  H   H71       1.0  0.15030  0.59028  0.56784  1.0000
  H   H72       1.0  0.84970  0.09028  0.93216  1.0000
  C   C145      1.0  0.80410  0.44410  0.78290  1.0000
  C   C146      1.0  0.19590  0.94410  0.71710  1.0000
  C   C147      1.0  0.19590  0.55590  0.21710  1.0000
  C   C148      1.0  0.80410  0.05590  0.28290  1.0000
  H   H73       1.0  0.87454  0.45722  0.79328  1.0000
  H   H74       1.0  0.12546  0.95722  0.70672  1.0000
  H   H75       1.0  0.12546  0.54278  0.20672  1.0000
  H   H76       1.0  0.87454  0.04278  0.29328  1.0000
  C   C149      1.0  0.78400  0.61360  0.30830  1.0000
  C   C150      1.0  0.21600  0.11360  0.19170  1.0000
  C   C151      1.0  0.21600  0.38640  0.69170  1.0000
  C   C152      1.0  0.78400  0.88640  0.80830  1.0000
  H   H77       1.0  0.74438  0.63937  0.28050  1.0000
  H   H78       1.0  0.25562  0.13937  0.21950  1.0000
  H   H79       1.0  0.25562  0.36063  0.71950  1.0000
  H   H80       1.0  0.74438  0.86063  0.78050  1.0000
  C   C153      1.0  0.71130  0.62340  0.56920  1.0000
  C   C154      1.0  0.28870  0.12340  0.93080  1.0000
  C   C155      1.0  0.28870  0.37660  0.43080  1.0000
  C   C156      1.0  0.71130  0.87660  0.06920  1.0000
  H   H81       1.0  0.64323  0.61067  0.56669  1.0000
  H   H82       1.0  0.35677  0.11067  0.93331  1.0000
  H   H83       1.0  0.35677  0.38933  0.43331  1.0000
  H   H84       1.0  0.64323  0.88933  0.06669  1.0000
  C   C157      1.0  0.72550  0.58220  0.83850  1.0000
  C   C158      1.0  0.27450  0.08220  0.66150  1.0000
  C   C159      1.0  0.27450  0.41780  0.16150  1.0000
  C   C160      1.0  0.72550  0.91780  0.33850  1.0000
  H   H85       1.0  0.66764  0.58936  0.85926  1.0000
  H   H86       1.0  0.33236  0.08936  0.64074  1.0000
  H   H87       1.0  0.33236  0.41064  0.14074  1.0000
  H   H88       1.0  0.66764  0.91064  0.35926  1.0000
  C   C161      1.0  0.79250  0.41810  0.85120  1.0000
  C   C162      1.0  0.20750  0.91810  0.64880  1.0000
  C   C163      1.0  0.20750  0.58190  0.14880  1.0000
  C   C164      1.0  0.79250  0.08190  0.35120  1.0000
  H   H89       1.0  0.85450  0.41375  0.90733  1.0000
  H   H90       1.0  0.14550  0.91375  0.59267  1.0000
  H   H91       1.0  0.14550  0.58625  0.09267  1.0000
  H   H92       1.0  0.85450  0.08625  0.40733  1.0000
  C   C165      1.0  0.63640  0.46860  0.29250  1.0000
  C   C166      1.0  0.36360  0.96860  0.20750  1.0000
  C   C167      1.0  0.36360  0.53140  0.70750  1.0000
  C   C168      1.0  0.63640  0.03140  0.79250  1.0000
  H   H93       1.0  0.59783  0.49541  0.28882  1.0000
  H   H94       1.0  0.40217  0.99541  0.21118  1.0000
  H   H95       1.0  0.40217  0.50459  0.71118  1.0000
  H   H96       1.0  0.59783  0.00459  0.78882  1.0000
  C   C169      1.0  0.92330  0.63130  0.23790  1.0000
  C   C170      1.0  0.07670  0.13130  0.26210  1.0000
  C   C171      1.0  0.07670  0.36870  0.76210  1.0000
  C   C172      1.0  0.92330  0.86870  0.73790  1.0000
  C   C173      1.0  0.91560  0.66140  0.57750  1.0000
  C   C174      1.0  0.08440  0.16140  0.92250  1.0000
  C   C175      1.0  0.08440  0.33860  0.42250  1.0000
  C   C176      1.0  0.91560  0.83860  0.07750  1.0000
  H   H97       1.0  0.98357  0.67432  0.58006  1.0000
  H   H98       1.0  0.01643  0.17432  0.91994  1.0000
  H   H99       1.0  0.01643  0.32568  0.41994  1.0000
  H   H100      1.0  0.98357  0.82568  0.08006  1.0000
  C   C177      1.0  0.67710  0.36920  0.91330  1.0000
  C   C178      1.0  0.32290  0.86920  0.58670  1.0000
  C   C179      1.0  0.32290  0.63080  0.08670  1.0000
  C   C180      1.0  0.67710  0.13080  0.41330  1.0000
  C   C181      1.0  0.70050  0.55670  0.75680  1.0000
  C   C182      1.0  0.29950  0.05670  0.74320  1.0000
  C   C183      1.0  0.29950  0.44330  0.24320  1.0000
  C   C184      1.0  0.70050  0.94330  0.25680  1.0000
  H   H101      1.0  0.62621  0.54691  0.72367  1.0000
  H   H102      1.0  0.37379  0.04691  0.77633  1.0000
  H   H103      1.0  0.37379  0.45309  0.27633  1.0000
  H   H104      1.0  0.62621  0.95309  0.22367  1.0000
  C   C185      1.0  0.18240  0.78520  0.70010  1.0000
  C   C186      1.0  0.81760  0.28520  0.79990  1.0000
  C   C187      1.0  0.81760  0.21480  0.29990  1.0000
  C   C188      1.0  0.18240  0.71480  0.20010  1.0000
  C   C189      1.0  0.39620  0.21440  0.17530  1.0000
  C   C190      1.0  0.60380  0.71440  0.32470  1.0000
  C   C191      1.0  0.60380  0.78560  0.82470  1.0000
  C   C192      1.0  0.39620  0.28560  0.67530  1.0000
  H   H105      1.0  0.43134  0.20758  0.24098  1.0000
  H   H106      1.0  0.56866  0.70758  0.25902  1.0000
  H   H107      1.0  0.56866  0.79242  0.75902  1.0000
  H   H108      1.0  0.43134  0.29242  0.74098  1.0000
  H   H109      1.0  0.44814  0.20742  0.14541  1.0000
  H   H110      1.0  0.55186  0.70742  0.35459  1.0000
  H   H111      1.0  0.55186  0.79258  0.85459  1.0000
  H   H112      1.0  0.44814  0.29258  0.64541  1.0000
  H   H113      1.0  0.32782  0.19697  0.14744  1.0000
  H   H114      1.0  0.67218  0.69697  0.35256  1.0000
  H   H115      1.0  0.67218  0.80303  0.85256  1.0000
  H   H116      1.0  0.32782  0.30303  0.64744  1.0000
  C   C193      1.0  0.29430  0.76180  0.73320  1.0000
  C   C194      1.0  0.70570  0.26180  0.76680  1.0000
  C   C195      1.0  0.70570  0.23820  0.26680  1.0000
  C   C196      1.0  0.29430  0.73820  0.23320  1.0000
  H   H117      1.0  0.28430  0.73223  0.70701  1.0000
  H   H118      1.0  0.71570  0.23223  0.79299  1.0000
  H   H119      1.0  0.71570  0.26777  0.29299  1.0000
  H   H120      1.0  0.28430  0.76777  0.20701  1.0000
  H   H121      1.0  0.32440  0.75984  0.80044  1.0000
  H   H122      1.0  0.67560  0.25984  0.69956  1.0000
  H   H123      1.0  0.67560  0.24016  0.19956  1.0000
  H   H124      1.0  0.32440  0.74016  0.30044  1.0000
  H   H125      1.0  0.34657  0.77819  0.71367  1.0000
  H   H126      1.0  0.65343  0.27819  0.78633  1.0000
  H   H127      1.0  0.65343  0.22181  0.28633  1.0000
  H   H128      1.0  0.34657  0.72181  0.21367  1.0000
  C   C197      1.0  0.28730  0.27780  0.20740  1.0000
  C   C198      1.0  0.71270  0.77780  0.29260  1.0000
  C   C199      1.0  0.71270  0.72220  0.79260  1.0000
  C   C200      1.0  0.28730  0.22220  0.70740  1.0000
  H   H129      1.0  0.21610  0.26203  0.18050  1.0000
  H   H130      1.0  0.78390  0.76203  0.31950  1.0000
  H   H131      1.0  0.78390  0.73797  0.81950  1.0000
  H   H132      1.0  0.21610  0.23797  0.68050  1.0000
  H   H133      1.0  0.27422  0.30927  0.19614  1.0000
  H   H134      1.0  0.72578  0.80927  0.30386  1.0000
  H   H135      1.0  0.72578  0.69073  0.80386  1.0000
  H   H136      1.0  0.27422  0.19073  0.69614  1.0000
  H   H137      1.0  0.32027  0.27237  0.27378  1.0000
  H   H138      1.0  0.67973  0.77237  0.22622  1.0000
  H   H139      1.0  0.67973  0.72763  0.72622  1.0000
  H   H140      1.0  0.32027  0.22763  0.77378  1.0000
  C   C201      1.0  0.40700  0.28790  0.11680  1.0000
  C   C202      1.0  0.59300  0.78790  0.38320  1.0000
  C   C203      1.0  0.59300  0.71210  0.88320  1.0000
  C   C204      1.0  0.40700  0.21210  0.61680  1.0000
  H   H141      1.0  0.38131  0.31737  0.10804  1.0000
  H   H142      1.0  0.61869  0.81737  0.39196  1.0000
  H   H143      1.0  0.61869  0.68263  0.89196  1.0000
  H   H144      1.0  0.38131  0.18263  0.60804  1.0000
  C   C205      1.0  0.83240  0.73860  0.57710  1.0000
  C   C206      1.0  0.16760  0.23860  0.92290  1.0000
  C   C207      1.0  0.16760  0.26140  0.42290  1.0000
  C   C208      1.0  0.83240  0.76140  0.07710  1.0000
  C   C209      1.0  0.86170  0.62800  0.96710  1.0000
  C   C210      1.0  0.13830  0.12800  0.53290  1.0000
  C   C211      1.0  0.13830  0.37200  0.03290  1.0000
  C   C212      1.0  0.86170  0.87200  0.46710  1.0000
