data_image0
_chemical_formula_structural       Bi4O32C16
_chemical_formula_sum              "Bi4 O32 C16"
_cell_length_a       11.7026
_cell_length_b       11.7026
_cell_length_c       9.2233
_cell_angle_alpha    90
_cell_angle_beta     90
_cell_angle_gamma    90

_space_group_name_H-M_alt    "P 1"
_space_group_IT_number       1

loop_
  _space_group_symop_operation_xyz
  'x, y, z'

loop_
  _atom_site_type_symbol
  _atom_site_label
  _atom_site_symmetry_multiplicity
  _atom_site_fract_x
  _atom_site_fract_y
  _atom_site_fract_z
  _atom_site_occupancy
  Bi  Bi1       1.0  0.50000  0.25000  0.62500  1.0000
  Bi  Bi2       1.0  0.00000  0.25000  0.87500  1.0000
  Bi  Bi3       1.0  0.50000  0.75000  0.37500  1.0000
  Bi  Bi4       1.0  0.00000  0.75000  0.12500  1.0000
  O   O1        1.0  0.50000  0.13000  0.40820  1.0000
  O   O2        1.0  0.12000  0.25000  0.65820  1.0000
  O   O3        1.0  0.38000  0.75000  0.15820  1.0000
  O   O4        1.0  0.38000  0.25000  0.84180  1.0000
  O   O5        1.0  0.00000  0.63000  0.90820  1.0000
  O   O6        1.0  0.62000  0.75000  0.15820  1.0000
  O   O7        1.0  0.88000  0.25000  0.65820  1.0000
  O   O8        1.0  0.88000  0.75000  0.34180  1.0000
  O   O9        1.0  0.50000  0.37000  0.40820  1.0000
  O   O10       1.0  0.50000  0.87000  0.59180  1.0000
  O   O11       1.0  0.50000  0.63000  0.59180  1.0000
  O   O12       1.0  0.12000  0.75000  0.34180  1.0000
  O   O13       1.0  0.00000  0.87000  0.90820  1.0000
  O   O14       1.0  0.00000  0.37000  0.09180  1.0000
  O   O15       1.0  0.00000  0.13000  0.09180  1.0000
  O   O16       1.0  0.62000  0.25000  0.84180  1.0000
  O   O17       1.0  0.50000  0.95230  0.32130  1.0000
  O   O18       1.0  0.29770  0.25000  0.57130  1.0000
  O   O19       1.0  0.20230  0.75000  0.07130  1.0000
  O   O20       1.0  0.20230  0.25000  0.92870  1.0000
  O   O21       1.0  0.00000  0.45230  0.82130  1.0000
  O   O22       1.0  0.79770  0.75000  0.07130  1.0000
  O   O23       1.0  0.70230  0.25000  0.57130  1.0000
  O   O24       1.0  0.70230  0.75000  0.42870  1.0000
  O   O25       1.0  0.50000  0.54770  0.32130  1.0000
  O   O26       1.0  0.50000  0.04770  0.67870  1.0000
  O   O27       1.0  0.50000  0.45230  0.67870  1.0000
  O   O28       1.0  0.29770  0.75000  0.42870  1.0000
  O   O29       1.0  0.00000  0.04770  0.82130  1.0000
  O   O30       1.0  0.00000  0.54770  0.17870  1.0000
  O   O31       1.0  0.00000  0.95230  0.17870  1.0000
  O   O32       1.0  0.79770  0.25000  0.92870  1.0000
  C   C1        1.0  0.50000  0.02450  0.42230  1.0000
  C   C2        1.0  0.22550  0.25000  0.67230  1.0000
  C   C3        1.0  0.27450  0.75000  0.17230  1.0000
  C   C4        1.0  0.27450  0.25000  0.82770  1.0000
  C   C5        1.0  0.00000  0.52450  0.92230  1.0000
  C   C6        1.0  0.72550  0.75000  0.17230  1.0000
  C   C7        1.0  0.77450  0.25000  0.67230  1.0000
  C   C8        1.0  0.77450  0.75000  0.32770  1.0000
  C   C9        1.0  0.50000  0.47550  0.42230  1.0000
  C   C10       1.0  0.50000  0.97550  0.57770  1.0000
  C   C11       1.0  0.50000  0.52450  0.57770  1.0000
  C   C12       1.0  0.22550  0.75000  0.32770  1.0000
  C   C13       1.0  0.00000  0.97550  0.92230  1.0000
  C   C14       1.0  0.00000  0.47550  0.07770  1.0000
  C   C15       1.0  0.00000  0.02450  0.07770  1.0000
  C   C16       1.0  0.72550  0.25000  0.82770  1.0000
