data_image0
_chemical_formula_structural       Ru4C4N4Sn4C4H12C4H12C4H12O4H8C4N4Sn4C4H12C4H12C4H12C4N4Sn4C4H12C4H12C4H12C4N4C4N4C4N4
_chemical_formula_sum              "Ru4 C60 N24 Sn12 H116 O4"
_cell_length_a       19.6714
_cell_length_b       12.7066
_cell_length_c       19.3392
_cell_angle_alpha    90
_cell_angle_beta     90
_cell_angle_gamma    90

_space_group_name_H-M_alt    "P 1"
_space_group_IT_number       1

loop_
  _space_group_symop_operation_xyz
  'x, y, z'

loop_
  _atom_site_type_symbol
  _atom_site_label
  _atom_site_symmetry_multiplicity
  _atom_site_fract_x
  _atom_site_fract_y
  _atom_site_fract_z
  _atom_site_occupancy
  Ru  Ru1       1.0  0.50944  0.37008  0.00186  1.0000
  Ru  Ru2       1.0  0.49056  0.62992  0.50186  1.0000
  Ru  Ru3       1.0  0.00944  0.62992  0.00186  1.0000
  Ru  Ru4       1.0  0.99056  0.37008  0.50186  1.0000
  C   C1        1.0  0.51234  0.52890  0.99610  1.0000
  C   C2        1.0  0.48766  0.47110  0.49610  1.0000
  C   C3        1.0  0.01234  0.47110  0.99610  1.0000
  C   C4        1.0  0.98766  0.52890  0.49610  1.0000
  N   N1        1.0  0.51310  0.61930  0.99010  1.0000
  N   N2        1.0  0.48690  0.38070  0.49010  1.0000
  N   N3        1.0  0.01310  0.38070  0.99010  1.0000
  N   N4        1.0  0.98690  0.61930  0.49010  1.0000
  Sn  Sn1       1.0  0.52723  0.78786  0.96321  1.0000
  Sn  Sn2       1.0  0.47277  0.21214  0.46321  1.0000
  Sn  Sn3       1.0  0.02723  0.21214  0.96321  1.0000
  Sn  Sn4       1.0  0.97277  0.78786  0.46321  1.0000
  C   C5        1.0  0.42190  0.81850  0.94450  1.0000
  C   C6        1.0  0.57810  0.18150  0.44450  1.0000
  C   C7        1.0  0.92190  0.18150  0.94450  1.0000
  C   C8        1.0  0.07810  0.81850  0.44450  1.0000
  H   H1        1.0  0.41720  0.86400  0.90390  1.0000
  H   H2        1.0  0.58280  0.13600  0.40390  1.0000
  H   H3        1.0  0.91720  0.13600  0.90390  1.0000
  H   H4        1.0  0.08280  0.86400  0.40390  1.0000
  H   H5        1.0  0.40210  0.85370  0.98490  1.0000
  H   H6        1.0  0.59790  0.14630  0.48490  1.0000
  H   H7        1.0  0.90210  0.14630  0.98490  1.0000
  H   H8        1.0  0.09790  0.85370  0.48490  1.0000
  H   H9        1.0  0.39810  0.75190  0.93630  1.0000
  H   H10       1.0  0.60190  0.24810  0.43630  1.0000
  H   H11       1.0  0.89810  0.24810  0.93630  1.0000
  H   H12       1.0  0.10190  0.75190  0.43630  1.0000
  C   C9        1.0  0.59460  0.75340  0.88140  1.0000
  C   C10       1.0  0.40540  0.24660  0.38140  1.0000
  C   C11       1.0  0.09460  0.24660  0.88140  1.0000
  C   C12       1.0  0.90540  0.75340  0.38140  1.0000
  H   H13       1.0  0.63930  0.78390  0.89140  1.0000
  H   H14       1.0  0.36070  0.21610  0.39140  1.0000
  H   H15       1.0  0.13930  0.21610  0.89140  1.0000
  H   H16       1.0  0.86070  0.78390  0.39140  1.0000
  H   H17       1.0  0.57690  0.78330  0.83830  1.0000
  H   H18       1.0  0.42310  0.21670  0.33830  1.0000
  H   H19       1.0  0.07690  0.21670  0.83830  1.0000
  H   H20       1.0  0.92310  0.78330  0.33830  1.0000
  H   H21       1.0  0.59890  0.67690  0.87650  1.0000
  H   H22       1.0  0.40110  0.32310  0.37650  1.0000
  H   H23       1.0  0.09890  0.32310  0.87650  1.0000
  H   H24       1.0  0.90110  0.67690  0.37650  1.0000
  C   C13       1.0  0.56450  0.83630  0.06080  1.0000
  C   C14       1.0  0.43550  0.16370  0.56080  1.0000
  C   C15       1.0  0.06450  0.16370  0.06080  1.0000
  C   C16       1.0  0.93550  0.83630  0.56080  1.0000
  H   H25       1.0  0.60620  0.79730  0.07160  1.0000
  H   H26       1.0  0.39380  0.20270  0.57160  1.0000
  H   H27       1.0  0.10620  0.20270  0.07160  1.0000
  H   H28       1.0  0.89380  0.79730  0.57160  1.0000
  H   H29       1.0  0.53020  0.82220  0.09640  1.0000
  H   H30       1.0  0.46980  0.17780  0.59640  1.0000
  H   H31       1.0  0.03020  0.17780  0.09640  1.0000
  H   H32       1.0  0.96980  0.82220  0.59640  1.0000
  H   H33       1.0  0.57450  0.91180  0.05960  1.0000
  H   H34       1.0  0.42550  0.08820  0.55960  1.0000
  H   H35       1.0  0.07450  0.08820  0.05960  1.0000
  H   H36       1.0  0.92550  0.91180  0.55960  1.0000
  O   O1        1.0  0.54300  0.96520  0.92320  1.0000
  O   O2        1.0  0.45700  0.03480  0.42320  1.0000
  O   O3        1.0  0.04300  0.03480  0.92320  1.0000
  O   O4        1.0  0.95700  0.96520  0.42320  1.0000
  H   H37       1.0  0.57650  0.99500  0.90500  1.0000
  H   H38       1.0  0.42350  0.00500  0.40500  1.0000
  H   H39       1.0  0.07650  0.00500  0.90500  1.0000
  H   H40       1.0  0.92350  0.99500  0.40500  1.0000
  H   H41       1.0  0.52290  0.01300  0.94500  1.0000
  H   H42       1.0  0.47710  0.98700  0.44500  1.0000
  H   H43       1.0  0.02290  0.98700  0.94500  1.0000
  H   H44       1.0  0.97710  0.01300  0.44500  1.0000
  C   C17       1.0  0.49850  0.37070  0.10480  1.0000
  C   C18       1.0  0.50150  0.62930  0.60480  1.0000
  C   C19       1.0  0.99850  0.62930  0.10480  1.0000
  C   C20       1.0  0.00150  0.37070  0.60480  1.0000
  N   N5        1.0  0.49140  0.37150  0.16410  1.0000
  N   N6        1.0  0.50860  0.62850  0.66410  1.0000
  N   N7        1.0  0.99140  0.62850  0.16410  1.0000
  N   N8        1.0  0.00860  0.37150  0.66410  1.0000
  Sn  Sn5       1.0  0.48425  0.49427  0.25043  1.0000
  Sn  Sn6       1.0  0.51575  0.50573  0.75043  1.0000
  Sn  Sn7       1.0  0.98425  0.50573  0.25043  1.0000
  Sn  Sn8       1.0  0.01575  0.49427  0.75043  1.0000
  C   C21       1.0  0.38000  0.46370  0.26070  1.0000
  C   C22       1.0  0.62000  0.53630  0.76070  1.0000
  C   C23       1.0  0.88000  0.53630  0.26070  1.0000
  C   C24       1.0  0.12000  0.46370  0.76070  1.0000
  H   H45       1.0  0.37240  0.38750  0.26220  1.0000
  H   H46       1.0  0.62760  0.61250  0.76220  1.0000
  H   H47       1.0  0.87240  0.61250  0.26220  1.0000
  H   H48       1.0  0.12760  0.38750  0.76220  1.0000
  H   H49       1.0  0.35550  0.49380  0.22120  1.0000
  H   H50       1.0  0.64450  0.50620  0.72120  1.0000
  H   H51       1.0  0.85550  0.50620  0.22120  1.0000
  H   H52       1.0  0.14450  0.49380  0.72120  1.0000
  H   H53       1.0  0.36320  0.49560  0.30360  1.0000
  H   H54       1.0  0.63680  0.50440  0.80360  1.0000
  H   H55       1.0  0.86320  0.50440  0.30360  1.0000
  H   H56       1.0  0.13680  0.49560  0.80360  1.0000
  C   C25       1.0  0.51180  0.61290  0.17780  1.0000
  C   C26       1.0  0.48820  0.38710  0.67780  1.0000
  C   C27       1.0  0.01180  0.38710  0.17780  1.0000
  C   C28       1.0  0.98820  0.61290  0.67780  1.0000
  H   H57       1.0  0.48260  0.60750  0.13690  1.0000
  H   H58       1.0  0.51740  0.39250  0.63690  1.0000
  H   H59       1.0  0.98260  0.39250  0.13690  1.0000
  H   H60       1.0  0.01740  0.60750  0.63690  1.0000
  H   H61       1.0  0.55940  0.60340  0.16420  1.0000
  H   H62       1.0  0.44060  0.39660  0.66420  1.0000
  H   H63       1.0  0.05940  0.39660  0.16420  1.0000
  H   H64       1.0  0.94060  0.60340  0.66420  1.0000
  H   H65       1.0  0.50610  0.68240  0.19900  1.0000
  H   H66       1.0  0.49390  0.31760  0.69900  1.0000
  H   H67       1.0  0.00610  0.31760  0.19900  1.0000
  H   H68       1.0  0.99390  0.68240  0.69900  1.0000
  C   C29       1.0  0.55960  0.41150  0.30730  1.0000
  C   C30       1.0  0.44040  0.58850  0.80730  1.0000
  C   C31       1.0  0.05960  0.58850  0.30730  1.0000
  C   C32       1.0  0.94040  0.41150  0.80730  1.0000
  H   H69       1.0  0.56610  0.44550  0.35240  1.0000
  H   H70       1.0  0.43390  0.55450  0.85240  1.0000
  H   H71       1.0  0.06610  0.55450  0.35240  1.0000
  H   H72       1.0  0.93390  0.44550  0.85240  1.0000
  H   H73       1.0  0.60250  0.41240  0.28160  1.0000
  H   H74       1.0  0.39750  0.58760  0.78160  1.0000
  H   H75       1.0  0.10250  0.58760  0.28160  1.0000
  H   H76       1.0  0.89750  0.41240  0.78160  1.0000
  H   H77       1.0  0.54490  0.33860  0.31430  1.0000
  H   H78       1.0  0.45510  0.66140  0.81430  1.0000
  H   H79       1.0  0.04490  0.66140  0.31430  1.0000
  H   H80       1.0  0.95510  0.33860  0.81430  1.0000
  C   C33       1.0  0.61240  0.36840  0.01110  1.0000
  C   C34       1.0  0.38760  0.63160  0.51110  1.0000
  C   C35       1.0  0.11240  0.63160  0.01110  1.0000
  C   C36       1.0  0.88760  0.36840  0.51110  1.0000
  N   N9        1.0  0.67099  0.37400  0.01410  1.0000
  N   N10       1.0  0.32901  0.62600  0.51410  1.0000
  N   N11       1.0  0.17099  0.62600  0.01410  1.0000
  N   N12       1.0  0.82901  0.37400  0.51410  1.0000
  Sn  Sn9       1.0  0.76104  0.49001  0.99730  1.0000
  Sn  Sn10      1.0  0.23896  0.50999  0.49730  1.0000
  Sn  Sn11      1.0  0.26104  0.50999  0.99730  1.0000
  Sn  Sn12      1.0  0.73896  0.49001  0.49730  1.0000
  C   C37       1.0  0.69700  0.61060  0.03460  1.0000
  C   C38       1.0  0.30300  0.38940  0.53460  1.0000
  C   C39       1.0  0.19700  0.38940  0.03460  1.0000
  C   C40       1.0  0.80300  0.61060  0.53460  1.0000
  H   H81       1.0  0.68820  0.59940  0.08390  1.0000
  H   H82       1.0  0.31180  0.40060  0.58390  1.0000
  H   H83       1.0  0.18820  0.40060  0.08390  1.0000
  H   H84       1.0  0.81180  0.59940  0.58390  1.0000
  H   H85       1.0  0.65390  0.60940  0.00910  1.0000
  H   H86       1.0  0.34610  0.39060  0.50910  1.0000
  H   H87       1.0  0.15390  0.39060  0.00910  1.0000
  H   H88       1.0  0.84610  0.60940  0.50910  1.0000
  H   H89       1.0  0.71920  0.67890  0.02800  1.0000
  H   H90       1.0  0.28080  0.32110  0.52800  1.0000
  H   H91       1.0  0.21920  0.32110  0.02800  1.0000
  H   H92       1.0  0.78080  0.67890  0.52800  1.0000
  C   C41       1.0  0.82540  0.39880  0.06160  1.0000
  C   C42       1.0  0.17460  0.60120  0.56160  1.0000
  C   C43       1.0  0.32540  0.60120  0.06160  1.0000
  C   C44       1.0  0.67460  0.39880  0.56160  1.0000
  H   H93       1.0  0.87230  0.40310  0.04460  1.0000
  H   H94       1.0  0.12770  0.59690  0.54460  1.0000
  H   H95       1.0  0.37230  0.59690  0.04460  1.0000
  H   H96       1.0  0.62770  0.40310  0.54460  1.0000
  H   H97       1.0  0.81040  0.32520  0.06100  1.0000
  H   H98       1.0  0.18960  0.67480  0.56100  1.0000
  H   H99       1.0  0.31040  0.67480  0.06100  1.0000
  H   H100      1.0  0.68960  0.32520  0.56100  1.0000
  H   H101      1.0  0.82340  0.42580  0.10910  1.0000
  H   H102      1.0  0.17660  0.57420  0.60910  1.0000
  H   H103      1.0  0.32340  0.57420  0.10910  1.0000
  H   H104      1.0  0.67660  0.42580  0.60910  1.0000
  C   C45       1.0  0.76310  0.44980  0.89020  1.0000
  C   C46       1.0  0.23690  0.55020  0.39020  1.0000
  C   C47       1.0  0.26310  0.55020  0.89020  1.0000
  C   C48       1.0  0.73690  0.44980  0.39020  1.0000
  H   H105      1.0  0.72260  0.40840  0.87870  1.0000
  H   H106      1.0  0.27740  0.59160  0.37870  1.0000
  H   H107      1.0  0.22260  0.59160  0.87870  1.0000
  H   H108      1.0  0.77740  0.40840  0.37870  1.0000
  H   H109      1.0  0.80400  0.40830  0.88030  1.0000
  H   H110      1.0  0.19600  0.59170  0.38030  1.0000
  H   H111      1.0  0.30400  0.59170  0.88030  1.0000
  H   H112      1.0  0.69600  0.40830  0.38030  1.0000
  H   H113      1.0  0.76370  0.51420  0.86230  1.0000
  H   H114      1.0  0.23630  0.48580  0.36230  1.0000
  H   H115      1.0  0.26370  0.48580  0.86230  1.0000
  H   H116      1.0  0.73630  0.51420  0.36230  1.0000
  C   C49       1.0  0.50720  0.20970  0.00650  1.0000
  C   C50       1.0  0.49280  0.79030  0.50650  1.0000
  C   C51       1.0  0.00720  0.79030  0.00650  1.0000
  C   C52       1.0  0.99280  0.20970  0.50650  1.0000
  N   N13       1.0  0.50542  0.11880  0.01010  1.0000
  N   N14       1.0  0.49458  0.88120  0.51010  1.0000
  N   N15       1.0  0.00542  0.88120  0.01010  1.0000
  N   N16       1.0  0.99458  0.11880  0.51010  1.0000
  C   C53       1.0  0.51880  0.37340  0.89760  1.0000
  C   C54       1.0  0.48120  0.62660  0.39760  1.0000
  C   C55       1.0  0.01880  0.62660  0.89760  1.0000
  C   C56       1.0  0.98120  0.37340  0.39760  1.0000
  N   N17       1.0  0.52290  0.38450  0.83820  1.0000
  N   N18       1.0  0.47710  0.61550  0.33820  1.0000
  N   N19       1.0  0.02290  0.61550  0.83820  1.0000
  N   N20       1.0  0.97710  0.38450  0.33820  1.0000
  C   C57       1.0  0.40708  0.37950  0.99100  1.0000
  C   C58       1.0  0.59292  0.62050  0.49100  1.0000
  C   C59       1.0  0.90708  0.62050  0.99100  1.0000
  C   C60       1.0  0.09292  0.37950  0.49100  1.0000
  N   N21       1.0  0.34976  0.39300  0.98460  1.0000
  N   N22       1.0  0.65024  0.60700  0.48460  1.0000
  N   N23       1.0  0.84976  0.60700  0.98460  1.0000
  N   N24       1.0  0.15024  0.39300  0.48460  1.0000
