data_image0
_chemical_formula_structural       Ru4C4N4Sn4C4H12C4H12C4H12C4N4Sn4C4H12C4H12C4H12C4N4C4N4C4N4C4N4Sn4C4H12C4H12C4H12S4C8H4C4H4N4H4C4H4C4H4
_chemical_formula_sum              "Ru4 C80 N28 Sn12 H128 S4"
_cell_length_a       10.779
_cell_length_b       13.439
_cell_length_c       29.549
_cell_angle_alpha    90
_cell_angle_beta     98.136
_cell_angle_gamma    90

_space_group_name_H-M_alt    "P 1"
_space_group_IT_number       1

loop_
  _space_group_symop_operation_xyz
  'x, y, z'

loop_
  _atom_site_type_symbol
  _atom_site_label
  _atom_site_symmetry_multiplicity
  _atom_site_fract_x
  _atom_site_fract_y
  _atom_site_fract_z
  _atom_site_occupancy
  Ru  Ru1       1.0  0.81822  0.82239  0.11444  1.0000
  Ru  Ru2       1.0  0.31822  0.67761  0.61444  1.0000
  Ru  Ru3       1.0  0.18178  0.17761  0.88556  1.0000
  Ru  Ru4       1.0  0.68178  0.32239  0.38556  1.0000
  C   C1        1.0  0.00680  0.82140  0.12463  1.0000
  C   C2        1.0  0.50680  0.67860  0.62463  1.0000
  C   C3        1.0  0.99320  0.17860  0.87537  1.0000
  C   C4        1.0  0.49320  0.32140  0.37537  1.0000
  N   N1        1.0  0.11470  0.81960  0.13060  1.0000
  N   N2        1.0  0.61470  0.68040  0.63060  1.0000
  N   N3        1.0  0.88530  0.18040  0.86940  1.0000
  N   N4        1.0  0.38530  0.31960  0.36940  1.0000
  Sn  Sn1       1.0  0.31735  0.81402  0.11654  1.0000
  Sn  Sn2       1.0  0.81735  0.68598  0.61654  1.0000
  Sn  Sn3       1.0  0.68265  0.18598  0.88346  1.0000
  Sn  Sn4       1.0  0.18265  0.31402  0.38346  1.0000
  C   C5        1.0  0.36510  0.93110  0.16220  1.0000
  C   C6        1.0  0.86510  0.56890  0.66220  1.0000
  C   C7        1.0  0.63490  0.06890  0.83780  1.0000
  C   C8        1.0  0.13490  0.43110  0.33780  1.0000
  H   H1        1.0  0.36040  0.99290  0.14570  1.0000
  H   H2        1.0  0.86040  0.50710  0.64570  1.0000
  H   H3        1.0  0.63960  0.00710  0.85430  1.0000
  H   H4        1.0  0.13960  0.49290  0.35430  1.0000
  H   H5        1.0  0.44890  0.92160  0.17750  1.0000
  H   H6        1.0  0.94890  0.57840  0.67750  1.0000
  H   H7        1.0  0.55110  0.07840  0.82250  1.0000
  H   H8        1.0  0.05110  0.42160  0.32250  1.0000
  H   H9        1.0  0.30790  0.93270  0.18430  1.0000
  H   H10       1.0  0.80790  0.56730  0.68430  1.0000
  H   H11       1.0  0.69210  0.06730  0.81570  1.0000
  H   H12       1.0  0.19210  0.43270  0.31570  1.0000
  C   C9        1.0  0.25170  0.84910  0.04774  1.0000
  C   C10       1.0  0.75170  0.65090  0.54774  1.0000
  C   C11       1.0  0.74830  0.15090  0.95226  1.0000
  C   C12       1.0  0.24830  0.34910  0.45226  1.0000
  H   H13       1.0  0.20780  0.91140  0.04630  1.0000
  H   H14       1.0  0.70780  0.58860  0.54630  1.0000
  H   H15       1.0  0.79220  0.08860  0.95370  1.0000
  H   H16       1.0  0.29220  0.41140  0.45370  1.0000
  H   H17       1.0  0.19600  0.79770  0.03460  1.0000
  H   H18       1.0  0.69600  0.70230  0.53460  1.0000
  H   H19       1.0  0.80400  0.20230  0.96540  1.0000
  H   H20       1.0  0.30400  0.29770  0.46540  1.0000
  H   H21       1.0  0.32150  0.85410  0.03100  1.0000
  H   H22       1.0  0.82150  0.64590  0.53100  1.0000
  H   H23       1.0  0.67850  0.14590  0.96900  1.0000
  H   H24       1.0  0.17850  0.35410  0.46900  1.0000
  C   C13       1.0  0.33060  0.66150  0.13430  1.0000
  C   C14       1.0  0.83060  0.83850  0.63430  1.0000
  C   C15       1.0  0.66940  0.33850  0.86570  1.0000
  C   C16       1.0  0.16940  0.16150  0.36570  1.0000
  H   H25       1.0  0.25190  0.62940  0.12430  1.0000
  H   H26       1.0  0.75190  0.87060  0.62430  1.0000
  H   H27       1.0  0.74810  0.37060  0.87570  1.0000
  H   H28       1.0  0.24810  0.12940  0.37570  1.0000
  H   H29       1.0  0.35070  0.65510  0.16690  1.0000
  H   H30       1.0  0.85070  0.84490  0.66690  1.0000
  H   H31       1.0  0.64930  0.34490  0.83310  1.0000
  H   H32       1.0  0.14930  0.15510  0.33310  1.0000
  H   H33       1.0  0.39510  0.63080  0.11980  1.0000
  H   H34       1.0  0.89510  0.86920  0.61980  1.0000
  H   H35       1.0  0.60490  0.36920  0.88020  1.0000
  H   H36       1.0  0.10490  0.13080  0.38020  1.0000
  C   C17       1.0  0.81420  0.94060  0.15609  1.0000
  C   C18       1.0  0.31420  0.55940  0.65609  1.0000
  C   C19       1.0  0.18580  0.05940  0.84391  1.0000
  C   C20       1.0  0.68580  0.44060  0.34391  1.0000
  N   N5        1.0  0.80920  0.00880  0.17959  1.0000
  N   N6        1.0  0.30920  0.49120  0.67959  1.0000
  N   N7        1.0  0.19080  0.99120  0.82041  1.0000
  N   N8        1.0  0.69080  0.50880  0.32041  1.0000
  Sn  Sn5       1.0  0.74696  0.09705  0.23987  1.0000
  Sn  Sn6       1.0  0.24696  0.40295  0.73987  1.0000
  Sn  Sn7       1.0  0.25304  0.90295  0.76013  1.0000
  Sn  Sn8       1.0  0.75304  0.59705  0.26013  1.0000
  C   C21       1.0  0.70700  0.96060  0.27060  1.0000
  C   C22       1.0  0.20700  0.53940  0.77060  1.0000
  C   C23       1.0  0.29300  0.03940  0.72940  1.0000
  C   C24       1.0  0.79300  0.46060  0.22940  1.0000
  H   H37       1.0  0.78060  0.91950  0.27450  1.0000
  H   H38       1.0  0.28060  0.58050  0.77450  1.0000
  H   H39       1.0  0.21940  0.08050  0.72550  1.0000
  H   H40       1.0  0.71940  0.41950  0.22550  1.0000
  H   H41       1.0  0.64060  0.92700  0.25150  1.0000
  H   H42       1.0  0.14060  0.57300  0.75150  1.0000
  H   H43       1.0  0.35940  0.07300  0.74850  1.0000
  H   H44       1.0  0.85940  0.42700  0.24850  1.0000
  H   H45       1.0  0.68160  0.97340  0.30000  1.0000
  H   H46       1.0  0.18160  0.52660  0.80000  1.0000
  H   H47       1.0  0.31840  0.02660  0.70000  1.0000
  H   H48       1.0  0.81840  0.47340  0.20000  1.0000
  C   C25       1.0  0.92300  0.16560  0.25300  1.0000
  C   C26       1.0  0.42300  0.33440  0.75300  1.0000
  C   C27       1.0  0.07700  0.83440  0.74700  1.0000
  C   C28       1.0  0.57700  0.66560  0.24700  1.0000
  H   H49       1.0  0.98710  0.11810  0.24900  1.0000
  H   H50       1.0  0.48710  0.38190  0.74900  1.0000
  H   H51       1.0  0.01290  0.88190  0.75100  1.0000
  H   H52       1.0  0.51290  0.61810  0.25100  1.0000
  H   H53       1.0  0.93610  0.19000  0.28390  1.0000
  H   H54       1.0  0.43610  0.31000  0.78390  1.0000
  H   H55       1.0  0.06390  0.81000  0.71610  1.0000
  H   H56       1.0  0.56390  0.69000  0.21610  1.0000
  H   H57       1.0  0.92650  0.22010  0.23220  1.0000
  H   H58       1.0  0.42650  0.27990  0.73220  1.0000
  H   H59       1.0  0.07350  0.77990  0.76780  1.0000
  H   H60       1.0  0.57350  0.72010  0.26780  1.0000
  C   C29       1.0  0.61260  0.17470  0.19320  1.0000
  C   C30       1.0  0.11260  0.32530  0.69320  1.0000
  C   C31       1.0  0.38740  0.82530  0.80680  1.0000
  C   C32       1.0  0.88740  0.67470  0.30680  1.0000
  H   H61       1.0  0.56280  0.21660  0.20990  1.0000
  H   H62       1.0  0.06280  0.28340  0.70990  1.0000
  H   H63       1.0  0.43720  0.78340  0.79010  1.0000
  H   H64       1.0  0.93720  0.71660  0.29010  1.0000
  H   H65       1.0  0.55920  0.12770  0.17530  1.0000
  H   H66       1.0  0.05920  0.37230  0.67530  1.0000
  H   H67       1.0  0.44080  0.87230  0.82470  1.0000
  H   H68       1.0  0.94080  0.62770  0.32470  1.0000
  H   H69       1.0  0.65500  0.21490  0.17330  1.0000
  H   H70       1.0  0.15500  0.28510  0.67330  1.0000
  H   H71       1.0  0.34500  0.78510  0.82670  1.0000
  H   H72       1.0  0.84500  0.71490  0.32670  1.0000
  C   C33       1.0  0.81620  0.70360  0.07262  1.0000
  C   C34       1.0  0.31620  0.79640  0.57262  1.0000
  C   C35       1.0  0.18380  0.29640  0.92738  1.0000
  C   C36       1.0  0.68380  0.20360  0.42738  1.0000
  N   N9        1.0  0.80950  0.63650  0.04789  1.0000
  N   N10       1.0  0.30950  0.86350  0.54789  1.0000
  N   N11       1.0  0.19050  0.36350  0.95211  1.0000
  N   N12       1.0  0.69050  0.13650  0.45211  1.0000
  C   C37       1.0  0.62900  0.81970  0.10570  1.0000
  C   C38       1.0  0.12900  0.68030  0.60570  1.0000
  C   C39       1.0  0.37100  0.18030  0.89430  1.0000
  C   C40       1.0  0.87100  0.31970  0.39430  1.0000
  N   N13       1.0  0.52190  0.81610  0.10110  1.0000
  N   N14       1.0  0.02190  0.68390  0.60110  1.0000
  N   N15       1.0  0.47810  0.18390  0.89890  1.0000
  N   N16       1.0  0.97810  0.31610  0.39890  1.0000
  C   C41       1.0  0.81730  0.73190  0.16889  1.0000
  C   C42       1.0  0.31730  0.76810  0.66889  1.0000
  C   C43       1.0  0.18270  0.26810  0.83111  1.0000
  C   C44       1.0  0.68270  0.23190  0.33111  1.0000
  N   N17       1.0  0.81400  0.68200  0.19937  1.0000
  N   N18       1.0  0.31400  0.81800  0.69937  1.0000
  N   N19       1.0  0.18600  0.31800  0.80063  1.0000
  N   N20       1.0  0.68600  0.18200  0.30063  1.0000
  C   C45       1.0  0.81770  0.91280  0.05989  1.0000
  C   C46       1.0  0.31770  0.58720  0.55989  1.0000
  C   C47       1.0  0.18230  0.08720  0.94011  1.0000
  C   C48       1.0  0.68230  0.41280  0.44011  1.0000
  N   N21       1.0  0.81800  0.96280  0.02824  1.0000
  N   N22       1.0  0.31800  0.53720  0.52824  1.0000
  N   N23       1.0  0.18200  0.03720  0.97176  1.0000
  N   N24       1.0  0.68200  0.46280  0.47176  1.0000
  Sn  Sn9       1.0  0.77401  0.46736  0.06023  1.0000
  Sn  Sn10      1.0  0.27401  0.03264  0.56023  1.0000
  Sn  Sn11      1.0  0.22599  0.53264  0.93977  1.0000
  Sn  Sn12      1.0  0.72599  0.96736  0.43977  1.0000
  C   C49       1.0  0.61060  0.50800  0.08600  1.0000
  C   C50       1.0  0.11060  0.99200  0.58600  1.0000
  C   C51       1.0  0.38940  0.49200  0.91400  1.0000
  C   C52       1.0  0.88940  0.00800  0.41400  1.0000
  H   H73       1.0  0.55890  0.45030  0.08770  1.0000
  H   H74       1.0  0.05890  0.04970  0.58770  1.0000
  H   H75       1.0  0.44110  0.54970  0.91230  1.0000
  H   H76       1.0  0.94110  0.95030  0.41230  1.0000
  H   H77       1.0  0.56570  0.55650  0.06610  1.0000
  H   H78       1.0  0.06570  0.94350  0.56610  1.0000
  H   H79       1.0  0.43430  0.44350  0.93390  1.0000
  H   H80       1.0  0.93430  0.05650  0.43390  1.0000
  H   H81       1.0  0.63200  0.53590  0.11600  1.0000
  H   H82       1.0  0.13200  0.96410  0.61600  1.0000
  H   H83       1.0  0.36800  0.46410  0.88400  1.0000
  H   H84       1.0  0.86800  0.03590  0.38400  1.0000
  C   C53       1.0  0.95050  0.46570  0.09830  1.0000
  C   C54       1.0  0.45050  0.03430  0.59830  1.0000
  C   C55       1.0  0.04950  0.53430  0.90170  1.0000
  C   C56       1.0  0.54950  0.96570  0.40170  1.0000
  H   H85       1.0  0.95250  0.51080  0.12350  1.0000
  H   H86       1.0  0.45250  0.98920  0.62350  1.0000
  H   H87       1.0  0.04750  0.48920  0.87650  1.0000
  H   H88       1.0  0.54750  0.01080  0.37650  1.0000
  H   H89       1.0  0.01150  0.48580  0.07940  1.0000
  H   H90       1.0  0.51150  0.01420  0.57940  1.0000
  H   H91       1.0  0.98850  0.51420  0.92060  1.0000
  H   H92       1.0  0.48850  0.98580  0.42060  1.0000
  H   H93       1.0  0.96950  0.39960  0.10960  1.0000
  H   H94       1.0  0.46950  0.10040  0.60960  1.0000
  H   H95       1.0  0.03050  0.60040  0.89040  1.0000
  H   H96       1.0  0.53050  0.89960  0.39040  1.0000
  C   C57       1.0  0.76470  0.44080  0.98901  1.0000
  C   C58       1.0  0.26470  0.05920  0.48901  1.0000
  C   C59       1.0  0.23530  0.55920  0.01099  1.0000
  C   C60       1.0  0.73530  0.94080  0.51099  1.0000
  H   H97       1.0  0.84010  0.46440  0.97880  1.0000
  H   H98       1.0  0.34010  0.03560  0.47880  1.0000
  H   H99       1.0  0.15990  0.53560  0.02120  1.0000
  H   H100      1.0  0.65990  0.96440  0.52120  1.0000
  H   H101      1.0  0.69390  0.47540  0.97290  1.0000
  H   H102      1.0  0.19390  0.02460  0.47290  1.0000
  H   H103      1.0  0.30610  0.52460  0.02710  1.0000
  H   H104      1.0  0.80610  0.97540  0.52710  1.0000
  H   H105      1.0  0.75580  0.37070  0.98310  1.0000
  H   H106      1.0  0.25580  0.12930  0.48310  1.0000
  H   H107      1.0  0.24420  0.62930  0.01690  1.0000
  H   H108      1.0  0.74420  0.87070  0.51690  1.0000
  S   S1        1.0  0.76137  0.27430  0.08402  1.0000
  S   S2        1.0  0.26137  0.22570  0.58402  1.0000
  S   S3        1.0  0.23863  0.72570  0.91598  1.0000
  S   S4        1.0  0.73863  0.77430  0.41598  1.0000
  C   C61       1.0  0.62550  0.21640  0.06123  1.0000
  C   C62       1.0  0.12550  0.28360  0.56123  1.0000
  C   C63       1.0  0.37450  0.78360  0.93877  1.0000
  C   C64       1.0  0.87450  0.71640  0.43877  1.0000
  C   C65       1.0  0.60470  0.11680  0.07260  1.0000
  C   C66       1.0  0.10470  0.38320  0.57260  1.0000
  C   C67       1.0  0.39530  0.88320  0.92740  1.0000
  C   C68       1.0  0.89530  0.61680  0.42740  1.0000
  H   H109      1.0  0.66430  0.08430  0.09320  1.0000
  H   H110      1.0  0.16430  0.41570  0.59320  1.0000
  H   H111      1.0  0.33570  0.91570  0.90680  1.0000
  H   H112      1.0  0.83570  0.58430  0.40680  1.0000
  C   C69       1.0  0.50180  0.06770  0.05460  1.0000
  C   C70       1.0  0.00180  0.43230  0.55460  1.0000
  C   C71       1.0  0.49820  0.93230  0.94540  1.0000
  C   C72       1.0  0.99820  0.56770  0.44540  1.0000
  H   H113      1.0  0.49080  0.00170  0.06260  1.0000
  H   H114      1.0  0.99080  0.49830  0.56260  1.0000
  H   H115      1.0  0.50920  0.99830  0.93740  1.0000
  H   H116      1.0  0.00920  0.50170  0.43740  1.0000
  N   N25       1.0  0.41430  0.11320  0.02503  1.0000
  N   N26       1.0  0.91430  0.38680  0.52503  1.0000
  N   N27       1.0  0.58570  0.88680  0.97497  1.0000
  N   N28       1.0  0.08570  0.61320  0.47497  1.0000
  H   H117      1.0  0.34840  0.08100  0.01350  1.0000
  H   H118      1.0  0.84840  0.41900  0.51350  1.0000
  H   H119      1.0  0.65160  0.91900  0.98650  1.0000
  H   H120      1.0  0.15160  0.58100  0.48650  1.0000
  C   C73       1.0  0.42830  0.20740  0.01342  1.0000
  C   C74       1.0  0.92830  0.29260  0.51342  1.0000
  C   C75       1.0  0.57170  0.79260  0.98658  1.0000
  C   C76       1.0  0.07170  0.70740  0.48658  1.0000
  H   H121      1.0  0.36640  0.23760  0.99290  1.0000
  H   H122      1.0  0.86640  0.26240  0.49290  1.0000
  H   H123      1.0  0.63360  0.76240  0.00710  1.0000
  H   H124      1.0  0.13360  0.73760  0.50710  1.0000
  C   C77       1.0  0.53000  0.26020  0.03065  1.0000
  C   C78       1.0  0.03000  0.23980  0.53065  1.0000
  C   C79       1.0  0.47000  0.73980  0.96935  1.0000
  C   C80       1.0  0.97000  0.76020  0.46935  1.0000
  H   H125      1.0  0.53690  0.32640  0.02220  1.0000
  H   H126      1.0  0.03690  0.17360  0.52220  1.0000
  H   H127      1.0  0.46310  0.67360  0.97780  1.0000
  H   H128      1.0  0.96310  0.82640  0.47780  1.0000
