data_image0
_chemical_formula_structural       Cu8C32N24O32H60Cu8C32N24O32H60
_chemical_formula_sum              "Cu16 C64 N48 O64 H120"
_cell_length_a       16.3031
_cell_length_b       11.9204
_cell_length_c       17.133
_cell_angle_alpha    90
_cell_angle_beta     114.469
_cell_angle_gamma    90

_space_group_name_H-M_alt    "P 1"
_space_group_IT_number       1

loop_
  _space_group_symop_operation_xyz
  'x, y, z'

loop_
  _atom_site_type_symbol
  _atom_site_label
  _atom_site_symmetry_multiplicity
  _atom_site_fract_x
  _atom_site_fract_y
  _atom_site_fract_z
  _atom_site_occupancy
  Cu  Cu1       1.0  0.58836  0.36697  0.68739  1.0000
  Cu  Cu2       1.0  0.41164  0.86697  0.81261  1.0000
  Cu  Cu3       1.0  0.41164  0.63303  0.31261  1.0000
  Cu  Cu4       1.0  0.58836  0.13303  0.18739  1.0000
  Cu  Cu5       1.0  0.58960  0.12764  0.69549  1.0000
  Cu  Cu6       1.0  0.41040  0.62764  0.80451  1.0000
  Cu  Cu7       1.0  0.41040  0.87236  0.30451  1.0000
  Cu  Cu8       1.0  0.58960  0.37236  0.19549  1.0000
  C   C1        1.0  0.43860  0.24670  0.68790  1.0000
  C   C2        1.0  0.56140  0.74670  0.81210  1.0000
  C   C3        1.0  0.56140  0.75330  0.31210  1.0000
  C   C4        1.0  0.43860  0.25330  0.18790  1.0000
  C   C5        1.0  0.39710  0.35270  0.70580  1.0000
  C   C6        1.0  0.60290  0.85270  0.79420  1.0000
  C   C7        1.0  0.60290  0.64730  0.29420  1.0000
  C   C8        1.0  0.39710  0.14730  0.20580  1.0000
  C   C9        1.0  0.41420  0.45800  0.66570  1.0000
  C   C10       1.0  0.58580  0.95800  0.83430  1.0000
  C   C11       1.0  0.58580  0.54200  0.33430  1.0000
  C   C12       1.0  0.41420  0.04200  0.16570  1.0000
  C   C13       1.0  0.40750  0.23630  0.59030  1.0000
  C   C14       1.0  0.59250  0.73630  0.90970  1.0000
  C   C15       1.0  0.59250  0.76370  0.40970  1.0000
  C   C16       1.0  0.40750  0.26370  0.09030  1.0000
  C   C17       1.0  0.63150  0.55040  0.59530  1.0000
  C   C18       1.0  0.36850  0.05040  0.90470  1.0000
  C   C19       1.0  0.36850  0.44960  0.40470  1.0000
  C   C20       1.0  0.63150  0.94960  0.09530  1.0000
  C   C21       1.0  0.40360  0.14530  0.72030  1.0000
  C   C22       1.0  0.59640  0.64530  0.77970  1.0000
  C   C23       1.0  0.59640  0.85470  0.27970  1.0000
  C   C24       1.0  0.40360  0.35470  0.22030  1.0000
  C   C25       1.0  0.41140  0.03840  0.67780  1.0000
  C   C26       1.0  0.58860  0.53840  0.82220  1.0000
  C   C27       1.0  0.58860  0.96160  0.32220  1.0000
  C   C28       1.0  0.41140  0.46160  0.17780  1.0000
  C   C29       1.0  0.64310  0.92400  0.63130  1.0000
  C   C30       1.0  0.35690  0.42400  0.86870  1.0000
  C   C31       1.0  0.35690  0.07600  0.36870  1.0000
  C   C32       1.0  0.64310  0.57600  0.13130  1.0000
  N   N1        1.0  0.65760  0.47920  0.65910  1.0000
  N   N2        1.0  0.34240  0.97920  0.84090  1.0000
  N   N3        1.0  0.34240  0.52080  0.34090  1.0000
  N   N4        1.0  0.65760  0.02080  0.15910  1.0000
  N   N5        1.0  0.55000  0.59620  0.56340  1.0000
  N   N6        1.0  0.45000  0.09620  0.93660  1.0000
  N   N7        1.0  0.45000  0.40380  0.43660  1.0000
  N   N8        1.0  0.55000  0.90380  0.06340  1.0000
  N   N9        1.0  0.68840  0.57800  0.56000  1.0000
  N   N10       1.0  0.31160  0.07800  0.94000  1.0000
  N   N11       1.0  0.31160  0.42200  0.44000  1.0000
  N   N12       1.0  0.68840  0.92200  0.06000  1.0000
  N   N13       1.0  0.66300  0.00930  0.68240  1.0000
  N   N14       1.0  0.33700  0.50930  0.81760  1.0000
  N   N15       1.0  0.33700  0.99070  0.31760  1.0000
  N   N16       1.0  0.66300  0.49070  0.18240  1.0000
  N   N17       1.0  0.56220  0.91540  0.56730  1.0000
  N   N18       1.0  0.43780  0.41540  0.93270  1.0000
  N   N19       1.0  0.43780  0.08460  0.43270  1.0000
  N   N20       1.0  0.56220  0.58460  0.06730  1.0000
  N   N21       1.0  0.70210  0.84240  0.64490  1.0000
  N   N22       1.0  0.29790  0.34240  0.85510  1.0000
  N   N23       1.0  0.29790  0.15760  0.35510  1.0000
  N   N24       1.0  0.70210  0.65760  0.14490  1.0000
  O   O1        1.0  0.53330  0.24990  0.72650  1.0000
  O   O2        1.0  0.46670  0.74990  0.77350  1.0000
  O   O3        1.0  0.46670  0.75010  0.27350  1.0000
  O   O4        1.0  0.53330  0.25010  0.22650  1.0000
  O   O5        1.0  0.48310  0.46280  0.64930  1.0000
  O   O6        1.0  0.51690  0.96280  0.85070  1.0000
  O   O7        1.0  0.51690  0.53720  0.35070  1.0000
  O   O8        1.0  0.48310  0.03720  0.14930  1.0000
  O   O9        1.0  0.36510  0.54040  0.65710  1.0000
  O   O10       1.0  0.63490  0.04040  0.84290  1.0000
  O   O11       1.0  0.63490  0.45960  0.34290  1.0000
  O   O12       1.0  0.36510  0.95960  0.15710  1.0000
  O   O13       1.0  0.46650  0.24440  0.56160  1.0000
  O   O14       1.0  0.53350  0.74440  0.93840  1.0000
  O   O15       1.0  0.53350  0.75560  0.43840  1.0000
  O   O16       1.0  0.46650  0.25560  0.06160  1.0000
  O   O17       1.0  0.32560  0.21640  0.54730  1.0000
  O   O18       1.0  0.67440  0.71640  0.95270  1.0000
  O   O19       1.0  0.67440  0.78360  0.45270  1.0000
  O   O20       1.0  0.32560  0.28360  0.04730  1.0000
  O   O21       1.0  0.66880  0.24540  0.69180  1.0000
  O   O22       1.0  0.33120  0.74540  0.80820  1.0000
  O   O23       1.0  0.33120  0.75460  0.30820  1.0000
  O   O24       1.0  0.66880  0.25460  0.19180  1.0000
  O   O25       1.0  0.47840  0.02810  0.65810  1.0000
  O   O26       1.0  0.52160  0.52810  0.84190  1.0000
  O   O27       1.0  0.52160  0.97190  0.34190  1.0000
  O   O28       1.0  0.47840  0.47190  0.15810  1.0000
  O   O29       1.0  0.35490  0.96410  0.66440  1.0000
  O   O30       1.0  0.64510  0.46410  0.83560  1.0000
  O   O31       1.0  0.64510  0.03590  0.33560  1.0000
  O   O32       1.0  0.35490  0.53590  0.16440  1.0000
  H   H1        1.0  0.71710  0.48380  0.69680  1.0000
  H   H2        1.0  0.28290  0.98380  0.80320  1.0000
  H   H3        1.0  0.28290  0.51620  0.30320  1.0000
  H   H4        1.0  0.71710  0.01620  0.19680  1.0000
  H   H5        1.0  0.71990  0.01440  0.71710  1.0000
  H   H6        1.0  0.28010  0.51440  0.78290  1.0000
  H   H7        1.0  0.28010  0.98560  0.28290  1.0000
  H   H8        1.0  0.71990  0.48560  0.21710  1.0000
  H   H9        1.0  0.53520  0.64210  0.52040  1.0000
  H   H10       1.0  0.46480  0.14210  0.97960  1.0000
  H   H11       1.0  0.46480  0.35790  0.47960  1.0000
  H   H12       1.0  0.53520  0.85790  0.02040  1.0000
  H   H13       1.0  0.51230  0.57930  0.58630  1.0000
  H   H14       1.0  0.48770  0.07930  0.91370  1.0000
  H   H15       1.0  0.48770  0.42070  0.41370  1.0000
  H   H16       1.0  0.51230  0.92070  0.08630  1.0000
  H   H17       1.0  0.74230  0.54850  0.57910  1.0000
  H   H18       1.0  0.25770  0.04850  0.92090  1.0000
  H   H19       1.0  0.25770  0.45150  0.42090  1.0000
  H   H20       1.0  0.74230  0.95150  0.07910  1.0000
  H   H21       1.0  0.66980  0.62420  0.51600  1.0000
  H   H22       1.0  0.33020  0.12420  0.98400  1.0000
  H   H23       1.0  0.33020  0.37580  0.48400  1.0000
  H   H24       1.0  0.66980  0.87580  0.01600  1.0000
  H   H25       1.0  0.75690  0.84830  0.68740  1.0000
  H   H26       1.0  0.24310  0.34830  0.81260  1.0000
  H   H27       1.0  0.24310  0.15170  0.31260  1.0000
  H   H28       1.0  0.75690  0.65170  0.18740  1.0000
  H   H29       1.0  0.68880  0.78270  0.61200  1.0000
  H   H30       1.0  0.31120  0.28270  0.88800  1.0000
  H   H31       1.0  0.31120  0.21730  0.38800  1.0000
  H   H32       1.0  0.68880  0.71730  0.11200  1.0000
  H   H33       1.0  0.54940  0.85580  0.53320  1.0000
  H   H34       1.0  0.45060  0.35580  0.96680  1.0000
  H   H35       1.0  0.45060  0.14420  0.46680  1.0000
  H   H36       1.0  0.54940  0.64420  0.03320  1.0000
  H   H37       1.0  0.52150  0.96650  0.55970  1.0000
  H   H38       1.0  0.47850  0.46650  0.94030  1.0000
  H   H39       1.0  0.47850  0.03350  0.44030  1.0000
  H   H40       1.0  0.52150  0.53350  0.05970  1.0000
  H   H41       1.0  0.42260  0.36380  0.76860  1.0000
  H   H42       1.0  0.57740  0.86380  0.73140  1.0000
  H   H43       1.0  0.57740  0.63620  0.23140  1.0000
  H   H44       1.0  0.42260  0.13620  0.26860  1.0000
  H   H45       1.0  0.33140  0.34110  0.68350  1.0000
  H   H46       1.0  0.66860  0.84110  0.81650  1.0000
  H   H47       1.0  0.66860  0.65890  0.31650  1.0000
  H   H48       1.0  0.33140  0.15890  0.18350  1.0000
  H   H49       1.0  0.43830  0.13860  0.78280  1.0000
  H   H50       1.0  0.56170  0.63860  0.71720  1.0000
  H   H51       1.0  0.56170  0.86140  0.21720  1.0000
  H   H52       1.0  0.43830  0.36140  0.28280  1.0000
  H   H53       1.0  0.33890  0.15890  0.70750  1.0000
  H   H54       1.0  0.66110  0.65890  0.79250  1.0000
  H   H55       1.0  0.66110  0.84110  0.29250  1.0000
  H   H56       1.0  0.33890  0.34110  0.20750  1.0000
  H   H57       1.0  0.71680  0.26880  0.73070  1.0000
  H   H58       1.0  0.28320  0.76880  0.76930  1.0000
  H   H59       1.0  0.28320  0.73120  0.26930  1.0000
  H   H60       1.0  0.71680  0.23120  0.23070  1.0000
  Cu  Cu9       1.0  0.07684  0.37646  0.39640  1.0000
  Cu  Cu10      1.0  0.92316  0.87646  0.10360  1.0000
  Cu  Cu11      1.0  0.92316  0.62354  0.60360  1.0000
  Cu  Cu12      1.0  0.07684  0.12354  0.89640  1.0000
  Cu  Cu13      1.0  0.08331  0.14835  0.35909  1.0000
  Cu  Cu14      1.0  0.91669  0.64835  0.14091  1.0000
  Cu  Cu15      1.0  0.91669  0.85165  0.64091  1.0000
  Cu  Cu16      1.0  0.08331  0.35165  0.85909  1.0000
  C   C33       1.0  0.92600  0.26570  0.26560  1.0000
  C   C34       1.0  0.07400  0.76570  0.23440  1.0000
  C   C35       1.0  0.07400  0.73430  0.73440  1.0000
  C   C36       1.0  0.92600  0.23430  0.76560  1.0000
  C   C37       1.0  0.87400  0.37500  0.23430  1.0000
  C   C38       1.0  0.12600  0.87500  0.26570  1.0000
  C   C39       1.0  0.12600  0.62500  0.76570  1.0000
  C   C40       1.0  0.87400  0.12500  0.73430  1.0000
  C   C41       1.0  0.90100  0.47210  0.29720  1.0000
  C   C42       1.0  0.09900  0.97210  0.20280  1.0000
  C   C43       1.0  0.09900  0.52790  0.70280  1.0000
  C   C44       1.0  0.90100  0.02790  0.79720  1.0000
  C   C45       1.0  0.90420  0.21570  0.33860  1.0000
  C   C46       1.0  0.09580  0.71570  0.16140  1.0000
  C   C47       1.0  0.09580  0.78430  0.66140  1.0000
  C   C48       1.0  0.90420  0.28430  0.83860  1.0000
  C   C49       1.0  0.13160  0.56700  0.52340  1.0000
  C   C50       1.0  0.86840  0.06700  0.97660  1.0000
  C   C51       1.0  0.86840  0.43300  0.47660  1.0000
  C   C52       1.0  0.13160  0.93300  0.02340  1.0000
  C   C53       1.0  0.89490  0.18320  0.19140  1.0000
  C   C54       1.0  0.10510  0.68320  0.30860  1.0000
  C   C55       1.0  0.10510  0.81680  0.80860  1.0000
  C   C56       1.0  0.89490  0.31680  0.69140  1.0000
  C   C57       1.0  0.91650  0.06420  0.22080  1.0000
  C   C58       1.0  0.08350  0.56420  0.27920  1.0000
  C   C59       1.0  0.08350  0.93580  0.77920  1.0000
  C   C60       1.0  0.91650  0.43580  0.72080  1.0000
  C   C61       1.0  0.13040  0.95010  0.46920  1.0000
  C   C62       1.0  0.86960  0.45010  0.03080  1.0000
  C   C63       1.0  0.86960  0.04990  0.53080  1.0000
  C   C64       1.0  0.13040  0.54990  0.96920  1.0000
  N   N25       1.0  0.14490  0.46640  0.49770  1.0000
  N   N26       1.0  0.85510  0.96640  0.00230  1.0000
  N   N27       1.0  0.85510  0.53360  0.50230  1.0000
  N   N28       1.0  0.14490  0.03360  0.99770  1.0000
  N   N29       1.0  0.05480  0.62260  0.47900  1.0000
  N   N30       1.0  0.94520  0.12260  0.02100  1.0000
  N   N31       1.0  0.94520  0.37740  0.52100  1.0000
  N   N32       1.0  0.05480  0.87740  0.97900  1.0000
  N   N33       1.0  0.19720  0.61520  0.59100  1.0000
  N   N34       1.0  0.80280  0.11520  0.90900  1.0000
  N   N35       1.0  0.80280  0.38480  0.40900  1.0000
  N   N36       1.0  0.19720  0.88480  0.09100  1.0000
  N   N37       1.0  0.15650  0.03380  0.43470  1.0000
  N   N38       1.0  0.84350  0.53380  0.06530  1.0000
  N   N39       1.0  0.84350  0.96620  0.56530  1.0000
  N   N40       1.0  0.15650  0.46620  0.93470  1.0000
  N   N41       1.0  0.04270  0.93120  0.44560  1.0000
  N   N42       1.0  0.95730  0.43120  0.05440  1.0000
  N   N43       1.0  0.95730  0.06880  0.55440  1.0000
  N   N44       1.0  0.04270  0.56880  0.94560  1.0000
  N   N45       1.0  0.19080  0.88640  0.53090  1.0000
  N   N46       1.0  0.80920  0.38640  0.96910  1.0000
  N   N47       1.0  0.80920  0.11360  0.46910  1.0000
  N   N48       1.0  0.19080  0.61360  0.03090  1.0000
  O   O33       1.0  0.02020  0.28290  0.29730  1.0000
  O   O34       1.0  0.97980  0.78290  0.20270  1.0000
  O   O35       1.0  0.97980  0.71710  0.70270  1.0000
  O   O36       1.0  0.02020  0.21710  0.79730  1.0000
  O   O37       1.0  0.97140  0.46540  0.36770  1.0000
  O   O38       1.0  0.02860  0.96540  0.13230  1.0000
  O   O39       1.0  0.02860  0.53460  0.63230  1.0000
  O   O40       1.0  0.97140  0.03460  0.86770  1.0000
  O   O41       1.0  0.85550  0.55980  0.27830  1.0000
  O   O42       1.0  0.14450  0.05980  0.22170  1.0000
  O   O43       1.0  0.14450  0.44020  0.72170  1.0000
  O   O44       1.0  0.85550  0.94020  0.77830  1.0000
  O   O45       1.0  0.96740  0.20290  0.41200  1.0000
  O   O46       1.0  0.03260  0.70290  0.08800  1.0000
  O   O47       1.0  0.03260  0.79710  0.58800  1.0000
  O   O48       1.0  0.96740  0.29710  0.91200  1.0000
  O   O49       1.0  0.82630  0.17890  0.31980  1.0000
  O   O50       1.0  0.17370  0.67890  0.18020  1.0000
  O   O51       1.0  0.17370  0.82110  0.68020  1.0000
  O   O52       1.0  0.82630  0.32110  0.81980  1.0000
  O   O53       1.0  0.16470  0.26470  0.41450  1.0000
  O   O54       1.0  0.83530  0.76470  0.08550  1.0000
  O   O55       1.0  0.83530  0.73530  0.58550  1.0000
  O   O56       1.0  0.16470  0.23530  0.91450  1.0000
  O   O57       1.0  0.98970  0.04270  0.28700  1.0000
  O   O58       1.0  0.01030  0.54270  0.21300  1.0000
  O   O59       1.0  0.01030  0.95730  0.71300  1.0000
  O   O60       1.0  0.98970  0.45730  0.78700  1.0000
  O   O61       1.0  0.86000  0.98940  0.18480  1.0000
  O   O62       1.0  0.14000  0.48940  0.31520  1.0000
  O   O63       1.0  0.14000  0.01060  0.81520  1.0000
  O   O64       1.0  0.86000  0.51060  0.68480  1.0000
  H   H61       1.0  0.19340  0.43200  0.53420  1.0000
  H   H62       1.0  0.80660  0.93200  0.96580  1.0000
  H   H63       1.0  0.80660  0.56800  0.46580  1.0000
  H   H64       1.0  0.19340  0.06800  0.03420  1.0000
  H   H65       1.0  0.21320  0.03750  0.44740  1.0000
  H   H66       1.0  0.78680  0.53750  0.05260  1.0000
  H   H67       1.0  0.78680  0.96250  0.55260  1.0000
  H   H68       1.0  0.21320  0.46250  0.94740  1.0000
  H   H69       1.0  0.04640  0.69000  0.49590  1.0000
  H   H70       1.0  0.95360  0.19000  0.00410  1.0000
  H   H71       1.0  0.95360  0.31000  0.50410  1.0000
  H   H72       1.0  0.04640  0.81000  0.99590  1.0000
  H   H73       1.0  0.01260  0.59270  0.43280  1.0000
  H   H74       1.0  0.98740  0.09270  0.06720  1.0000
  H   H75       1.0  0.98740  0.40730  0.56720  1.0000
  H   H76       1.0  0.01260  0.90730  0.93280  1.0000
  H   H77       1.0  0.18890  0.68210  0.60770  1.0000
  H   H78       1.0  0.81110  0.18210  0.89230  1.0000
  H   H79       1.0  0.81110  0.31790  0.39230  1.0000
  H   H80       1.0  0.18890  0.81790  0.10770  1.0000
  H   H81       1.0  0.24860  0.57980  0.61800  1.0000
  H   H82       1.0  0.75140  0.07980  0.88200  1.0000
  H   H83       1.0  0.75140  0.42020  0.38200  1.0000
  H   H84       1.0  0.24860  0.92020  0.11800  1.0000
  H   H85       1.0  0.17130  0.83050  0.55280  1.0000
  H   H86       1.0  0.82870  0.33050  0.94720  1.0000
  H   H87       1.0  0.82870  0.16950  0.44720  1.0000
  H   H88       1.0  0.17130  0.66950  0.05280  1.0000
  H   H89       1.0  0.24750  0.90020  0.54820  1.0000
  H   H90       1.0  0.75250  0.40020  0.95180  1.0000
  H   H91       1.0  0.75250  0.09980  0.45180  1.0000
  H   H92       1.0  0.24750  0.59980  0.04820  1.0000
  H   H93       1.0  0.02350  0.87520  0.46810  1.0000
  H   H94       1.0  0.97650  0.37520  0.03190  1.0000
  H   H95       1.0  0.97650  0.12480  0.53190  1.0000
  H   H96       1.0  0.02350  0.62480  0.96810  1.0000
  H   H97       1.0  0.00090  0.97450  0.40670  1.0000
  H   H98       1.0  0.99910  0.47450  0.09330  1.0000
  H   H99       1.0  0.99910  0.02550  0.59330  1.0000
  H   H100      1.0  0.00090  0.52550  0.90670  1.0000
  H   H101      1.0  0.80920  0.35980  0.21840  1.0000
  H   H102      1.0  0.19080  0.85980  0.28160  1.0000
  H   H103      1.0  0.19080  0.64020  0.78160  1.0000
  H   H104      1.0  0.80920  0.14020  0.71840  1.0000
  H   H105      1.0  0.88230  0.39910  0.18290  1.0000
  H   H106      1.0  0.11770  0.89910  0.31710  1.0000
  H   H107      1.0  0.11770  0.60090  0.81710  1.0000
  H   H108      1.0  0.88230  0.10090  0.68290  1.0000
  H   H109      1.0  0.82840  0.18990  0.15840  1.0000
  H   H110      1.0  0.17160  0.68990  0.34160  1.0000
  H   H111      1.0  0.17160  0.81010  0.84160  1.0000
  H   H112      1.0  0.82840  0.31010  0.65840  1.0000
  H   H113      1.0  0.92500  0.20180  0.15350  1.0000
  H   H114      1.0  0.07500  0.70180  0.34650  1.0000
  H   H115      1.0  0.07500  0.79820  0.84650  1.0000
  H   H116      1.0  0.92500  0.29820  0.65350  1.0000
  H   H117      1.0  0.21470  0.24940  0.45460  1.0000
  H   H118      1.0  0.78530  0.74940  0.04540  1.0000
  H   H119      1.0  0.78530  0.75060  0.54540  1.0000
  H   H120      1.0  0.21470  0.25060  0.95460  1.0000
