data_image0
_chemical_formula_structural       La4O4H8O32C8H4C8H4C4H4C4H4C16H4C8H4C4H4C4H4C8
_chemical_formula_sum              "La4 O36 H40 C64"
_cell_length_a       10.158
_cell_length_b       13.269
_cell_length_c       14.47
_cell_angle_alpha    90
_cell_angle_beta     90
_cell_angle_gamma    90

_space_group_name_H-M_alt    "P 1"
_space_group_IT_number       1

loop_
  _space_group_symop_operation_xyz
  'x, y, z'

loop_
  _atom_site_type_symbol
  _atom_site_label
  _atom_site_symmetry_multiplicity
  _atom_site_fract_x
  _atom_site_fract_y
  _atom_site_fract_z
  _atom_site_occupancy
  La  La1       1.0  0.00135  0.84236  0.69621  1.0000
  La  La2       1.0  0.99865  0.15764  0.19621  1.0000
  La  La3       1.0  0.50135  0.65764  0.69621  1.0000
  La  La4       1.0  0.49865  0.34236  0.19621  1.0000
  O   O1        1.0  0.96900  0.64350  0.70710  1.0000
  O   O2        1.0  0.03100  0.35650  0.20710  1.0000
  O   O3        1.0  0.46900  0.85650  0.70710  1.0000
  O   O4        1.0  0.53100  0.14350  0.20710  1.0000
  H   H1        1.0  0.89110  0.62960  0.69930  1.0000
  H   H2        1.0  0.10890  0.37040  0.19930  1.0000
  H   H3        1.0  0.39110  0.87040  0.69930  1.0000
  H   H4        1.0  0.60890  0.12960  0.19930  1.0000
  H   H5        1.0  0.99160  0.61120  0.75380  1.0000
  H   H6        1.0  0.00840  0.38880  0.25380  1.0000
  H   H7        1.0  0.49160  0.88880  0.75380  1.0000
  H   H8        1.0  0.50840  0.11120  0.25380  1.0000
  O   O5        1.0  0.22520  0.97400  0.68860  1.0000
  O   O6        1.0  0.77480  0.02600  0.18860  1.0000
  O   O7        1.0  0.72520  0.52600  0.68860  1.0000
  O   O8        1.0  0.27480  0.47400  0.18860  1.0000
  O   O9        1.0  0.06630  0.99710  0.79230  1.0000
  O   O10       1.0  0.93370  0.00290  0.29230  1.0000
  O   O11       1.0  0.56630  0.50290  0.79230  1.0000
  O   O12       1.0  0.43370  0.49710  0.29230  1.0000
  O   O13       1.0  0.34070  0.28760  0.08290  1.0000
  O   O14       1.0  0.65930  0.71240  0.58290  1.0000
  O   O15       1.0  0.84070  0.21240  0.08290  1.0000
  O   O16       1.0  0.15930  0.78760  0.58290  1.0000
  O   O17       1.0  0.15350  0.20450  0.07200  1.0000
  O   O18       1.0  0.84650  0.79550  0.57200  1.0000
  O   O19       1.0  0.65350  0.29550  0.07200  1.0000
  O   O20       1.0  0.34650  0.70450  0.57200  1.0000
  O   O21       1.0  0.84510  0.80360  0.81950  1.0000
  O   O22       1.0  0.15490  0.19640  0.31950  1.0000
  O   O23       1.0  0.34510  0.69640  0.81950  1.0000
  O   O24       1.0  0.65490  0.30360  0.31950  1.0000
  O   O25       1.0  0.65930  0.71570  0.81170  1.0000
  O   O26       1.0  0.34070  0.28430  0.31170  1.0000
  O   O27       1.0  0.15930  0.78430  0.81170  1.0000
  O   O28       1.0  0.84070  0.21570  0.31170  1.0000
  O   O29       1.0  0.53790  0.49770  0.08770  1.0000
  O   O30       1.0  0.46210  0.50230  0.58770  1.0000
  O   O31       1.0  0.03790  0.00230  0.08770  1.0000
  O   O32       1.0  0.96210  0.99770  0.58770  1.0000
  O   O33       1.0  0.68770  0.48210  0.19660  1.0000
  O   O34       1.0  0.31230  0.51790  0.69660  1.0000
  O   O35       1.0  0.18770  0.01790  0.19660  1.0000
  O   O36       1.0  0.81230  0.98210  0.69660  1.0000
  C   C1        1.0  0.26150  0.09470  0.80990  1.0000
  C   C2        1.0  0.73850  0.90530  0.30990  1.0000
  C   C3        1.0  0.76150  0.40530  0.80990  1.0000
  C   C4        1.0  0.23850  0.59470  0.30990  1.0000
  C   C5        1.0  0.22460  0.12670  0.89780  1.0000
  C   C6        1.0  0.77540  0.87330  0.39780  1.0000
  C   C7        1.0  0.72460  0.37330  0.89780  1.0000
  C   C8        1.0  0.27540  0.62670  0.39780  1.0000
  H   H9        1.0  0.14740  0.10250  0.92430  1.0000
  H   H10       1.0  0.85260  0.89750  0.42430  1.0000
  H   H11       1.0  0.64740  0.39750  0.92430  1.0000
  H   H12       1.0  0.35260  0.60250  0.42430  1.0000
  C   C9        1.0  0.30230  0.19450  0.94620  1.0000
  C   C10       1.0  0.69770  0.80550  0.44620  1.0000
  C   C11       1.0  0.80230  0.30550  0.94620  1.0000
  C   C12       1.0  0.19770  0.69450  0.44620  1.0000
  C   C13       1.0  0.41780  0.22990  0.90670  1.0000
  C   C14       1.0  0.58220  0.77010  0.40670  1.0000
  C   C15       1.0  0.91780  0.27010  0.90670  1.0000
  C   C16       1.0  0.08220  0.72990  0.40670  1.0000
  H   H13       1.0  0.47150  0.27390  0.93950  1.0000
  H   H14       1.0  0.52850  0.72610  0.43950  1.0000
  H   H15       1.0  0.97150  0.22610  0.93950  1.0000
  H   H16       1.0  0.02850  0.77390  0.43950  1.0000
  C   C17       1.0  0.45320  0.19990  0.81860  1.0000
  C   C18       1.0  0.54680  0.80010  0.31860  1.0000
  C   C19       1.0  0.95320  0.30010  0.81860  1.0000
  C   C20       1.0  0.04680  0.69990  0.31860  1.0000
  H   H17       1.0  0.52970  0.22520  0.79200  1.0000
  H   H18       1.0  0.47030  0.77480  0.29200  1.0000
  H   H19       1.0  0.02970  0.27480  0.79200  1.0000
  H   H20       1.0  0.97030  0.72520  0.29200  1.0000
  C   C21       1.0  0.37640  0.13320  0.77030  1.0000
  C   C22       1.0  0.62360  0.86680  0.27030  1.0000
  C   C23       1.0  0.87640  0.36680  0.77030  1.0000
  C   C24       1.0  0.12360  0.63320  0.27030  1.0000
  H   H21       1.0  0.40080  0.11350  0.71100  1.0000
  H   H22       1.0  0.59920  0.88650  0.21100  1.0000
  H   H23       1.0  0.90080  0.38650  0.71100  1.0000
  H   H24       1.0  0.09920  0.61350  0.21100  1.0000
  C   C25       1.0  0.17840  0.01760  0.76130  1.0000
  C   C26       1.0  0.82160  0.98240  0.26130  1.0000
  C   C27       1.0  0.67840  0.48240  0.76130  1.0000
  C   C28       1.0  0.32160  0.51760  0.26130  1.0000
  C   C29       1.0  0.26210  0.23150  0.04180  1.0000
  C   C30       1.0  0.73790  0.76850  0.54180  1.0000
  C   C31       1.0  0.76210  0.26850  0.04180  1.0000
  C   C32       1.0  0.23790  0.73150  0.54180  1.0000
  C   C33       1.0  0.77600  0.71740  0.95310  1.0000
  C   C34       1.0  0.22400  0.28260  0.45310  1.0000
  C   C35       1.0  0.27600  0.78260  0.95310  1.0000
  C   C36       1.0  0.72400  0.21740  0.45310  1.0000
  C   C37       1.0  0.70210  0.64010  0.99180  1.0000
  C   C38       1.0  0.29790  0.35990  0.49180  1.0000
  C   C39       1.0  0.20210  0.85990  0.99180  1.0000
  C   C40       1.0  0.79790  0.14010  0.49180  1.0000
  H   H25       1.0  0.63970  0.60720  0.95590  1.0000
  H   H26       1.0  0.36030  0.39280  0.45590  1.0000
  H   H27       1.0  0.13970  0.89280  0.95590  1.0000
  H   H28       1.0  0.86030  0.10720  0.45590  1.0000
  C   C41       1.0  0.71960  0.61100  0.08340  1.0000
  C   C42       1.0  0.28040  0.38900  0.58340  1.0000
  C   C43       1.0  0.21960  0.88900  0.08340  1.0000
  C   C44       1.0  0.78040  0.11100  0.58340  1.0000
  C   C45       1.0  0.80930  0.66430  0.13760  1.0000
  C   C46       1.0  0.19070  0.33570  0.63760  1.0000
  C   C47       1.0  0.30930  0.83570  0.13760  1.0000
  C   C48       1.0  0.69070  0.16430  0.63760  1.0000
  H   H29       1.0  0.81980  0.64720  0.19950  1.0000
  H   H30       1.0  0.18020  0.35280  0.69950  1.0000
  H   H31       1.0  0.31980  0.85280  0.19950  1.0000
  H   H32       1.0  0.68020  0.14720  0.69950  1.0000
  C   C49       1.0  0.88240  0.74160  0.10090  1.0000
  C   C50       1.0  0.11760  0.25840  0.60090  1.0000
  C   C51       1.0  0.38240  0.75840  0.10090  1.0000
  C   C52       1.0  0.61760  0.24160  0.60090  1.0000
  H   H33       1.0  0.94280  0.77570  0.13770  1.0000
  H   H34       1.0  0.05720  0.22430  0.63770  1.0000
  H   H35       1.0  0.44280  0.72430  0.13770  1.0000
  H   H36       1.0  0.55720  0.27570  0.63770  1.0000
  C   C53       1.0  0.86620  0.76920  0.00860  1.0000
  C   C54       1.0  0.13380  0.23080  0.50860  1.0000
  C   C55       1.0  0.36620  0.73080  0.00860  1.0000
  C   C56       1.0  0.63380  0.26920  0.50860  1.0000
  H   H37       1.0  0.91520  0.82200  0.98400  1.0000
  H   H38       1.0  0.08480  0.17800  0.48400  1.0000
  H   H39       1.0  0.41520  0.67800  0.98400  1.0000
  H   H40       1.0  0.58480  0.32200  0.48400  1.0000
  C   C57       1.0  0.75800  0.74640  0.85410  1.0000
  C   C58       1.0  0.24200  0.25360  0.35410  1.0000
  C   C59       1.0  0.25800  0.75360  0.85410  1.0000
  C   C60       1.0  0.74200  0.24640  0.35410  1.0000
  C   C61       1.0  0.64420  0.52500  0.12590  1.0000
  C   C62       1.0  0.35580  0.47500  0.62590  1.0000
  C   C63       1.0  0.14420  0.97500  0.12590  1.0000
  C   C64       1.0  0.85580  0.02500  0.62590  1.0000
