data_image0
_chemical_formula_structural       Tb4O4H8O32C8H4C8H4C4H4C4H4C16H4C8H4C4H4C4H4C8
_chemical_formula_sum              "Tb4 O36 H40 C64"
_cell_length_a       9.987
_cell_length_b       13.172
_cell_length_c       14.29
_cell_angle_alpha    90
_cell_angle_beta     90
_cell_angle_gamma    90

_space_group_name_H-M_alt    "P 1"
_space_group_IT_number       1

loop_
  _space_group_symop_operation_xyz
  'x, y, z'

loop_
  _atom_site_type_symbol
  _atom_site_label
  _atom_site_symmetry_multiplicity
  _atom_site_fract_x
  _atom_site_fract_y
  _atom_site_fract_z
  _atom_site_occupancy
  Tb  Tb1       1.0  0.00089  0.84388  0.69639  1.0000
  Tb  Tb2       1.0  0.99911  0.15612  0.19639  1.0000
  Tb  Tb3       1.0  0.50089  0.65612  0.69639  1.0000
  Tb  Tb4       1.0  0.49911  0.34388  0.19639  1.0000
  O   O1        1.0  0.97250  0.65050  0.70250  1.0000
  O   O2        1.0  0.02750  0.34950  0.20250  1.0000
  O   O3        1.0  0.47250  0.84950  0.70250  1.0000
  O   O4        1.0  0.52750  0.15050  0.20250  1.0000
  H   H1        1.0  0.89350  0.63600  0.69460  1.0000
  H   H2        1.0  0.10650  0.36400  0.19460  1.0000
  H   H3        1.0  0.39350  0.86400  0.69460  1.0000
  H   H4        1.0  0.60650  0.13600  0.19460  1.0000
  H   H5        1.0  0.99520  0.61820  0.74920  1.0000
  H   H6        1.0  0.00480  0.38180  0.24920  1.0000
  H   H7        1.0  0.49520  0.88180  0.74920  1.0000
  H   H8        1.0  0.50480  0.11820  0.24920  1.0000
  O   O5        1.0  0.22910  0.97190  0.68900  1.0000
  O   O6        1.0  0.77090  0.02810  0.18900  1.0000
  O   O7        1.0  0.72910  0.52810  0.68900  1.0000
  O   O8        1.0  0.27090  0.47190  0.18900  1.0000
  O   O9        1.0  0.06730  0.99330  0.79250  1.0000
  O   O10       1.0  0.93270  0.00670  0.29250  1.0000
  O   O11       1.0  0.56730  0.50670  0.79250  1.0000
  O   O12       1.0  0.43270  0.49330  0.29250  1.0000
  O   O13       1.0  0.34530  0.28860  0.08480  1.0000
  O   O14       1.0  0.65470  0.71140  0.58480  1.0000
  O   O15       1.0  0.84530  0.21140  0.08480  1.0000
  O   O16       1.0  0.15470  0.78860  0.58480  1.0000
  O   O17       1.0  0.15540  0.20350  0.07770  1.0000
  O   O18       1.0  0.84460  0.79650  0.57770  1.0000
  O   O19       1.0  0.65540  0.29650  0.07770  1.0000
  O   O20       1.0  0.34460  0.70350  0.57770  1.0000
  O   O21       1.0  0.84710  0.80410  0.81570  1.0000
  O   O22       1.0  0.15290  0.19590  0.31570  1.0000
  O   O23       1.0  0.34710  0.69590  0.81570  1.0000
  O   O24       1.0  0.65290  0.30410  0.31570  1.0000
  O   O25       1.0  0.65920  0.71490  0.80500  1.0000
  O   O26       1.0  0.34080  0.28510  0.30500  1.0000
  O   O27       1.0  0.15920  0.78510  0.80500  1.0000
  O   O28       1.0  0.84080  0.21490  0.30500  1.0000
  O   O29       1.0  0.52990  0.49360  0.08580  1.0000
  O   O30       1.0  0.47010  0.50640  0.58580  1.0000
  O   O31       1.0  0.02990  0.00640  0.08580  1.0000
  O   O32       1.0  0.97010  0.99360  0.58580  1.0000
  O   O33       1.0  0.68230  0.48080  0.19630  1.0000
  O   O34       1.0  0.31770  0.51920  0.69630  1.0000
  O   O35       1.0  0.18230  0.01920  0.19630  1.0000
  O   O36       1.0  0.81770  0.98080  0.69630  1.0000
  C   C1        1.0  0.26490  0.09240  0.81140  1.0000
  C   C2        1.0  0.73510  0.90760  0.31140  1.0000
  C   C3        1.0  0.76490  0.40760  0.81140  1.0000
  C   C4        1.0  0.23510  0.59240  0.31140  1.0000
  C   C5        1.0  0.22670  0.12470  0.90100  1.0000
  C   C6        1.0  0.77330  0.87530  0.40100  1.0000
  C   C7        1.0  0.72670  0.37530  0.90100  1.0000
  C   C8        1.0  0.27330  0.62470  0.40100  1.0000
  H   H9        1.0  0.14770  0.10100  0.92760  1.0000
  H   H10       1.0  0.85230  0.89900  0.42760  1.0000
  H   H11       1.0  0.64770  0.39900  0.92760  1.0000
  H   H12       1.0  0.35230  0.60100  0.42760  1.0000
  C   C9        1.0  0.30700  0.19200  0.94950  1.0000
  C   C10       1.0  0.69300  0.80800  0.44950  1.0000
  C   C11       1.0  0.80700  0.30800  0.94950  1.0000
  C   C12       1.0  0.19300  0.69200  0.44950  1.0000
  C   C13       1.0  0.42330  0.22690  0.90990  1.0000
  C   C14       1.0  0.57670  0.77310  0.40990  1.0000
  C   C15       1.0  0.92330  0.27310  0.90990  1.0000
  C   C16       1.0  0.07670  0.72690  0.40990  1.0000
  H   H13       1.0  0.47790  0.27120  0.94330  1.0000
  H   H14       1.0  0.52210  0.72880  0.44330  1.0000
  H   H15       1.0  0.97790  0.22880  0.94330  1.0000
  H   H16       1.0  0.02210  0.77120  0.44330  1.0000
  C   C17       1.0  0.45960  0.19720  0.82170  1.0000
  C   C18       1.0  0.54040  0.80280  0.32170  1.0000
  C   C19       1.0  0.95960  0.30280  0.82170  1.0000
  C   C20       1.0  0.04040  0.69720  0.32170  1.0000
  H   H17       1.0  0.53780  0.22230  0.79500  1.0000
  H   H18       1.0  0.46220  0.77770  0.29500  1.0000
  H   H19       1.0  0.03780  0.27770  0.79500  1.0000
  H   H20       1.0  0.96220  0.72230  0.29500  1.0000
  C   C21       1.0  0.38050  0.13030  0.77210  1.0000
  C   C22       1.0  0.61950  0.86970  0.27210  1.0000
  C   C23       1.0  0.88050  0.36970  0.77210  1.0000
  C   C24       1.0  0.11950  0.63030  0.27210  1.0000
  H   H21       1.0  0.40520  0.11070  0.71200  1.0000
  H   H22       1.0  0.59480  0.88930  0.21200  1.0000
  H   H23       1.0  0.90520  0.38930  0.71200  1.0000
  H   H24       1.0  0.09480  0.61070  0.21200  1.0000
  C   C25       1.0  0.18180  0.01480  0.76060  1.0000
  C   C26       1.0  0.81820  0.98520  0.26060  1.0000
  C   C27       1.0  0.68180  0.48520  0.76060  1.0000
  C   C28       1.0  0.31820  0.51480  0.26060  1.0000
  C   C29       1.0  0.26640  0.22950  0.04700  1.0000
  C   C30       1.0  0.73360  0.77050  0.54700  1.0000
  C   C31       1.0  0.76640  0.27050  0.04700  1.0000
  C   C32       1.0  0.23360  0.72950  0.54700  1.0000
  C   C33       1.0  0.77170  0.71870  0.95050  1.0000
  C   C34       1.0  0.22830  0.28130  0.45050  1.0000
  C   C35       1.0  0.27170  0.78130  0.95050  1.0000
  C   C36       1.0  0.72830  0.21870  0.45050  1.0000
  C   C37       1.0  0.69560  0.63940  0.98990  1.0000
  C   C38       1.0  0.30440  0.36060  0.48990  1.0000
  C   C39       1.0  0.19560  0.86060  0.98990  1.0000
  C   C40       1.0  0.80440  0.13940  0.48990  1.0000
  H   H25       1.0  0.63410  0.60460  0.95300  1.0000
  H   H26       1.0  0.36590  0.39540  0.45300  1.0000
  H   H27       1.0  0.13410  0.89540  0.95300  1.0000
  H   H28       1.0  0.86590  0.10460  0.45300  1.0000
  C   C41       1.0  0.71150  0.61270  0.08250  1.0000
  C   C42       1.0  0.28850  0.38730  0.58250  1.0000
  C   C43       1.0  0.21150  0.88730  0.08250  1.0000
  C   C44       1.0  0.78850  0.11270  0.58250  1.0000
  C   C45       1.0  0.79720  0.66760  0.13820  1.0000
  C   C46       1.0  0.20280  0.33240  0.63820  1.0000
  C   C47       1.0  0.29720  0.83240  0.13820  1.0000
  C   C48       1.0  0.70280  0.16760  0.63820  1.0000
  H   H29       1.0  0.80590  0.65030  0.20100  1.0000
  H   H30       1.0  0.19410  0.34970  0.70100  1.0000
  H   H31       1.0  0.30590  0.84970  0.20100  1.0000
  H   H32       1.0  0.69410  0.15030  0.70100  1.0000
  C   C49       1.0  0.87130  0.74850  0.10300  1.0000
  C   C50       1.0  0.12870  0.25150  0.60300  1.0000
  C   C51       1.0  0.37130  0.75150  0.10300  1.0000
  C   C52       1.0  0.62870  0.24850  0.60300  1.0000
  H   H33       1.0  0.92910  0.78490  0.14140  1.0000
  H   H34       1.0  0.07090  0.21510  0.64140  1.0000
  H   H35       1.0  0.42910  0.71510  0.14140  1.0000
  H   H36       1.0  0.57090  0.28490  0.64140  1.0000
  C   C53       1.0  0.85710  0.77350  0.00960  1.0000
  C   C54       1.0  0.14290  0.22650  0.50960  1.0000
  C   C55       1.0  0.35710  0.72650  0.00960  1.0000
  C   C56       1.0  0.64290  0.27350  0.50960  1.0000
  H   H37       1.0  0.90530  0.82790  0.98540  1.0000
  H   H38       1.0  0.09470  0.17210  0.48540  1.0000
  H   H39       1.0  0.40530  0.67210  0.98540  1.0000
  H   H40       1.0  0.59470  0.32790  0.48540  1.0000
  C   C57       1.0  0.75720  0.74770  0.85210  1.0000
  C   C58       1.0  0.24280  0.25230  0.35210  1.0000
  C   C59       1.0  0.25720  0.75230  0.85210  1.0000
  C   C60       1.0  0.74280  0.24770  0.35210  1.0000
  C   C61       1.0  0.63690  0.52350  0.12500  1.0000
  C   C62       1.0  0.36310  0.47650  0.62500  1.0000
  C   C63       1.0  0.13690  0.97650  0.12500  1.0000
  C   C64       1.0  0.86310  0.02350  0.62500  1.0000
