data_image0
_chemical_formula_structural       MnO10N2H2N2C10H2C2H2C2H2C2H6
_chemical_formula_sum              "Mn1 O10 N4 H14 C16"
_cell_length_a       10.036
_cell_length_b       10.65
_cell_length_c       11.102
_cell_angle_alpha    114.72
_cell_angle_beta     95.75
_cell_angle_gamma    108.46

_space_group_name_H-M_alt    "P 1"
_space_group_IT_number       1

loop_
  _space_group_symop_operation_xyz
  'x, y, z'

loop_
  _atom_site_type_symbol
  _atom_site_label
  _atom_site_symmetry_multiplicity
  _atom_site_fract_x
  _atom_site_fract_y
  _atom_site_fract_z
  _atom_site_occupancy
  Mn  Mn1       1.0  0.50000  0.00000  0.50000  1.0000
  O   O1        1.0  0.37433  0.11404  0.46312  1.0000
  O   O2        1.0  0.62567  0.88596  0.53688  1.0000
  O   O3        1.0  0.38926  0.71750  0.57835  1.0000
  O   O4        1.0  0.61074  0.28250  0.42165  1.0000
  O   O5        1.0  0.29088  0.81993  0.48703  1.0000
  O   O6        1.0  0.70912  0.18007  0.51297  1.0000
  O   O7        1.0  0.26735  0.74854  0.82165  1.0000
  O   O8        1.0  0.73265  0.25146  0.17835  1.0000
  O   O9        1.0  0.26902  0.51901  0.73812  1.0000
  O   O10       1.0  0.73098  0.48099  0.26188  1.0000
  N   N1        1.0  0.60250  0.21820  0.93880  1.0000
  N   N2        1.0  0.39750  0.78180  0.06120  1.0000
  H   H1        1.0  0.62420  0.21830  0.01580  1.0000
  H   H2        1.0  0.37580  0.78170  0.98420  1.0000
  N   N3        1.0  0.52890  0.13440  0.72257  1.0000
  N   N4        1.0  0.47110  0.86560  0.27743  1.0000
  C   C1        1.0  0.13560  0.61380  0.51918  1.0000
  C   C2        1.0  0.86440  0.38620  0.48082  1.0000
  C   C3        1.0  0.11190  0.55440  0.60907  1.0000
  C   C4        1.0  0.88810  0.44560  0.39093  1.0000
  C   C5        1.0  0.02290  0.55880  0.41170  1.0000
  C   C6        1.0  0.97710  0.44120  0.58830  1.0000
  C   C7        1.0  0.28400  0.72630  0.52999  1.0000
  C   C8        1.0  0.71600  0.27370  0.47001  1.0000
  C   C9        1.0  0.54990  0.09670  0.81570  1.0000
  C   C10       1.0  0.45010  0.90330  0.18430  1.0000
  H   H3        1.0  0.53110  0.99900  0.79980  1.0000
  H   H4        1.0  0.46890  0.00100  0.20020  1.0000
  C   C11       1.0  0.57170  0.28970  0.79170  1.0000
  C   C12       1.0  0.42830  0.71030  0.20830  1.0000
  H   H5        1.0  0.56880  0.34840  0.74950  1.0000
  H   H6        1.0  0.43120  0.65160  0.25050  1.0000
  C   C13       1.0  0.61690  0.34180  0.92530  1.0000
  C   C14       1.0  0.38310  0.65820  0.07470  1.0000
  H   H7        1.0  0.65100  0.44110  0.99460  1.0000
  H   H8        1.0  0.34900  0.55890  0.00540  1.0000
  C   C15       1.0  0.22640  0.61250  0.73210  1.0000
  C   C16       1.0  0.77360  0.38750  0.26790  1.0000
  H   H9        1.0  0.03710  0.60070  0.35060  1.0000
  H   H10       1.0  0.96290  0.39930  0.64940  1.0000
  H   H11       1.0  0.36640  0.13840  0.39950  1.0000
  H   H12       1.0  0.63360  0.86160  0.60050  1.0000
  H   H13       1.0  0.40640  0.19560  0.53980  1.0000
  H   H14       1.0  0.59360  0.80440  0.46020  1.0000
