data_image0
_chemical_formula_structural       NiO10N4H2C2H2C2H2C2H2C6H2C4H4
_chemical_formula_sum              "Ni1 O10 N4 H14 C16"
_cell_length_a       9.97
_cell_length_b       10.613
_cell_length_c       11.088
_cell_angle_alpha    115.554
_cell_angle_beta     91.351
_cell_angle_gamma    111.681

_space_group_name_H-M_alt    "P 1"
_space_group_IT_number       1

loop_
  _space_group_symop_operation_xyz
  'x, y, z'

loop_
  _atom_site_type_symbol
  _atom_site_label
  _atom_site_symmetry_multiplicity
  _atom_site_fract_x
  _atom_site_fract_y
  _atom_site_fract_z
  _atom_site_occupancy
  Ni  Ni1       1.0  0.00000  0.00000  0.50000  1.0000
  O   O1        1.0  0.87158  0.09912  0.45893  1.0000
  O   O2        1.0  0.12842  0.90088  0.54107  1.0000
  O   O3        1.0  0.20048  0.17180  0.50554  1.0000
  O   O4        1.0  0.79952  0.82820  0.49446  1.0000
  O   O5        1.0  0.10245  0.28201  0.41999  1.0000
  O   O6        1.0  0.89755  0.71799  0.58001  1.0000
  O   O7        1.0  0.23059  0.24797  0.17222  1.0000
  O   O8        1.0  0.76941  0.75203  0.82778  1.0000
  O   O9        1.0  0.22880  0.47806  0.25336  1.0000
  O   O10       1.0  0.77120  0.52194  0.74664  1.0000
  N   N1        1.0  0.96939  0.86821  0.29099  1.0000
  N   N2        1.0  0.03061  0.13179  0.70901  1.0000
  N   N3        1.0  0.90260  0.78360  0.06991  1.0000
  N   N4        1.0  0.09740  0.21640  0.93009  1.0000
  H   H1        1.0  0.88450  0.78350  0.99370  1.0000
  H   H2        1.0  0.11550  0.21650  0.00630  1.0000
  C   C1        1.0  0.92610  0.71210  0.22240  1.0000
  C   C2        1.0  0.07390  0.28790  0.77760  1.0000
  H   H3        1.0  0.92520  0.65150  0.26320  1.0000
  H   H4        1.0  0.07480  0.34850  0.73680  1.0000
  C   C3        1.0  0.88460  0.65900  0.08570  1.0000
  C   C4        1.0  0.11540  0.34100  0.91430  1.0000
  H   H5        1.0  0.85070  0.55760  0.01690  1.0000
  H   H6        1.0  0.14930  0.44240  0.98310  1.0000
  C   C5        1.0  0.95350  0.90650  0.19410  1.0000
  C   C6        1.0  0.04650  0.09350  0.80590  1.0000
  H   H7        1.0  0.97520  0.00630  0.21060  1.0000
  H   H8        1.0  0.02480  0.99370  0.78940  1.0000
  C   C7        1.0  0.20901  0.26967  0.46573  1.0000
  C   C8        1.0  0.79099  0.73033  0.53427  1.0000
  C   C9        1.0  0.36152  0.38399  0.47901  1.0000
  C   C10       1.0  0.63848  0.61601  0.52099  1.0000
  C   C11       1.0  0.47439  0.43980  0.58931  1.0000
  C   C12       1.0  0.52561  0.56020  0.41069  1.0000
  H   H9        1.0  0.45700  0.39870  0.64940  1.0000
  H   H10       1.0  0.54300  0.60130  0.35060  1.0000
  C   C13       1.0  0.38741  0.44452  0.38770  1.0000
  C   C14       1.0  0.61259  0.55548  0.61230  1.0000
  C   C15       1.0  0.27218  0.38520  0.26191  1.0000
  C   C16       1.0  0.72782  0.61480  0.73809  1.0000
  H   H11       1.0  0.82500  0.13700  0.50400  1.0000
  H   H12       1.0  0.17500  0.86300  0.49600  1.0000
  H   H13       1.0  0.93100  0.16500  0.44500  1.0000
  H   H14       1.0  0.06900  0.83500  0.55500  1.0000
