data_image0
_chemical_formula_structural       Mn8P8O12H4O4H4O12H4O4H4O32C16
_chemical_formula_sum              "Mn8 P8 O64 H16 C16"
_cell_length_a       9.8245
_cell_length_b       22.5143
_cell_length_c       10.0949
_cell_angle_alpha    90
_cell_angle_beta     114.908
_cell_angle_gamma    90

_space_group_name_H-M_alt    "P 1"
_space_group_IT_number       1

loop_
  _space_group_symop_operation_xyz
  'x, y, z'

loop_
  _atom_site_type_symbol
  _atom_site_label
  _atom_site_symmetry_multiplicity
  _atom_site_fract_x
  _atom_site_fract_y
  _atom_site_fract_z
  _atom_site_occupancy
  Mn  Mn1       1.0  0.48245  0.47159  0.65835  1.0000
  Mn  Mn2       1.0  0.01755  0.97159  0.84165  1.0000
  Mn  Mn3       1.0  0.51755  0.52841  0.34165  1.0000
  Mn  Mn4       1.0  0.98245  0.02841  0.15835  1.0000
  Mn  Mn5       1.0  0.95002  0.33513  0.59564  1.0000
  Mn  Mn6       1.0  0.54998  0.83513  0.90436  1.0000
  Mn  Mn7       1.0  0.04998  0.66487  0.40436  1.0000
  Mn  Mn8       1.0  0.45002  0.16487  0.09564  1.0000
  P   P1        1.0  0.71768  0.57325  0.86269  1.0000
  P   P2        1.0  0.78232  0.07325  0.63731  1.0000
  P   P3        1.0  0.28232  0.42675  0.13731  1.0000
  P   P4        1.0  0.21768  0.92675  0.36269  1.0000
  P   P5        1.0  0.14576  0.23727  0.86546  1.0000
  P   P6        1.0  0.35424  0.73727  0.63454  1.0000
  P   P7        1.0  0.85424  0.76273  0.13454  1.0000
  P   P8        1.0  0.64576  0.26273  0.36546  1.0000
  O   O1        1.0  0.59800  0.52698  0.83740  1.0000
  O   O2        1.0  0.90200  0.02698  0.66260  1.0000
  O   O3        1.0  0.40200  0.47302  0.16260  1.0000
  O   O4        1.0  0.09800  0.97302  0.33740  1.0000
  O   O5        1.0  0.66650  0.63584  0.86660  1.0000
  O   O6        1.0  0.83350  0.13584  0.63340  1.0000
  O   O7        1.0  0.33350  0.36416  0.13340  1.0000
  O   O8        1.0  0.16650  0.86416  0.36660  1.0000
  O   O9        1.0  0.78530  0.56410  0.74870  1.0000
  O   O10       1.0  0.71470  0.06410  0.75130  1.0000
  O   O11       1.0  0.21470  0.43590  0.25130  1.0000
  O   O12       1.0  0.28530  0.93590  0.24870  1.0000
  H   H1        1.0  0.73850  0.58430  0.67600  1.0000
  H   H2        1.0  0.76150  0.08430  0.82400  1.0000
  H   H3        1.0  0.26150  0.41570  0.32400  1.0000
  H   H4        1.0  0.23850  0.91570  0.17600  1.0000
  O   O13       1.0  0.86008  0.55738  0.00549  1.0000
  O   O14       1.0  0.63992  0.05738  0.49451  1.0000
  O   O15       1.0  0.13992  0.44262  0.99451  1.0000
  O   O16       1.0  0.36008  0.94262  0.50549  1.0000
  H   H5        1.0  0.85360  0.57310  0.07590  1.0000
  H   H6        1.0  0.64640  0.07310  0.42410  1.0000
  H   H7        1.0  0.14640  0.42690  0.92410  1.0000
  H   H8        1.0  0.35360  0.92690  0.57590  1.0000
  O   O17       1.0  0.08410  0.26514  0.71630  1.0000
  O   O18       1.0  0.41590  0.76514  0.78370  1.0000
  O   O19       1.0  0.91590  0.73486  0.28370  1.0000
  O   O20       1.0  0.58410  0.23486  0.21630  1.0000
  O   O21       1.0  0.30063  0.21122  0.90498  1.0000
  O   O22       1.0  0.19937  0.71122  0.59502  1.0000
  O   O23       1.0  0.69937  0.78878  0.09502  1.0000
  O   O24       1.0  0.80063  0.28878  0.40498  1.0000
  O   O25       1.0  0.03730  0.18771  0.87440  1.0000
  O   O26       1.0  0.46270  0.68771  0.62560  1.0000
  O   O27       1.0  0.96270  0.81229  0.12560  1.0000
  O   O28       1.0  0.53730  0.31229  0.37440  1.0000
  H   H9        1.0  0.97810  0.17830  0.79160  1.0000
  H   H10       1.0  0.52190  0.67830  0.70840  1.0000
  H   H11       1.0  0.02190  0.82170  0.20840  1.0000
  H   H12       1.0  0.47810  0.32170  0.29160  1.0000
  O   O29       1.0  0.14630  0.28004  0.98690  1.0000
  O   O30       1.0  0.35370  0.78004  0.51310  1.0000
  O   O31       1.0  0.85370  0.71996  0.01310  1.0000
  O   O32       1.0  0.64630  0.21996  0.48690  1.0000
  H   H13       1.0  0.21910  0.30220  0.01200  1.0000
  H   H14       1.0  0.28090  0.80220  0.48800  1.0000
  H   H15       1.0  0.78090  0.69780  0.98800  1.0000
  H   H16       1.0  0.71910  0.19780  0.51200  1.0000
  O   O33       1.0  0.60319  0.46152  0.50920  1.0000
  O   O34       1.0  0.89681  0.96152  0.99080  1.0000
  O   O35       1.0  0.39681  0.53848  0.49080  1.0000
  O   O36       1.0  0.10319  0.03848  0.00920  1.0000
  O   O37       1.0  0.80107  0.41624  0.49653  1.0000
  O   O38       1.0  0.69893  0.91624  0.00347  1.0000
  O   O39       1.0  0.19893  0.58376  0.50347  1.0000
  O   O40       1.0  0.30107  0.08376  0.99653  1.0000
  O   O41       1.0  0.65603  0.40586  0.75884  1.0000
  O   O42       1.0  0.84397  0.90586  0.74116  1.0000
  O   O43       1.0  0.34397  0.59414  0.24116  1.0000
  O   O44       1.0  0.15603  0.09414  0.25884  1.0000
  O   O45       1.0  0.82900  0.34926  0.73115  1.0000
  O   O46       1.0  0.67100  0.84926  0.76885  1.0000
  O   O47       1.0  0.17100  0.65074  0.26885  1.0000
  O   O48       1.0  0.32900  0.15074  0.23115  1.0000
  O   O49       1.0  0.10020  0.35919  0.48777  1.0000
  O   O50       1.0  0.39980  0.85919  0.01223  1.0000
  O   O51       1.0  0.89980  0.64081  0.51223  1.0000
  O   O52       1.0  0.60020  0.14081  0.98777  1.0000
  O   O53       1.0  0.31431  0.40620  0.52208  1.0000
  O   O54       1.0  0.18569  0.90620  0.97792  1.0000
  O   O55       1.0  0.68569  0.59380  0.47792  1.0000
  O   O56       1.0  0.81431  0.09380  0.02208  1.0000
  O   O57       1.0  0.12337  0.40250  0.74443  1.0000
  O   O58       1.0  0.37663  0.90250  0.75557  1.0000
  O   O59       1.0  0.87663  0.59750  0.25557  1.0000
  O   O60       1.0  0.62337  0.09750  0.24443  1.0000
  O   O61       1.0  0.32684  0.45454  0.76730  1.0000
  O   O62       1.0  0.17316  0.95454  0.73270  1.0000
  O   O63       1.0  0.67316  0.54546  0.23270  1.0000
  O   O64       1.0  0.82684  0.04546  0.26730  1.0000
  C   C1        1.0  0.71340  0.42524  0.55340  1.0000
  C   C2        1.0  0.78660  0.92524  0.94660  1.0000
  C   C3        1.0  0.28660  0.57476  0.44660  1.0000
  C   C4        1.0  0.21340  0.07476  0.05340  1.0000
  C   C5        1.0  0.73450  0.39027  0.69300  1.0000
  C   C6        1.0  0.76550  0.89027  0.80700  1.0000
  C   C7        1.0  0.26550  0.60973  0.30700  1.0000
  C   C8        1.0  0.23450  0.10973  0.19300  1.0000
  C   C9        1.0  0.20960  0.39181  0.55760  1.0000
  C   C10       1.0  0.29040  0.89181  0.94240  1.0000
  C   C11       1.0  0.79040  0.60819  0.44240  1.0000
  C   C12       1.0  0.70960  0.10819  0.05760  1.0000
  C   C13       1.0  0.22090  0.41857  0.70320  1.0000
  C   C14       1.0  0.27910  0.91857  0.79680  1.0000
  C   C15       1.0  0.77910  0.58143  0.29680  1.0000
  C   C16       1.0  0.72090  0.08143  0.20320  1.0000
