data_image0
_chemical_formula_structural       Mn8P8O12H4O4H4O8H4O8H4O32C16
_chemical_formula_sum              "Mn8 P8 O64 H16 C16"
_cell_length_a       19.0729
_cell_length_b       7.2256
_cell_length_c       16.0049
_cell_angle_alpha    90
_cell_angle_beta     90
_cell_angle_gamma    90

_space_group_name_H-M_alt    "P 1"
_space_group_IT_number       1

loop_
  _space_group_symop_operation_xyz
  'x, y, z'

loop_
  _atom_site_type_symbol
  _atom_site_label
  _atom_site_symmetry_multiplicity
  _atom_site_fract_x
  _atom_site_fract_y
  _atom_site_fract_z
  _atom_site_occupancy
  Mn  Mn1       1.0  0.86958  0.90203  0.05734  1.0000
  Mn  Mn2       1.0  0.13042  0.09797  0.55734  1.0000
  Mn  Mn3       1.0  0.36958  0.59797  0.05734  1.0000
  Mn  Mn4       1.0  0.63042  0.40203  0.55734  1.0000
  Mn  Mn5       1.0  0.86181  0.90347  0.41611  1.0000
  Mn  Mn6       1.0  0.13819  0.09653  0.91611  1.0000
  Mn  Mn7       1.0  0.36181  0.59653  0.41611  1.0000
  Mn  Mn8       1.0  0.63819  0.40347  0.91611  1.0000
  P   P1        1.0  0.70012  0.00110  0.00307  1.0000
  P   P2        1.0  0.29988  0.99890  0.50307  1.0000
  P   P3        1.0  0.20012  0.49890  0.00307  1.0000
  P   P4        1.0  0.79988  0.50110  0.50307  1.0000
  P   P5        1.0  0.69210  0.00010  0.47220  1.0000
  P   P6        1.0  0.30790  0.99990  0.97220  1.0000
  P   P7        1.0  0.19210  0.49990  0.47220  1.0000
  P   P8        1.0  0.80790  0.50010  0.97220  1.0000
  O   O1        1.0  0.65810  0.17310  0.99250  1.0000
  O   O2        1.0  0.34190  0.82690  0.49250  1.0000
  O   O3        1.0  0.15810  0.32690  0.99250  1.0000
  O   O4        1.0  0.84190  0.67310  0.49250  1.0000
  O   O5        1.0  0.77170  0.04050  0.03880  1.0000
  O   O6        1.0  0.22830  0.95950  0.53880  1.0000
  O   O7        1.0  0.27170  0.45950  0.03880  1.0000
  O   O8        1.0  0.72830  0.54050  0.53880  1.0000
  O   O9        1.0  0.66330  0.86560  0.06600  1.0000
  O   O10       1.0  0.33670  0.13440  0.56600  1.0000
  O   O11       1.0  0.16330  0.63440  0.06600  1.0000
  O   O12       1.0  0.83670  0.36560  0.56600  1.0000
  H   H1        1.0  0.63950  0.79070  0.04000  1.0000
  H   H2        1.0  0.36050  0.20930  0.54000  1.0000
  H   H3        1.0  0.13950  0.70930  0.04000  1.0000
  H   H4        1.0  0.86050  0.29070  0.54000  1.0000
  O   O13       1.0  0.70570  0.89380  0.91770  1.0000
  O   O14       1.0  0.29430  0.10620  0.41770  1.0000
  O   O15       1.0  0.20570  0.60620  0.91770  1.0000
  O   O16       1.0  0.79430  0.39380  0.41770  1.0000
  H   H5        1.0  0.70980  0.78270  0.92690  1.0000
  H   H6        1.0  0.29020  0.21730  0.42690  1.0000
  H   H7        1.0  0.20980  0.71730  0.92690  1.0000
  H   H8        1.0  0.79020  0.28270  0.42690  1.0000
  O   O17       1.0  0.76450  0.03980  0.43830  1.0000
  O   O18       1.0  0.23550  0.96020  0.93830  1.0000
  O   O19       1.0  0.26450  0.46020  0.43830  1.0000
  O   O20       1.0  0.73550  0.53980  0.93830  1.0000
  O   O21       1.0  0.65650  0.86480  0.40790  1.0000
  O   O22       1.0  0.34350  0.13520  0.90790  1.0000
  O   O23       1.0  0.15650  0.63520  0.40790  1.0000
  O   O24       1.0  0.84350  0.36480  0.90790  1.0000
  H   H9        1.0  0.62350  0.81190  0.43040  1.0000
  H   H10       1.0  0.37650  0.18810  0.93040  1.0000
  H   H11       1.0  0.12350  0.68810  0.43040  1.0000
  H   H12       1.0  0.87650  0.31190  0.93040  1.0000
  O   O25       1.0  0.64930  0.16750  0.48610  1.0000
  O   O26       1.0  0.35070  0.83250  0.98610  1.0000
  O   O27       1.0  0.14930  0.33250  0.48610  1.0000
  O   O28       1.0  0.85070  0.66750  0.98610  1.0000
  O   O29       1.0  0.69570  0.89250  0.55700  1.0000
  O   O30       1.0  0.30430  0.10750  0.05700  1.0000
  O   O31       1.0  0.19570  0.60750  0.55700  1.0000
  O   O32       1.0  0.80430  0.39250  0.05700  1.0000
  H   H13       1.0  0.71680  0.79470  0.55020  1.0000
  H   H14       1.0  0.28320  0.20530  0.05020  1.0000
  H   H15       1.0  0.21680  0.70530  0.55020  1.0000
  H   H16       1.0  0.78320  0.29470  0.05020  1.0000
  O   O33       1.0  0.87870  0.09730  0.16780  1.0000
  O   O34       1.0  0.12130  0.90270  0.66780  1.0000
  O   O35       1.0  0.37870  0.40270  0.16780  1.0000
  O   O36       1.0  0.62130  0.59730  0.66780  1.0000
  O   O37       1.0  0.85470  0.73240  0.16850  1.0000
  O   O38       1.0  0.14530  0.26760  0.66850  1.0000
  O   O39       1.0  0.35470  0.76760  0.16850  1.0000
  O   O40       1.0  0.64530  0.23240  0.66850  1.0000
  O   O41       1.0  0.87350  0.09940  0.30640  1.0000
  O   O42       1.0  0.12650  0.90060  0.80640  1.0000
  O   O43       1.0  0.37350  0.40060  0.30640  1.0000
  O   O44       1.0  0.62650  0.59940  0.80640  1.0000
  O   O45       1.0  0.84870  0.73180  0.30680  1.0000
  O   O46       1.0  0.15130  0.26820  0.80680  1.0000
  O   O47       1.0  0.34870  0.76820  0.30680  1.0000
  O   O48       1.0  0.65130  0.23180  0.80680  1.0000
  O   O49       1.0  0.92080  0.09500  0.96930  1.0000
  O   O50       1.0  0.07920  0.90500  0.46930  1.0000
  O   O51       1.0  0.42080  0.40500  0.96930  1.0000
  O   O52       1.0  0.57920  0.59500  0.46930  1.0000
  O   O53       1.0  0.02300  0.16330  0.91020  1.0000
  O   O54       1.0  0.97700  0.83670  0.41020  1.0000
  O   O55       1.0  0.52300  0.33670  0.91020  1.0000
  O   O56       1.0  0.47700  0.66330  0.41020  1.0000
  O   O57       1.0  0.08660  0.90340  0.00180  1.0000
  O   O58       1.0  0.91340  0.09660  0.50180  1.0000
  O   O59       1.0  0.58660  0.59660  0.00180  1.0000
  O   O60       1.0  0.41340  0.40340  0.50180  1.0000
  O   O61       1.0  0.98320  0.83570  0.06280  1.0000
  O   O62       1.0  0.01680  0.16430  0.56280  1.0000
  O   O63       1.0  0.48320  0.66430  0.06280  1.0000
  O   O64       1.0  0.51680  0.33570  0.56280  1.0000
  C   C1        1.0  0.87010  0.02180  0.23610  1.0000
  C   C2        1.0  0.12990  0.97820  0.73610  1.0000
  C   C3        1.0  0.37010  0.47820  0.23610  1.0000
  C   C4        1.0  0.62990  0.52180  0.73610  1.0000
  C   C5        1.0  0.85610  0.81140  0.23820  1.0000
  C   C6        1.0  0.14390  0.18860  0.73820  1.0000
  C   C7        1.0  0.35610  0.68860  0.23820  1.0000
  C   C8        1.0  0.64390  0.31140  0.73820  1.0000
  C   C9        1.0  0.98570  0.07550  0.96070  1.0000
  C   C10       1.0  0.01430  0.92450  0.46070  1.0000
  C   C11       1.0  0.48570  0.42450  0.96070  1.0000
  C   C12       1.0  0.51430  0.57550  0.46070  1.0000
  C   C13       1.0  0.02100  0.92390  0.01440  1.0000
  C   C14       1.0  0.97900  0.07610  0.51440  1.0000
  C   C15       1.0  0.52100  0.57610  0.01440  1.0000
  C   C16       1.0  0.47900  0.42390  0.51440  1.0000
