data_image0
_chemical_formula_structural       Ag4C12F18O12
_chemical_formula_sum              "Ag4 C12 F18 O12"
_cell_length_a       11.5437
_cell_length_b       12.2903
_cell_length_c       13.5429
_cell_angle_alpha    76.751
_cell_angle_beta     72.615
_cell_angle_gamma    79.09

_space_group_name_H-M_alt    "P 1"
_space_group_IT_number       1

loop_
  _space_group_symop_operation_xyz
  'x, y, z'

loop_
  _atom_site_type_symbol
  _atom_site_label
  _atom_site_symmetry_multiplicity
  _atom_site_fract_x
  _atom_site_fract_y
  _atom_site_fract_z
  _atom_site_occupancy
  Ag  Ag1       1.0  0.35703  0.59578  0.05299  1.0000
  Ag  Ag2       1.0  0.64297  0.40422  0.94701  1.0000
  Ag  Ag3       1.0  0.52084  0.41944  0.16974  1.0000
  Ag  Ag4       1.0  0.47916  0.58056  0.83026  1.0000
  C   C1        1.0  0.27700  0.54200  0.30440  1.0000
  C   C2        1.0  0.72300  0.45800  0.69560  1.0000
  C   C3        1.0  0.19450  0.56330  0.41040  1.0000
  C   C4        1.0  0.80550  0.43670  0.58960  1.0000
  C   C5        1.0  0.65510  0.61570  0.02160  1.0000
  C   C6        1.0  0.34490  0.38430  0.97840  1.0000
  C   C7        1.0  0.71370  0.72270  0.99820  1.0000
  C   C8        1.0  0.28630  0.27730  0.00180  1.0000
  C   C9        1.0  0.59280  0.18530  0.11360  1.0000
  C   C10       1.0  0.40720  0.81470  0.88640  1.0000
  C   C11       1.0  0.60220  0.05640  0.13570  1.0000
  C   C12       1.0  0.39780  0.94360  0.86430  1.0000
  F   F1        1.0  0.15620  0.47620  0.47370  1.0000
  F   F2        1.0  0.84380  0.52380  0.52630  1.0000
  F   F3        1.0  0.09730  0.62550  0.40750  1.0000
  F   F4        1.0  0.90270  0.37450  0.59250  1.0000
  F   F5        1.0  0.24190  0.60400  0.45800  1.0000
  F   F6        1.0  0.75810  0.39600  0.54200  1.0000
  F   F7        1.0  0.68880  0.77530  0.06630  1.0000
  F   F8        1.0  0.31120  0.22470  0.93370  1.0000
  F   F9        1.0  0.82450  0.70440  0.98050  1.0000
  F   F10       1.0  0.17550  0.29560  0.01950  1.0000
  F   F11       1.0  0.70100  0.79090  0.91880  1.0000
  F   F12       1.0  0.29900  0.20910  0.08120  1.0000
  F   F13       1.0  0.60610  0.01320  0.23890  1.0000
  F   F14       1.0  0.39390  0.98680  0.76110  1.0000
  F   F15       1.0  0.50950  0.02190  0.13300  1.0000
  F   F16       1.0  0.49050  0.97810  0.86700  1.0000
  F   F17       1.0  0.70400  0.00740  0.08990  1.0000
  F   F18       1.0  0.29600  0.99260  0.91010  1.0000
  O   O1        1.0  0.24570  0.60180  0.22800  1.0000
  O   O2        1.0  0.75430  0.39820  0.77200  1.0000
  O   O3        1.0  0.36110  0.46600  0.30930  1.0000
  O   O4        1.0  0.63890  0.53400  0.69070  1.0000
  O   O5        1.0  0.61800  0.57590  0.11350  1.0000
  O   O6        1.0  0.38200  0.42410  0.88650  1.0000
  O   O7        1.0  0.65580  0.58330  0.94140  1.0000
  O   O8        1.0  0.34420  0.41670  0.05860  1.0000
  O   O9        1.0  0.54260  0.23220  0.18820  1.0000
  O   O10       1.0  0.45740  0.76780  0.81180  1.0000
  O   O11       1.0  0.63890  0.22510  0.02040  1.0000
  O   O12       1.0  0.36110  0.77490  0.97960  1.0000
