data_image0
_chemical_formula_structural       Cd12O72N16H8N8C24H8C16H8C16H8C40H8C16H8C16H8C20H4
_chemical_formula_sum              "Cd12 O72 N24 H60 C148"
_cell_length_a       18.944
_cell_length_b       23.156
_cell_length_c       14.411
_cell_angle_alpha    90
_cell_angle_beta     126.63
_cell_angle_gamma    90

_space_group_name_H-M_alt    "P 1"
_space_group_IT_number       1

loop_
  _space_group_symop_operation_xyz
  'x, y, z'

loop_
  _atom_site_type_symbol
  _atom_site_label
  _atom_site_symmetry_multiplicity
  _atom_site_fract_x
  _atom_site_fract_y
  _atom_site_fract_z
  _atom_site_occupancy
  Cd  Cd1       1.0  0.44251  0.15314  0.99642  1.0000
  Cd  Cd2       1.0  0.55749  0.15314  0.50358  1.0000
  Cd  Cd3       1.0  0.94251  0.65314  0.99642  1.0000
  Cd  Cd4       1.0  0.05749  0.65314  0.50358  1.0000
  Cd  Cd5       1.0  0.55749  0.84686  0.00358  1.0000
  Cd  Cd6       1.0  0.44251  0.84686  0.49642  1.0000
  Cd  Cd7       1.0  0.05749  0.34686  0.00358  1.0000
  Cd  Cd8       1.0  0.94251  0.34686  0.49642  1.0000
  Cd  Cd9       1.0  0.50000  0.00000  1.00000  1.0000
  Cd  Cd10      1.0  0.50000  0.00000  0.50000  1.0000
  Cd  Cd11      1.0  1.00000  0.50000  1.00000  1.0000
  Cd  Cd12      1.0  0.00000  0.50000  0.50000  1.0000
  O   O1        1.0  0.33690  0.10661  0.99290  1.0000
  O   O2        1.0  0.66310  0.10661  0.50710  1.0000
  O   O3        1.0  0.83690  0.60661  0.99290  1.0000
  O   O4        1.0  0.16310  0.60661  0.50710  1.0000
  O   O5        1.0  0.66310  0.89339  0.00710  1.0000
  O   O6        1.0  0.33690  0.89339  0.49290  1.0000
  O   O7        1.0  0.16310  0.39339  0.00710  1.0000
  O   O8        1.0  0.83690  0.39339  0.49290  1.0000
  O   O9        1.0  0.44901  0.04981  0.09220  1.0000
  O   O10       1.0  0.55099  0.04981  0.40780  1.0000
  O   O11       1.0  0.94901  0.54981  0.09220  1.0000
  O   O12       1.0  0.05099  0.54981  0.40780  1.0000
  O   O13       1.0  0.55099  0.95019  0.90780  1.0000
  O   O14       1.0  0.44901  0.95019  0.59220  1.0000
  O   O15       1.0  0.05099  0.45019  0.90780  1.0000
  O   O16       1.0  0.94901  0.45019  0.59220  1.0000
  O   O17       1.0  0.43593  0.92068  0.37340  1.0000
  O   O18       1.0  0.56407  0.92068  0.12660  1.0000
  O   O19       1.0  0.93593  0.42068  0.37340  1.0000
  O   O20       1.0  0.06407  0.42068  0.12660  1.0000
  O   O21       1.0  0.56407  0.07932  0.62660  1.0000
  O   O22       1.0  0.43593  0.07932  0.87340  1.0000
  O   O23       1.0  0.06407  0.57932  0.62660  1.0000
  O   O24       1.0  0.93593  0.57932  0.87340  1.0000
  O   O25       1.0  0.31970  0.86550  0.27870  1.0000
  O   O26       1.0  0.68030  0.86550  0.22130  1.0000
  O   O27       1.0  0.81970  0.36550  0.27870  1.0000
  O   O28       1.0  0.18030  0.36550  0.22130  1.0000
  O   O29       1.0  0.68030  0.13450  0.72130  1.0000
  O   O30       1.0  0.31970  0.13450  0.77870  1.0000
  O   O31       1.0  0.18030  0.63450  0.72130  1.0000
  O   O32       1.0  0.81970  0.63450  0.77870  1.0000
  O   O33       1.0  0.62395  0.95430  0.59980  1.0000
  O   O34       1.0  0.37605  0.95430  0.90020  1.0000
  O   O35       1.0  0.12395  0.45430  0.59980  1.0000
  O   O36       1.0  0.87605  0.45430  0.90020  1.0000
  O   O37       1.0  0.37605  0.04570  0.40020  1.0000
  O   O38       1.0  0.62395  0.04570  0.09980  1.0000
  O   O39       1.0  0.87605  0.54570  0.40020  1.0000
  O   O40       1.0  0.12395  0.54570  0.09980  1.0000
  O   O41       1.0  0.58880  0.86246  0.60150  1.0000
  O   O42       1.0  0.41120  0.86246  0.89850  1.0000
  O   O43       1.0  0.08880  0.36246  0.60150  1.0000
  O   O44       1.0  0.91120  0.36246  0.89850  1.0000
  O   O45       1.0  0.41120  0.13754  0.39850  1.0000
  O   O46       1.0  0.58880  0.13754  0.10150  1.0000
  O   O47       1.0  0.91120  0.63754  0.39850  1.0000
  O   O48       1.0  0.08880  0.63754  0.10150  1.0000
  O   O49       1.0  0.82620  0.73461  0.90810  1.0000
  O   O50       1.0  0.17380  0.73461  0.59190  1.0000
  O   O51       1.0  0.32620  0.23461  0.90810  1.0000
  O   O52       1.0  0.67380  0.23461  0.59190  1.0000
  O   O53       1.0  0.17380  0.26539  0.09190  1.0000
  O   O54       1.0  0.82620  0.26539  0.40810  1.0000
  O   O55       1.0  0.67380  0.76539  0.09190  1.0000
  O   O56       1.0  0.32620  0.76539  0.40810  1.0000
  O   O57       1.0  0.95120  0.74243  0.93380  1.0000
  O   O58       1.0  0.04880  0.74243  0.56620  1.0000
  O   O59       1.0  0.45120  0.24243  0.93380  1.0000
  O   O60       1.0  0.54880  0.24243  0.56620  1.0000
  O   O61       1.0  0.04880  0.25757  0.06620  1.0000
  O   O62       1.0  0.95120  0.25757  0.43380  1.0000
  O   O63       1.0  0.54880  0.75757  0.06620  1.0000
  O   O64       1.0  0.45120  0.75757  0.43380  1.0000
  O   O65       1.0  0.48230  0.20020  0.16100  1.0000
  O   O66       1.0  0.51770  0.20020  0.33900  1.0000
  O   O67       1.0  0.98230  0.70020  0.16100  1.0000
  O   O68       1.0  0.01770  0.70020  0.33900  1.0000
  O   O69       1.0  0.51770  0.79980  0.83900  1.0000
  O   O70       1.0  0.48230  0.79980  0.66100  1.0000
  O   O71       1.0  0.01770  0.29980  0.83900  1.0000
  O   O72       1.0  0.98230  0.29980  0.66100  1.0000
  N   N1        1.0  0.04110  0.94320  0.92800  1.0000
  N   N2        1.0  0.95890  0.94320  0.57200  1.0000
  N   N3        1.0  0.54110  0.44320  0.92800  1.0000
  N   N4        1.0  0.45890  0.44320  0.57200  1.0000
  N   N5        1.0  0.95890  0.05680  0.07200  1.0000
  N   N6        1.0  0.04110  0.05680  0.42800  1.0000
  N   N7        1.0  0.45890  0.55680  0.07200  1.0000
  N   N8        1.0  0.54110  0.55680  0.42800  1.0000
  N   N9        1.0  0.03300  0.03440  0.88800  1.0000
  N   N10       1.0  0.96700  0.03440  0.61200  1.0000
  N   N11       1.0  0.53300  0.53440  0.88800  1.0000
  N   N12       1.0  0.46700  0.53440  0.61200  1.0000
  N   N13       1.0  0.96700  0.96560  0.11200  1.0000
  N   N14       1.0  0.03300  0.96560  0.38800  1.0000
  N   N15       1.0  0.46700  0.46560  0.11200  1.0000
  N   N16       1.0  0.53300  0.46560  0.38800  1.0000
  H   H1        1.0  0.04770  0.06930  0.88620  1.0000
  H   H2        1.0  0.95230  0.06930  0.61380  1.0000
  H   H3        1.0  0.54770  0.56930  0.88620  1.0000
  H   H4        1.0  0.45230  0.56930  0.61380  1.0000
  H   H5        1.0  0.95230  0.93070  0.11380  1.0000
  H   H6        1.0  0.04770  0.93070  0.38620  1.0000
  H   H7        1.0  0.45230  0.43070  0.11380  1.0000
  H   H8        1.0  0.54770  0.43070  0.38620  1.0000
  N   N17       1.0  0.94680  0.01370  0.82990  1.0000
  N   N18       1.0  0.05320  0.01370  0.67010  1.0000
  N   N19       1.0  0.44680  0.51370  0.82990  1.0000
  N   N20       1.0  0.55320  0.51370  0.67010  1.0000
  N   N21       1.0  0.05320  0.98630  0.17010  1.0000
  N   N22       1.0  0.94680  0.98630  0.32990  1.0000
  N   N23       1.0  0.55320  0.48630  0.17010  1.0000
  N   N24       1.0  0.44680  0.48630  0.32990  1.0000
  C   C1        1.0  0.37310  0.06280  0.05300  1.0000
  C   C2        1.0  0.62690  0.06280  0.44700  1.0000
  C   C3        1.0  0.87310  0.56280  0.05300  1.0000
  C   C4        1.0  0.12690  0.56280  0.44700  1.0000
  C   C5        1.0  0.62690  0.93720  0.94700  1.0000
  C   C6        1.0  0.37310  0.93720  0.55300  1.0000
  C   C7        1.0  0.12690  0.43720  0.94700  1.0000
  C   C8        1.0  0.87310  0.43720  0.55300  1.0000
  C   C9        1.0  0.31990  0.02450  0.07300  1.0000
  C   C10       1.0  0.68010  0.02450  0.42700  1.0000
  C   C11       1.0  0.81990  0.52450  0.07300  1.0000
  C   C12       1.0  0.18010  0.52450  0.42700  1.0000
  C   C13       1.0  0.68010  0.97550  0.92700  1.0000
  C   C14       1.0  0.31990  0.97550  0.57300  1.0000
  C   C15       1.0  0.18010  0.47550  0.92700  1.0000
  C   C16       1.0  0.81990  0.47550  0.57300  1.0000
  C   C17       1.0  0.22950  0.02640  1.00000  1.0000
  C   C18       1.0  0.77050  0.02640  0.50000  1.0000
  C   C19       1.0  0.72950  0.52640  1.00000  1.0000
  C   C20       1.0  0.27050  0.52640  0.50000  1.0000
  C   C21       1.0  0.77050  0.97360  0.00000  1.0000
  C   C22       1.0  0.22950  0.97360  0.50000  1.0000
  C   C23       1.0  0.27050  0.47360  0.00000  1.0000
  C   C24       1.0  0.72950  0.47360  0.50000  1.0000
  H   H9        1.0  0.20100  0.05110  0.93670  1.0000
  H   H10       1.0  0.79900  0.05110  0.56330  1.0000
  H   H11       1.0  0.70100  0.55110  0.93670  1.0000
  H   H12       1.0  0.29900  0.55110  0.56330  1.0000
  H   H13       1.0  0.79900  0.94890  0.06330  1.0000
  H   H14       1.0  0.20100  0.94890  0.43670  1.0000
  H   H15       1.0  0.29900  0.44890  0.06330  1.0000
  H   H16       1.0  0.70100  0.44890  0.43670  1.0000
  C   C25       1.0  0.18080  0.99120  0.02060  1.0000
  C   C26       1.0  0.81920  0.99120  0.47940  1.0000
  C   C27       1.0  0.68080  0.49120  0.02060  1.0000
  C   C28       1.0  0.31920  0.49120  0.47940  1.0000
  C   C29       1.0  0.81920  0.00880  0.97940  1.0000
  C   C30       1.0  0.18080  0.00880  0.52060  1.0000
  C   C31       1.0  0.31920  0.50880  0.97940  1.0000
  C   C32       1.0  0.68080  0.50880  0.52060  1.0000
  C   C33       1.0  0.22310  0.95300  0.11080  1.0000
  C   C34       1.0  0.77690  0.95300  0.38920  1.0000
  C   C35       1.0  0.72310  0.45300  0.11080  1.0000
  C   C36       1.0  0.27690  0.45300  0.38920  1.0000
  C   C37       1.0  0.77690  0.04700  0.88920  1.0000
  C   C38       1.0  0.22310  0.04700  0.61080  1.0000
  C   C39       1.0  0.27690  0.54700  0.88920  1.0000
  C   C40       1.0  0.72310  0.54700  0.61080  1.0000
  H   H17       1.0  0.19080  0.92850  0.12340  1.0000
  H   H18       1.0  0.80920  0.92850  0.37660  1.0000
  H   H19       1.0  0.69080  0.42850  0.12340  1.0000
  H   H20       1.0  0.30920  0.42850  0.37660  1.0000
  H   H21       1.0  0.80920  0.07150  0.87660  1.0000
  H   H22       1.0  0.19080  0.07150  0.62340  1.0000
  H   H23       1.0  0.30920  0.57150  0.87660  1.0000
  H   H24       1.0  0.69080  0.57150  0.62340  1.0000
  C   C41       1.0  0.31390  0.95090  0.18310  1.0000
  C   C42       1.0  0.68610  0.95090  0.31690  1.0000
  C   C43       1.0  0.81390  0.45090  0.18310  1.0000
  C   C44       1.0  0.18610  0.45090  0.31690  1.0000
  C   C45       1.0  0.68610  0.04910  0.81690  1.0000
  C   C46       1.0  0.31390  0.04910  0.68310  1.0000
  C   C47       1.0  0.18610  0.54910  0.81690  1.0000
  C   C48       1.0  0.81390  0.54910  0.68310  1.0000
  C   C49       1.0  0.36290  0.98750  0.16850  1.0000
  C   C50       1.0  0.63710  0.98750  0.33150  1.0000
  C   C51       1.0  0.86290  0.48750  0.16850  1.0000
  C   C52       1.0  0.13710  0.48750  0.33150  1.0000
  C   C53       1.0  0.63710  0.01250  0.83150  1.0000
  C   C54       1.0  0.36290  0.01250  0.66850  1.0000
  C   C55       1.0  0.13710  0.51250  0.83150  1.0000
  C   C56       1.0  0.86290  0.51250  0.66850  1.0000
  H   H25       1.0  0.42390  0.98780  0.22120  1.0000
  H   H26       1.0  0.57610  0.98780  0.27880  1.0000
  H   H27       1.0  0.92390  0.48780  0.22120  1.0000
  H   H28       1.0  0.07610  0.48780  0.27880  1.0000
  H   H29       1.0  0.57610  0.01220  0.77880  1.0000
  H   H30       1.0  0.42390  0.01220  0.72120  1.0000
  H   H31       1.0  0.07610  0.51220  0.77880  1.0000
  H   H32       1.0  0.92390  0.51220  0.72120  1.0000
  C   C57       1.0  0.35850  0.91000  0.28650  1.0000
  C   C58       1.0  0.64150  0.91000  0.21350  1.0000
  C   C59       1.0  0.85850  0.41000  0.28650  1.0000
  C   C60       1.0  0.14150  0.41000  0.21350  1.0000
  C   C61       1.0  0.64150  0.09000  0.71350  1.0000
  C   C62       1.0  0.35850  0.09000  0.78650  1.0000
  C   C63       1.0  0.14150  0.59000  0.71350  1.0000
  C   C64       1.0  0.85850  0.59000  0.78650  1.0000
  C   C65       1.0  0.08490  0.99340  0.94290  1.0000
  C   C66       1.0  0.91510  0.99340  0.55710  1.0000
  C   C67       1.0  0.58490  0.49340  0.94290  1.0000
  C   C68       1.0  0.41510  0.49340  0.55710  1.0000
  C   C69       1.0  0.91510  0.00660  0.05710  1.0000
  C   C70       1.0  0.08490  0.00660  0.44290  1.0000
  C   C71       1.0  0.41510  0.50660  0.05710  1.0000
  C   C72       1.0  0.58490  0.50660  0.44290  1.0000
  C   C73       1.0  0.95550  0.96030  0.85690  1.0000
  C   C74       1.0  0.04450  0.96030  0.64310  1.0000
  C   C75       1.0  0.45550  0.46030  0.85690  1.0000
  C   C76       1.0  0.54450  0.46030  0.64310  1.0000
  C   C77       1.0  0.04450  0.03970  0.14310  1.0000
  C   C78       1.0  0.95550  0.03970  0.35690  1.0000
  C   C79       1.0  0.54450  0.53970  0.14310  1.0000
  C   C80       1.0  0.45550  0.53970  0.35690  1.0000
  C   C81       1.0  0.88920  0.91600  0.82460  1.0000
  C   C82       1.0  0.11080  0.91600  0.67540  1.0000
  C   C83       1.0  0.38920  0.41600  0.82460  1.0000
  C   C84       1.0  0.61080  0.41600  0.67540  1.0000
  C   C85       1.0  0.11080  0.08400  0.17540  1.0000
  C   C86       1.0  0.88920  0.08400  0.32460  1.0000
  C   C87       1.0  0.61080  0.58400  0.17540  1.0000
  C   C88       1.0  0.38920  0.58400  0.32460  1.0000
  C   C89       1.0  0.80050  0.93090  0.74580  1.0000
  C   C90       1.0  0.19950  0.93090  0.75420  1.0000
  C   C91       1.0  0.30050  0.43090  0.74580  1.0000
  C   C92       1.0  0.69950  0.43090  0.75420  1.0000
  C   C93       1.0  0.19950  0.06910  0.25420  1.0000
  C   C94       1.0  0.80050  0.06910  0.24580  1.0000
  C   C95       1.0  0.69950  0.56910  0.25420  1.0000
  C   C96       1.0  0.30050  0.56910  0.24580  1.0000
  H   H33       1.0  0.78380  0.96760  0.71290  1.0000
  H   H34       1.0  0.21620  0.96760  0.78710  1.0000
  H   H35       1.0  0.28380  0.46760  0.71290  1.0000
  H   H36       1.0  0.71620  0.46760  0.78710  1.0000
  H   H37       1.0  0.21620  0.03240  0.28710  1.0000
  H   H38       1.0  0.78380  0.03240  0.21290  1.0000
  H   H39       1.0  0.71620  0.53240  0.28710  1.0000
  H   H40       1.0  0.28380  0.53240  0.21290  1.0000
  C   C97       1.0  0.73780  0.88920  0.71850  1.0000
  C   C98       1.0  0.26220  0.88920  0.78150  1.0000
  C   C99       1.0  0.23780  0.38920  0.71850  1.0000
  C   C100      1.0  0.76220  0.38920  0.78150  1.0000
  C   C101      1.0  0.26220  0.11080  0.28150  1.0000
  C   C102      1.0  0.73780  0.11080  0.21850  1.0000
  C   C103      1.0  0.76220  0.61080  0.28150  1.0000
  C   C104      1.0  0.23780  0.61080  0.21850  1.0000
  C   C105      1.0  0.76290  0.83480  0.76770  1.0000
  C   C106      1.0  0.23710  0.83480  0.73230  1.0000
  C   C107      1.0  0.26290  0.33480  0.76770  1.0000
  C   C108      1.0  0.73710  0.33480  0.73230  1.0000
  C   C109      1.0  0.23710  0.16520  0.23230  1.0000
  C   C110      1.0  0.76290  0.16520  0.26770  1.0000
  C   C111      1.0  0.73710  0.66520  0.23230  1.0000
  C   C112      1.0  0.26290  0.66520  0.26770  1.0000
  H   H41       1.0  0.72000  0.80770  0.74860  1.0000
  H   H42       1.0  0.28000  0.80770  0.75140  1.0000
  H   H43       1.0  0.22000  0.30770  0.74860  1.0000
  H   H44       1.0  0.78000  0.30770  0.75140  1.0000
  H   H45       1.0  0.28000  0.19230  0.25140  1.0000
  H   H46       1.0  0.72000  0.19230  0.24860  1.0000
  H   H47       1.0  0.78000  0.69230  0.25140  1.0000
  H   H48       1.0  0.22000  0.69230  0.24860  1.0000
  C   C113      1.0  0.85040  0.82010  0.84460  1.0000
  C   C114      1.0  0.14960  0.82010  0.65540  1.0000
  C   C115      1.0  0.35040  0.32010  0.84460  1.0000
  C   C116      1.0  0.64960  0.32010  0.65540  1.0000
  C   C117      1.0  0.14960  0.17990  0.15540  1.0000
  C   C118      1.0  0.85040  0.17990  0.34460  1.0000
  C   C119      1.0  0.64960  0.67990  0.15540  1.0000
  C   C120      1.0  0.35040  0.67990  0.34460  1.0000
  C   C121      1.0  0.91300  0.86130  0.87020  1.0000
  C   C122      1.0  0.08700  0.86130  0.62980  1.0000
  C   C123      1.0  0.41300  0.36130  0.87020  1.0000
  C   C124      1.0  0.58700  0.36130  0.62980  1.0000
  C   C125      1.0  0.08700  0.13870  0.12980  1.0000
  C   C126      1.0  0.91300  0.13870  0.37020  1.0000
  C   C127      1.0  0.58700  0.63870  0.12980  1.0000
  C   C128      1.0  0.41300  0.63870  0.37020  1.0000
  H   H49       1.0  0.97230  0.85170  0.91930  1.0000
  H   H50       1.0  0.02770  0.85170  0.58070  1.0000
  H   H51       1.0  0.47230  0.35170  0.91930  1.0000
  H   H52       1.0  0.52770  0.35170  0.58070  1.0000
  H   H53       1.0  0.02770  0.14830  0.08070  1.0000
  H   H54       1.0  0.97230  0.14830  0.41930  1.0000
  H   H55       1.0  0.52770  0.64830  0.08070  1.0000
  H   H56       1.0  0.47230  0.64830  0.41930  1.0000
  C   C129      1.0  0.64160  0.90330  0.63210  1.0000
  C   C130      1.0  0.35840  0.90330  0.86790  1.0000
  C   C131      1.0  0.14160  0.40330  0.63210  1.0000
  C   C132      1.0  0.85840  0.40330  0.86790  1.0000
  C   C133      1.0  0.35840  0.09670  0.36790  1.0000
  C   C134      1.0  0.64160  0.09670  0.13210  1.0000
  C   C135      1.0  0.85840  0.59670  0.36790  1.0000
  C   C136      1.0  0.14160  0.59670  0.13210  1.0000
  C   C137      1.0  0.87680  0.76120  0.89660  1.0000
  C   C138      1.0  0.12320  0.76120  0.60340  1.0000
  C   C139      1.0  0.37680  0.26120  0.89660  1.0000
  C   C140      1.0  0.62320  0.26120  0.60340  1.0000
  C   C141      1.0  0.12320  0.23880  0.10340  1.0000
  C   C142      1.0  0.87680  0.23880  0.39660  1.0000
  C   C143      1.0  0.62320  0.73880  0.10340  1.0000
  C   C144      1.0  0.37680  0.73880  0.39660  1.0000
  C   C145      1.0  0.50000  0.17580  0.25000  1.0000
  C   C146      1.0  0.00000  0.67580  0.25000  1.0000
  C   C147      1.0  0.50000  0.82420  0.75000  1.0000
  C   C148      1.0  0.00000  0.32420  0.75000  1.0000
  H   H57       1.0  0.50000  0.13560  0.25000  1.0000
  H   H58       1.0  0.00000  0.63560  0.25000  1.0000
  H   H59       1.0  0.50000  0.86440  0.75000  1.0000
  H   H60       1.0  0.00000  0.36440  0.75000  1.0000
