data_image0
_chemical_formula_structural       Cd3S4O20N6H4N2H4C6N4H12
_chemical_formula_sum              "Cd3 S4 O20 N12 H20 C6"
_cell_length_a       6.8147
_cell_length_b       10.3938
_cell_length_c       14.487
_cell_angle_alpha    106.352
_cell_angle_beta     97.049
_cell_angle_gamma    107.237

_space_group_name_H-M_alt    "P 1"
_space_group_IT_number       1

loop_
  _space_group_symop_operation_xyz
  'x, y, z'

loop_
  _atom_site_type_symbol
  _atom_site_label
  _atom_site_symmetry_multiplicity
  _atom_site_fract_x
  _atom_site_fract_y
  _atom_site_fract_z
  _atom_site_occupancy
  Cd  Cd1       1.0  0.00000  0.50000  0.50000  1.0000
  Cd  Cd2       1.0  0.73345  0.91816  0.60794  1.0000
  Cd  Cd3       1.0  0.26655  0.08184  0.39206  1.0000
  S   S1        1.0  0.19779  0.87544  0.55710  1.0000
  S   S2        1.0  0.80221  0.12456  0.44290  1.0000
  S   S3        1.0  0.76546  0.61942  0.68058  1.0000
  S   S4        1.0  0.23454  0.38058  0.31942  1.0000
  O   O1        1.0  0.04210  0.73020  0.50990  1.0000
  O   O2        1.0  0.95790  0.26980  0.49010  1.0000
  O   O3        1.0  0.22470  0.55690  0.64740  1.0000
  O   O4        1.0  0.77530  0.44310  0.35260  1.0000
  O   O5        1.0  0.25690  0.49940  0.41090  1.0000
  O   O6        1.0  0.74310  0.50060  0.58910  1.0000
  O   O7        1.0  0.26030  0.93090  0.47860  1.0000
  O   O8        1.0  0.73970  0.06910  0.52140  1.0000
  O   O9        1.0  0.63390  0.74170  0.45500  1.0000
  O   O10       1.0  0.36610  0.25830  0.54500  1.0000
  O   O11       1.0  0.66250  0.71430  0.65290  1.0000
  O   O12       1.0  0.33750  0.28570  0.34710  1.0000
  O   O13       1.0  0.38310  0.87510  0.61970  1.0000
  O   O14       1.0  0.61690  0.12490  0.38030  1.0000
  O   O15       1.0  0.09840  0.96560  0.61960  1.0000
  O   O16       1.0  0.90160  0.03440  0.38040  1.0000
  O   O17       1.0  0.65670  0.56470  0.74830  1.0000
  O   O18       1.0  0.34330  0.43530  0.25170  1.0000
  O   O19       1.0  0.98700  0.69930  0.72440  1.0000
  O   O20       1.0  0.01300  0.30070  0.27560  1.0000
  N   N1        1.0  0.83640  0.09220  0.76350  1.0000
  N   N2        1.0  0.16360  0.90780  0.23650  1.0000
  N   N3        1.0  0.87890  0.14960  0.93900  1.0000
  N   N4        1.0  0.12110  0.85040  0.06100  1.0000
  N   N5        1.0  0.66770  0.92830  0.83390  1.0000
  N   N6        1.0  0.33230  0.07170  0.16610  1.0000
  H   H1        1.0  0.63960  0.90530  0.88460  1.0000
  H   H2        1.0  0.36040  0.09470  0.11540  1.0000
  H   H3        1.0  0.61200  0.86700  0.77560  1.0000
  H   H4        1.0  0.38800  0.13300  0.22440  1.0000
  N   N7        1.0  0.99630  0.27440  0.70710  1.0000
  N   N8        1.0  0.00370  0.72560  0.29290  1.0000
  H   H5        1.0  0.07510  0.36090  0.71710  1.0000
  H   H6        1.0  0.92490  0.63910  0.28290  1.0000
  H   H7        1.0  0.94000  0.21630  0.64780  1.0000
  H   H8        1.0  0.06000  0.78370  0.35220  1.0000
  C   C1        1.0  0.79760  0.05920  0.84580  1.0000
  C   C2        1.0  0.20240  0.94080  0.15420  1.0000
  C   C3        1.0  0.96180  0.23040  0.78300  1.0000
  C   C4        1.0  0.03820  0.76960  0.21700  1.0000
  C   C5        1.0  0.00810  0.28090  0.94870  1.0000
  C   C6        1.0  0.99190  0.71910  0.05130  1.0000
  N   N9        1.0  0.05460  0.32650  0.87360  1.0000
  N   N10       1.0  0.94540  0.67350  0.12640  1.0000
  N   N11       1.0  0.09610  0.37130  0.03920  1.0000
  N   N12       1.0  0.90390  0.62870  0.96080  1.0000
  H   H9        1.0  0.18010  0.45620  0.04840  1.0000
  H   H10       1.0  0.81990  0.54380  0.95160  1.0000
  H   H11       1.0  0.06950  0.34540  0.08910  1.0000
  H   H12       1.0  0.93050  0.65460  0.91090  1.0000
  H   H13       1.0  0.36100  0.62100  0.65300  1.0000
  H   H14       1.0  0.63900  0.37900  0.34700  1.0000
  H   H15       1.0  0.17600  0.62300  0.68900  1.0000
  H   H16       1.0  0.82400  0.37700  0.31100  1.0000
  H   H17       1.0  0.75700  0.71800  0.46300  1.0000
  H   H18       1.0  0.24300  0.28200  0.53700  1.0000
  H   H19       1.0  0.50700  0.66800  0.45000  1.0000
  H   H20       1.0  0.49300  0.33200  0.55000  1.0000
