data_image0
_chemical_formula_structural       Fe6Na6O6C6O6C6O6C6O6C6O6C6O6C6O36
_chemical_formula_sum              "Fe6 Na6 O72 C36"
_cell_length_a       16.9954
_cell_length_b       16.9954
_cell_length_c       12.3838
_cell_angle_alpha    90
_cell_angle_beta     90
_cell_angle_gamma    120

_space_group_name_H-M_alt    "P 1"
_space_group_IT_number       1

loop_
  _space_group_symop_operation_xyz
  'x, y, z'

loop_
  _atom_site_type_symbol
  _atom_site_label
  _atom_site_symmetry_multiplicity
  _atom_site_fract_x
  _atom_site_fract_y
  _atom_site_fract_z
  _atom_site_occupancy
  Fe  Fe1       1.0  0.67205  0.67644  0.49287  1.0000
  Fe  Fe2       1.0  0.32356  0.99561  0.49287  1.0000
  Fe  Fe3       1.0  0.00439  0.32795  0.49287  1.0000
  Fe  Fe4       1.0  0.32356  0.32795  0.99287  1.0000
  Fe  Fe5       1.0  0.00439  0.67644  0.99287  1.0000
  Fe  Fe6       1.0  0.67205  0.99561  0.99287  1.0000
  Na  Na1       1.0  0.34305  0.33850  0.49330  1.0000
  Na  Na2       1.0  0.66150  0.00455  0.49330  1.0000
  Na  Na3       1.0  0.99545  0.65695  0.49330  1.0000
  Na  Na4       1.0  0.66150  0.65695  0.99330  1.0000
  Na  Na5       1.0  0.99545  0.33850  0.99330  1.0000
  Na  Na6       1.0  0.34305  0.00455  0.99330  1.0000
  O   O1        1.0  0.73660  0.62960  0.39970  1.0000
  O   O2        1.0  0.37040  0.10700  0.39970  1.0000
  O   O3        1.0  0.89300  0.26340  0.39970  1.0000
  O   O4        1.0  0.37040  0.26340  0.89970  1.0000
  O   O5        1.0  0.89300  0.62960  0.89970  1.0000
  O   O6        1.0  0.73660  0.10700  0.89970  1.0000
  C   C1        1.0  0.81020  0.63700  0.44190  1.0000
  C   C2        1.0  0.36300  0.17320  0.44190  1.0000
  C   C3        1.0  0.82680  0.18980  0.44190  1.0000
  C   C4        1.0  0.36300  0.18980  0.94190  1.0000
  C   C5        1.0  0.82680  0.63700  0.94190  1.0000
  C   C6        1.0  0.81020  0.17320  0.94190  1.0000
  O   O7        1.0  0.78710  0.72290  0.57860  1.0000
  O   O8        1.0  0.27710  0.06420  0.57860  1.0000
  O   O9        1.0  0.93580  0.21290  0.57860  1.0000
  O   O10       1.0  0.27710  0.21290  0.07860  1.0000
  O   O11       1.0  0.93580  0.72290  0.07860  1.0000
  O   O12       1.0  0.78710  0.06420  0.07860  1.0000
  C   C7        1.0  0.84030  0.69360  0.54760  1.0000
  C   C8        1.0  0.30640  0.14670  0.54760  1.0000
  C   C9        1.0  0.85330  0.15970  0.54760  1.0000
  C   C10       1.0  0.30640  0.15970  0.04760  1.0000
  C   C11       1.0  0.85330  0.69360  0.04760  1.0000
  C   C12       1.0  0.84030  0.14670  0.04760  1.0000
  O   O13       1.0  0.85340  0.60340  0.40640  1.0000
  O   O14       1.0  0.39660  0.25000  0.40640  1.0000
  O   O15       1.0  0.75000  0.14660  0.40640  1.0000
  O   O16       1.0  0.39660  0.14660  0.90640  1.0000
  O   O17       1.0  0.75000  0.60340  0.90640  1.0000
  O   O18       1.0  0.85340  0.25000  0.90640  1.0000
  C   C13       1.0  0.52950  0.50260  0.54700  1.0000
  C   C14       1.0  0.49740  0.02690  0.54700  1.0000
  C   C15       1.0  0.97310  0.47050  0.54700  1.0000
  C   C16       1.0  0.49740  0.47050  0.04700  1.0000
  C   C17       1.0  0.97310  0.50260  0.04700  1.0000
  C   C18       1.0  0.52950  0.02690  0.04700  1.0000
  O   O19       1.0  0.91030  0.70720  0.59120  1.0000
  O   O20       1.0  0.29280  0.20310  0.59120  1.0000
  O   O21       1.0  0.79690  0.08970  0.59120  1.0000
  O   O22       1.0  0.29280  0.08970  0.09120  1.0000
  O   O23       1.0  0.79690  0.70720  0.09120  1.0000
  O   O24       1.0  0.91030  0.20310  0.09120  1.0000
  C   C19       1.0  0.49990  0.52990  0.44180  1.0000
  C   C20       1.0  0.47010  0.97000  0.44180  1.0000
  C   C21       1.0  0.03000  0.50010  0.44180  1.0000
  C   C22       1.0  0.47010  0.50010  0.94180  1.0000
  C   C23       1.0  0.03000  0.52990  0.94180  1.0000
  C   C24       1.0  0.49990  0.97000  0.94180  1.0000
  O   O25       1.0  0.60980  0.56060  0.57970  1.0000
  O   O26       1.0  0.43940  0.04920  0.57970  1.0000
  O   O27       1.0  0.95080  0.39020  0.57970  1.0000
  O   O28       1.0  0.43940  0.39020  0.07970  1.0000
  O   O29       1.0  0.95080  0.56060  0.07970  1.0000
  O   O30       1.0  0.60980  0.04920  0.07970  1.0000
  C   C25       1.0  0.63850  0.81790  0.54680  1.0000
  C   C26       1.0  0.18210  0.82060  0.54680  1.0000
  C   C27       1.0  0.17940  0.36150  0.54680  1.0000
  C   C28       1.0  0.18210  0.36150  0.04680  1.0000
  C   C29       1.0  0.17940  0.81790  0.04680  1.0000
  C   C30       1.0  0.63850  0.82060  0.04680  1.0000
  O   O31       1.0  0.55550  0.61020  0.40820  1.0000
  O   O32       1.0  0.38980  0.94530  0.40820  1.0000
  O   O33       1.0  0.05470  0.44450  0.40820  1.0000
  O   O34       1.0  0.38980  0.44450  0.90820  1.0000
  O   O35       1.0  0.05470  0.61020  0.90820  1.0000
  O   O36       1.0  0.55550  0.94530  0.90820  1.0000
  C   C31       1.0  0.69880  0.85000  0.44450  1.0000
  C   C32       1.0  0.15000  0.84880  0.44450  1.0000
  C   C33       1.0  0.15120  0.30120  0.44450  1.0000
  C   C34       1.0  0.15000  0.30120  0.94450  1.0000
  C   C35       1.0  0.15120  0.85000  0.94450  1.0000
  C   C36       1.0  0.69880  0.84880  0.94450  1.0000
  O   O37       1.0  0.47740  0.42950  0.58960  1.0000
  O   O38       1.0  0.57050  0.04790  0.58960  1.0000
  O   O39       1.0  0.95210  0.52260  0.58960  1.0000
  O   O40       1.0  0.57050  0.52260  0.08960  1.0000
  O   O41       1.0  0.95210  0.42950  0.08960  1.0000
  O   O42       1.0  0.47740  0.04790  0.08960  1.0000
  O   O43       1.0  0.42830  0.47480  0.39820  1.0000
  O   O44       1.0  0.52520  0.95350  0.39820  1.0000
  O   O45       1.0  0.04650  0.57170  0.39820  1.0000
  O   O46       1.0  0.52520  0.57170  0.89820  1.0000
  O   O47       1.0  0.04650  0.47480  0.89820  1.0000
  O   O48       1.0  0.42830  0.95350  0.89820  1.0000
  O   O49       1.0  0.62660  0.74290  0.58490  1.0000
  O   O50       1.0  0.25710  0.88370  0.58490  1.0000
  O   O51       1.0  0.11630  0.37340  0.58490  1.0000
  O   O52       1.0  0.25710  0.37340  0.08490  1.0000
  O   O53       1.0  0.11630  0.74290  0.08490  1.0000
  O   O54       1.0  0.62660  0.88370  0.08490  1.0000
  O   O55       1.0  0.71620  0.79020  0.40500  1.0000
  O   O56       1.0  0.20980  0.92600  0.40500  1.0000
  O   O57       1.0  0.07400  0.28380  0.40500  1.0000
  O   O58       1.0  0.20980  0.28380  0.90500  1.0000
  O   O59       1.0  0.07400  0.79020  0.90500  1.0000
  O   O60       1.0  0.71620  0.92600  0.90500  1.0000
  O   O61       1.0  0.72570  0.92600  0.40770  1.0000
  O   O62       1.0  0.07400  0.79970  0.40770  1.0000
  O   O63       1.0  0.20030  0.27430  0.40770  1.0000
  O   O64       1.0  0.07400  0.27430  0.90770  1.0000
  O   O65       1.0  0.20030  0.92600  0.90770  1.0000
  O   O66       1.0  0.72570  0.79970  0.90770  1.0000
  O   O67       1.0  0.60700  0.86400  0.58300  1.0000
  O   O68       1.0  0.13600  0.74300  0.58300  1.0000
  O   O69       1.0  0.25700  0.39300  0.58300  1.0000
  O   O70       1.0  0.13600  0.39300  0.08300  1.0000
  O   O71       1.0  0.25700  0.86400  0.08300  1.0000
  O   O72       1.0  0.60700  0.74300  0.08300  1.0000
