data_image0
_chemical_formula_structural       O18C18Fe6O54C18Na6
_chemical_formula_sum              "O72 C36 Fe6 Na6"
_cell_length_a       9.887
_cell_length_b       9.887
_cell_length_c       37.03
_cell_angle_alpha    90
_cell_angle_beta     90
_cell_angle_gamma    120

_space_group_name_H-M_alt    "P 1"
_space_group_IT_number       1

loop_
  _space_group_symop_operation_xyz
  'x, y, z'

loop_
  _atom_site_type_symbol
  _atom_site_label
  _atom_site_symmetry_multiplicity
  _atom_site_fract_x
  _atom_site_fract_y
  _atom_site_fract_z
  _atom_site_occupancy
  O   O1        1.0  0.64210  0.10360  0.41951  1.0000
  O   O2        1.0  0.89640  0.53850  0.41951  1.0000
  O   O3        1.0  0.46150  0.35790  0.41951  1.0000
  O   O4        1.0  0.89640  0.35790  0.91951  1.0000
  O   O5        1.0  0.46150  0.10360  0.91951  1.0000
  O   O6        1.0  0.64210  0.53850  0.91951  1.0000
  O   O7        1.0  0.30877  0.43693  0.75284  1.0000
  O   O8        1.0  0.56307  0.87183  0.75284  1.0000
  O   O9        1.0  0.12817  0.69123  0.75284  1.0000
  O   O10       1.0  0.56307  0.69123  0.25284  1.0000
  O   O11       1.0  0.12817  0.43693  0.25284  1.0000
  O   O12       1.0  0.30877  0.87183  0.25284  1.0000
  O   O13       1.0  0.97543  0.77027  0.08618  1.0000
  O   O14       1.0  0.22973  0.20517  0.08618  1.0000
  O   O15       1.0  0.79483  0.02457  0.08618  1.0000
  O   O16       1.0  0.22973  0.02457  0.58618  1.0000
  O   O17       1.0  0.79483  0.77027  0.58618  1.0000
  O   O18       1.0  0.97543  0.20517  0.58618  1.0000
  C   C1        1.0  0.53930  0.98250  0.40668  1.0000
  C   C2        1.0  0.01750  0.55680  0.40668  1.0000
  C   C3        1.0  0.44320  0.46070  0.40668  1.0000
  C   C4        1.0  0.01750  0.46070  0.90668  1.0000
  C   C5        1.0  0.44320  0.98250  0.90668  1.0000
  C   C6        1.0  0.53930  0.55680  0.90668  1.0000
  C   C7        1.0  0.20597  0.31583  0.74001  1.0000
  C   C8        1.0  0.68417  0.89013  0.74001  1.0000
  C   C9        1.0  0.10987  0.79403  0.74001  1.0000
  C   C10       1.0  0.68417  0.79403  0.24001  1.0000
  C   C11       1.0  0.10987  0.31583  0.24001  1.0000
  C   C12       1.0  0.20597  0.89013  0.24001  1.0000
  C   C13       1.0  0.87263  0.64917  0.07335  1.0000
  C   C14       1.0  0.35083  0.22347  0.07335  1.0000
  C   C15       1.0  0.77653  0.12737  0.07335  1.0000
  C   C16       1.0  0.35083  0.12737  0.57335  1.0000
  C   C17       1.0  0.77653  0.64917  0.57335  1.0000
  C   C18       1.0  0.87263  0.22347  0.57335  1.0000
  Fe  Fe1       1.0  0.33330  0.66670  0.38855  1.0000
  Fe  Fe2       1.0  0.33330  0.66670  0.88855  1.0000
  Fe  Fe3       1.0  0.99997  0.00003  0.72188  1.0000
  Fe  Fe4       1.0  0.99997  0.00003  0.22188  1.0000
  Fe  Fe5       1.0  0.66663  0.33337  0.05522  1.0000
  Fe  Fe6       1.0  0.66663  0.33337  0.55522  1.0000
  O   O19       1.0  0.34980  0.84780  0.36007  1.0000
  O   O20       1.0  0.15220  0.50200  0.36007  1.0000
  O   O21       1.0  0.49800  0.65020  0.36007  1.0000
  O   O22       1.0  0.15220  0.65020  0.86007  1.0000
  O   O23       1.0  0.49800  0.84780  0.86007  1.0000
  O   O24       1.0  0.34980  0.50200  0.86007  1.0000
  O   O25       1.0  0.01647  0.18113  0.69340  1.0000
  O   O26       1.0  0.81887  0.83533  0.69340  1.0000
  O   O27       1.0  0.16467  0.98353  0.69340  1.0000
  O   O28       1.0  0.81887  0.98353  0.19340  1.0000
  O   O29       1.0  0.16467  0.18113  0.19340  1.0000
  O   O30       1.0  0.01647  0.83533  0.19340  1.0000
  O   O31       1.0  0.68313  0.51447  0.02674  1.0000
  O   O32       1.0  0.48553  0.16867  0.02674  1.0000
  O   O33       1.0  0.83133  0.31687  0.02674  1.0000
  O   O34       1.0  0.48553  0.31687  0.52674  1.0000
  O   O35       1.0  0.83133  0.51447  0.52674  1.0000
  O   O36       1.0  0.68313  0.16867  0.52674  1.0000
  O   O37       1.0  0.48680  0.10920  0.35777  1.0000
  O   O38       1.0  0.89080  0.37760  0.35777  1.0000
  O   O39       1.0  0.62240  0.51320  0.35777  1.0000
  O   O40       1.0  0.89080  0.51320  0.85777  1.0000
  O   O41       1.0  0.62240  0.10920  0.85777  1.0000
  O   O42       1.0  0.48680  0.37760  0.85777  1.0000
  O   O43       1.0  0.15347  0.44253  0.69110  1.0000
  O   O44       1.0  0.55747  0.71093  0.69110  1.0000
  O   O45       1.0  0.28907  0.84653  0.69110  1.0000
  O   O46       1.0  0.55747  0.84653  0.19110  1.0000
  O   O47       1.0  0.28907  0.44253  0.19110  1.0000
  O   O48       1.0  0.15347  0.71093  0.19110  1.0000
  O   O49       1.0  0.82013  0.77587  0.02444  1.0000
  O   O50       1.0  0.22413  0.04427  0.02444  1.0000
  O   O51       1.0  0.95573  0.17987  0.02444  1.0000
  O   O52       1.0  0.22413  0.17987  0.52444  1.0000
  O   O53       1.0  0.95573  0.77587  0.52444  1.0000
  O   O54       1.0  0.82013  0.04427  0.52444  1.0000
  O   O55       1.0  0.49030  0.84450  0.41939  1.0000
  O   O56       1.0  0.15550  0.64580  0.41939  1.0000
  O   O57       1.0  0.35420  0.50970  0.41939  1.0000
  O   O58       1.0  0.15550  0.50970  0.91939  1.0000
  O   O59       1.0  0.35420  0.84450  0.91939  1.0000
  O   O60       1.0  0.49030  0.64580  0.91939  1.0000
  O   O61       1.0  0.15697  0.17783  0.75272  1.0000
  O   O62       1.0  0.82217  0.97913  0.75272  1.0000
  O   O63       1.0  0.02087  0.84303  0.75272  1.0000
  O   O64       1.0  0.82217  0.84303  0.25272  1.0000
  O   O65       1.0  0.02087  0.17783  0.25272  1.0000
  O   O66       1.0  0.15697  0.97913  0.25272  1.0000
  O   O67       1.0  0.82363  0.51117  0.08606  1.0000
  O   O68       1.0  0.48883  0.31247  0.08606  1.0000
  O   O69       1.0  0.68753  0.17637  0.08606  1.0000
  O   O70       1.0  0.48883  0.17637  0.58606  1.0000
  O   O71       1.0  0.68753  0.51117  0.58606  1.0000
  O   O72       1.0  0.82363  0.31247  0.58606  1.0000
  C   C19       1.0  0.45330  0.98340  0.37131  1.0000
  C   C20       1.0  0.01660  0.46990  0.37131  1.0000
  C   C21       1.0  0.53010  0.54670  0.37131  1.0000
  C   C22       1.0  0.01660  0.54670  0.87131  1.0000
  C   C23       1.0  0.53010  0.98340  0.87131  1.0000
  C   C24       1.0  0.45330  0.46990  0.87131  1.0000
  C   C25       1.0  0.11997  0.31673  0.70464  1.0000
  C   C26       1.0  0.68327  0.80323  0.70464  1.0000
  C   C27       1.0  0.19677  0.88003  0.70464  1.0000
  C   C28       1.0  0.68327  0.88003  0.20464  1.0000
  C   C29       1.0  0.19677  0.31673  0.20464  1.0000
  C   C30       1.0  0.11997  0.80323  0.20464  1.0000
  C   C31       1.0  0.78663  0.65007  0.03798  1.0000
  C   C32       1.0  0.34993  0.13657  0.03798  1.0000
  C   C33       1.0  0.86343  0.21337  0.03798  1.0000
  C   C34       1.0  0.34993  0.21337  0.53798  1.0000
  C   C35       1.0  0.86343  0.65007  0.53798  1.0000
  C   C36       1.0  0.78663  0.13657  0.53798  1.0000
  Na  Na1       1.0  0.66670  0.33330  0.39180  1.0000
  Na  Na2       1.0  0.66670  0.33330  0.89180  1.0000
  Na  Na3       1.0  0.33337  0.66663  0.72513  1.0000
  Na  Na4       1.0  0.33337  0.66663  0.22513  1.0000
  Na  Na5       1.0  0.00003  0.99997  0.05847  1.0000
  Na  Na6       1.0  0.00003  0.99997  0.55847  1.0000
