data_image0
_chemical_formula_structural       Fe6Na6O6C6O6C6O6C6O6C6O6C6O6C6O36
_chemical_formula_sum              "Fe6 Na6 O72 C36"
_cell_length_a       17.0033
_cell_length_b       17.0033
_cell_length_c       12.416
_cell_angle_alpha    90
_cell_angle_beta     90
_cell_angle_gamma    120

_space_group_name_H-M_alt    "P 1"
_space_group_IT_number       1

loop_
  _space_group_symop_operation_xyz
  'x, y, z'

loop_
  _atom_site_type_symbol
  _atom_site_label
  _atom_site_symmetry_multiplicity
  _atom_site_fract_x
  _atom_site_fract_y
  _atom_site_fract_z
  _atom_site_occupancy
  Fe  Fe1       1.0  0.33871  0.32888  0.50060  1.0000
  Fe  Fe2       1.0  0.67112  0.00983  0.50060  1.0000
  Fe  Fe3       1.0  0.99017  0.66129  0.50060  1.0000
  Fe  Fe4       1.0  0.67112  0.66129  0.00060  1.0000
  Fe  Fe5       1.0  0.99017  0.32888  0.00060  1.0000
  Fe  Fe6       1.0  0.33871  0.00983  0.00060  1.0000
  Na  Na1       1.0  0.00970  0.33807  0.50093  1.0000
  Na  Na2       1.0  0.66193  0.67163  0.50093  1.0000
  Na  Na3       1.0  0.32837  0.99030  0.50093  1.0000
  Na  Na4       1.0  0.66193  0.99030  0.00093  1.0000
  Na  Na5       1.0  0.32837  0.33807  0.00093  1.0000
  Na  Na6       1.0  0.00970  0.67163  0.00093  1.0000
  O   O1        1.0  0.27689  0.38268  0.41410  1.0000
  O   O2        1.0  0.61732  0.89421  0.41410  1.0000
  O   O3        1.0  0.10579  0.72311  0.41410  1.0000
  O   O4        1.0  0.61732  0.72311  0.91410  1.0000
  O   O5        1.0  0.10579  0.38268  0.91410  1.0000
  O   O6        1.0  0.27689  0.89421  0.91410  1.0000
  C   C1        1.0  0.19671  0.36122  0.44711  1.0000
  C   C2        1.0  0.63878  0.83549  0.44711  1.0000
  C   C3        1.0  0.16451  0.80329  0.44711  1.0000
  C   C4        1.0  0.63878  0.80329  0.94711  1.0000
  C   C5        1.0  0.16451  0.36122  0.94711  1.0000
  C   C6        1.0  0.19671  0.83549  0.94711  1.0000
  O   O7        1.0  0.22252  0.27891  0.58596  1.0000
  O   O8        1.0  0.72109  0.94361  0.58596  1.0000
  O   O9        1.0  0.05639  0.77748  0.58596  1.0000
  O   O10       1.0  0.72109  0.77748  0.08596  1.0000
  O   O11       1.0  0.05639  0.27891  0.08596  1.0000
  O   O12       1.0  0.22252  0.94361  0.08596  1.0000
  C   C7        1.0  0.16725  0.30439  0.55232  1.0000
  C   C8        1.0  0.69561  0.86286  0.55232  1.0000
  C   C9        1.0  0.13714  0.83275  0.55232  1.0000
  C   C10       1.0  0.69561  0.83275  0.05232  1.0000
  C   C11       1.0  0.13714  0.30439  0.05232  1.0000
  C   C12       1.0  0.16725  0.86286  0.05232  1.0000
  O   O13       1.0  0.09517  0.28695  0.59517  1.0000
  O   O14       1.0  0.71305  0.80822  0.59517  1.0000
  O   O15       1.0  0.19178  0.90483  0.59517  1.0000
  O   O16       1.0  0.71305  0.90483  0.09517  1.0000
  O   O17       1.0  0.19178  0.28695  0.09517  1.0000
  O   O18       1.0  0.09517  0.80822  0.09517  1.0000
  C   C13       1.0  0.47612  0.50566  0.55221  1.0000
  C   C14       1.0  0.49434  0.97046  0.55221  1.0000
  C   C15       1.0  0.02954  0.52388  0.55221  1.0000
  C   C16       1.0  0.49434  0.52388  0.05221  1.0000
  C   C17       1.0  0.02954  0.50566  0.05221  1.0000
  C   C18       1.0  0.47612  0.97046  0.05221  1.0000
  O   O19       1.0  0.14466  0.38193  0.40416  1.0000
  O   O20       1.0  0.61807  0.76273  0.40416  1.0000
  O   O21       1.0  0.23727  0.85534  0.40416  1.0000
  O   O22       1.0  0.61807  0.85534  0.90416  1.0000
  O   O23       1.0  0.23727  0.38193  0.90416  1.0000
  O   O24       1.0  0.14466  0.76273  0.90416  1.0000
  C   C19       1.0  0.50706  0.47956  0.44697  1.0000
  C   C20       1.0  0.52044  0.02750  0.44697  1.0000
  C   C21       1.0  0.97250  0.49294  0.44697  1.0000
  C   C22       1.0  0.52044  0.49294  0.94697  1.0000
  C   C23       1.0  0.97250  0.47956  0.94697  1.0000
  C   C24       1.0  0.50706  0.02750  0.94697  1.0000
  O   O25       1.0  0.40303  0.43982  0.59373  1.0000
  O   O26       1.0  0.56018  0.96321  0.59373  1.0000
  O   O27       1.0  0.03679  0.59697  0.59373  1.0000
  O   O28       1.0  0.56018  0.59697  0.09373  1.0000
  O   O29       1.0  0.03679  0.43982  0.09373  1.0000
  O   O30       1.0  0.40303  0.96321  0.09373  1.0000
  C   C25       1.0  0.30503  0.15399  0.44735  1.0000
  C   C26       1.0  0.84601  0.15104  0.44735  1.0000
  C   C27       1.0  0.84896  0.69497  0.44735  1.0000
  C   C28       1.0  0.84601  0.69497  0.94735  1.0000
  C   C29       1.0  0.84896  0.15399  0.94735  1.0000
  C   C30       1.0  0.30503  0.15104  0.94735  1.0000
  O   O31       1.0  0.45425  0.39741  0.41552  1.0000
  O   O32       1.0  0.60259  0.05684  0.41552  1.0000
  O   O33       1.0  0.94316  0.54575  0.41552  1.0000
  O   O34       1.0  0.60259  0.54575  0.91552  1.0000
  O   O35       1.0  0.94316  0.39741  0.91552  1.0000
  O   O36       1.0  0.45425  0.05684  0.91552  1.0000
  C   C31       1.0  0.36520  0.18220  0.55001  1.0000
  C   C32       1.0  0.81780  0.18300  0.55001  1.0000
  C   C33       1.0  0.81700  0.63480  0.55001  1.0000
  C   C34       1.0  0.81780  0.63480  0.05001  1.0000
  C   C35       1.0  0.81700  0.18220  0.05001  1.0000
  C   C36       1.0  0.36520  0.18300  0.05001  1.0000
  O   O37       1.0  0.57692  0.53601  0.40228  1.0000
  O   O38       1.0  0.46399  0.04091  0.40228  1.0000
  O   O39       1.0  0.95909  0.42308  0.40228  1.0000
  O   O40       1.0  0.46399  0.42308  0.90228  1.0000
  O   O41       1.0  0.95909  0.53601  0.90228  1.0000
  O   O42       1.0  0.57692  0.04091  0.90228  1.0000
  O   O43       1.0  0.52014  0.58300  0.58806  1.0000
  O   O44       1.0  0.41700  0.93714  0.58806  1.0000
  O   O45       1.0  0.06286  0.47986  0.58806  1.0000
  O   O46       1.0  0.41700  0.47986  0.08806  1.0000
  O   O47       1.0  0.06286  0.58300  0.08806  1.0000
  O   O48       1.0  0.52014  0.93714  0.08806  1.0000
  O   O49       1.0  0.29302  0.21685  0.40828  1.0000
  O   O50       1.0  0.78315  0.07617  0.40828  1.0000
  O   O51       1.0  0.92383  0.70698  0.40828  1.0000
  O   O52       1.0  0.78315  0.70698  0.90828  1.0000
  O   O53       1.0  0.92383  0.21685  0.90828  1.0000
  O   O54       1.0  0.29302  0.07617  0.90828  1.0000
  O   O55       1.0  0.38244  0.25977  0.58862  1.0000
  O   O56       1.0  0.74023  0.12267  0.58862  1.0000
  O   O57       1.0  0.87733  0.61756  0.58862  1.0000
  O   O58       1.0  0.74023  0.61756  0.08862  1.0000
  O   O59       1.0  0.87733  0.25977  0.08862  1.0000
  O   O60       1.0  0.38244  0.12267  0.08862  1.0000
  O   O61       1.0  0.27309  0.07639  0.41161  1.0000
  O   O62       1.0  0.92361  0.19670  0.41161  1.0000
  O   O63       1.0  0.80330  0.72691  0.41161  1.0000
  O   O64       1.0  0.92361  0.72691  0.91161  1.0000
  O   O65       1.0  0.80330  0.07639  0.91161  1.0000
  O   O66       1.0  0.27309  0.19670  0.91161  1.0000
  O   O67       1.0  0.39226  0.13305  0.58649  1.0000
  O   O68       1.0  0.86695  0.25921  0.58649  1.0000
  O   O69       1.0  0.74079  0.60774  0.58649  1.0000
  O   O70       1.0  0.86695  0.60774  0.08649  1.0000
  O   O71       1.0  0.74079  0.13305  0.08649  1.0000
  O   O72       1.0  0.39226  0.25921  0.08649  1.0000
