data_image0
_chemical_formula_structural       C36O72Fe6Na6
_chemical_formula_sum              "C36 O72 Fe6 Na6"
_cell_length_a       17.0483
_cell_length_b       17.0483
_cell_length_c       12.4218
_cell_angle_alpha    90
_cell_angle_beta     90
_cell_angle_gamma    120

_space_group_name_H-M_alt    "P 1"
_space_group_IT_number       1

loop_
  _space_group_symop_operation_xyz
  'x, y, z'

loop_
  _atom_site_type_symbol
  _atom_site_label
  _atom_site_symmetry_multiplicity
  _atom_site_fract_x
  _atom_site_fract_y
  _atom_site_fract_z
  _atom_site_occupancy
  C   C1        1.0  0.82840  0.63730  0.08520  1.0000
  C   C2        1.0  0.36270  0.19110  0.08520  1.0000
  C   C3        1.0  0.80890  0.17160  0.08520  1.0000
  C   C4        1.0  0.36270  0.17160  0.58520  1.0000
  C   C5        1.0  0.80890  0.63730  0.58520  1.0000
  C   C6        1.0  0.82840  0.19110  0.58520  1.0000
  C   C7        1.0  0.85360  0.69280  0.18950  1.0000
  C   C8        1.0  0.30720  0.16080  0.18950  1.0000
  C   C9        1.0  0.83920  0.14640  0.18950  1.0000
  C   C10       1.0  0.30720  0.14640  0.68950  1.0000
  C   C11       1.0  0.83920  0.69280  0.68950  1.0000
  C   C12       1.0  0.85360  0.16080  0.68950  1.0000
  C   C13       1.0  0.18000  0.81890  0.18910  1.0000
  C   C14       1.0  0.18110  0.36110  0.18910  1.0000
  C   C15       1.0  0.63890  0.82000  0.18910  1.0000
  C   C16       1.0  0.18110  0.82000  0.68910  1.0000
  C   C17       1.0  0.63890  0.81890  0.68910  1.0000
  C   C18       1.0  0.18000  0.36110  0.68910  1.0000
  C   C19       1.0  0.15040  0.84900  0.08740  1.0000
  C   C20       1.0  0.15100  0.30140  0.08740  1.0000
  C   C21       1.0  0.69860  0.84960  0.08740  1.0000
  C   C22       1.0  0.15100  0.84960  0.58740  1.0000
  C   C23       1.0  0.69860  0.84900  0.58740  1.0000
  C   C24       1.0  0.15040  0.30140  0.58740  1.0000
  C   C25       1.0  0.97400  0.50390  0.18970  1.0000
  C   C26       1.0  0.49610  0.47010  0.18970  1.0000
  C   C27       1.0  0.52990  0.02600  0.18970  1.0000
  C   C28       1.0  0.49610  0.02600  0.68970  1.0000
  C   C29       1.0  0.52990  0.50390  0.68970  1.0000
  C   C30       1.0  0.97400  0.47010  0.68970  1.0000
  C   C31       1.0  0.02990  0.53030  0.08500  1.0000
  C   C32       1.0  0.46970  0.49960  0.08500  1.0000
  C   C33       1.0  0.50040  0.97010  0.08500  1.0000
  C   C34       1.0  0.46970  0.97010  0.58500  1.0000
  C   C35       1.0  0.50040  0.53030  0.58500  1.0000
  C   C36       1.0  0.02990  0.49960  0.58500  1.0000
  O   O1        1.0  0.89360  0.62950  0.04220  1.0000
  O   O2        1.0  0.37050  0.26410  0.04220  1.0000
  O   O3        1.0  0.73590  0.10640  0.04220  1.0000
  O   O4        1.0  0.37050  0.10640  0.54220  1.0000
  O   O5        1.0  0.73590  0.62950  0.54220  1.0000
  O   O6        1.0  0.89360  0.26410  0.54220  1.0000
  O   O7        1.0  0.93570  0.72230  0.22030  1.0000
  O   O8        1.0  0.27770  0.21340  0.22030  1.0000
  O   O9        1.0  0.78660  0.06430  0.22030  1.0000
  O   O10       1.0  0.27770  0.06430  0.72030  1.0000
  O   O11       1.0  0.78660  0.72230  0.72030  1.0000
  O   O12       1.0  0.93570  0.21340  0.72030  1.0000
  O   O13       1.0  0.75170  0.60380  0.04880  1.0000
  O   O14       1.0  0.39620  0.14790  0.04880  1.0000
  O   O15       1.0  0.85210  0.24830  0.04880  1.0000
  O   O16       1.0  0.39620  0.24830  0.54880  1.0000
  O   O17       1.0  0.85210  0.60380  0.54880  1.0000
  O   O18       1.0  0.75170  0.14790  0.54880  1.0000
  O   O19       1.0  0.79720  0.70640  0.23190  1.0000
  O   O20       1.0  0.29360  0.09080  0.23190  1.0000
  O   O21       1.0  0.90920  0.20280  0.23190  1.0000
  O   O22       1.0  0.29360  0.20280  0.73190  1.0000
  O   O23       1.0  0.90920  0.70640  0.73190  1.0000
  O   O24       1.0  0.79720  0.09080  0.73190  1.0000
  O   O25       1.0  0.11700  0.74400  0.22650  1.0000
  O   O26       1.0  0.25600  0.37300  0.22650  1.0000
  O   O27       1.0  0.62700  0.88300  0.22650  1.0000
  O   O28       1.0  0.25600  0.88300  0.72650  1.0000
  O   O29       1.0  0.62700  0.74400  0.72650  1.0000
  O   O30       1.0  0.11700  0.37300  0.72650  1.0000
  O   O31       1.0  0.07390  0.79040  0.04760  1.0000
  O   O32       1.0  0.20960  0.28350  0.04760  1.0000
  O   O33       1.0  0.71650  0.92610  0.04760  1.0000
  O   O34       1.0  0.20960  0.92610  0.54760  1.0000
  O   O35       1.0  0.71650  0.79040  0.54760  1.0000
  O   O36       1.0  0.07390  0.28350  0.54760  1.0000
  O   O37       1.0  0.25660  0.86450  0.22420  1.0000
  O   O38       1.0  0.13550  0.39210  0.22420  1.0000
  O   O39       1.0  0.60790  0.74340  0.22420  1.0000
  O   O40       1.0  0.13550  0.74340  0.72420  1.0000
  O   O41       1.0  0.60790  0.86450  0.72420  1.0000
  O   O42       1.0  0.25660  0.39210  0.72420  1.0000
  O   O43       1.0  0.19950  0.92490  0.04880  1.0000
  O   O44       1.0  0.07510  0.27460  0.04880  1.0000
  O   O45       1.0  0.72540  0.80050  0.04880  1.0000
  O   O46       1.0  0.07510  0.80050  0.54880  1.0000
  O   O47       1.0  0.72540  0.92490  0.54880  1.0000
  O   O48       1.0  0.19950  0.27460  0.54880  1.0000
  O   O49       1.0  0.95230  0.56170  0.22150  1.0000
  O   O50       1.0  0.43830  0.39060  0.22150  1.0000
  O   O51       1.0  0.60940  0.04770  0.22150  1.0000
  O   O52       1.0  0.43830  0.04770  0.72150  1.0000
  O   O53       1.0  0.60940  0.56170  0.72150  1.0000
  O   O54       1.0  0.95230  0.39060  0.72150  1.0000
  O   O55       1.0  0.05480  0.61000  0.04990  1.0000
  O   O56       1.0  0.39000  0.44480  0.04990  1.0000
  O   O57       1.0  0.55520  0.94520  0.04990  1.0000
  O   O58       1.0  0.39000  0.94520  0.54990  1.0000
  O   O59       1.0  0.55520  0.61000  0.54990  1.0000
  O   O60       1.0  0.05480  0.44480  0.54990  1.0000
  O   O61       1.0  0.95300  0.43050  0.23150  1.0000
  O   O62       1.0  0.56950  0.52250  0.23150  1.0000
  O   O63       1.0  0.47750  0.04700  0.23150  1.0000
  O   O64       1.0  0.56950  0.04700  0.73150  1.0000
  O   O65       1.0  0.47750  0.43050  0.73150  1.0000
  O   O66       1.0  0.95300  0.52250  0.73150  1.0000
  O   O67       1.0  0.04600  0.47600  0.04040  1.0000
  O   O68       1.0  0.52400  0.57000  0.04040  1.0000
  O   O69       1.0  0.43000  0.95400  0.04040  1.0000
  O   O70       1.0  0.52400  0.95400  0.54040  1.0000
  O   O71       1.0  0.43000  0.47600  0.54040  1.0000
  O   O72       1.0  0.04600  0.57000  0.54040  1.0000
  Fe  Fe1       1.0  0.00474  0.67664  0.13550  1.0000
  Fe  Fe2       1.0  0.32336  0.32810  0.13550  1.0000
  Fe  Fe3       1.0  0.67190  0.99526  0.13550  1.0000
  Fe  Fe4       1.0  0.32336  0.99526  0.63550  1.0000
  Fe  Fe5       1.0  0.67190  0.67664  0.63550  1.0000
  Fe  Fe6       1.0  0.00474  0.32810  0.63550  1.0000
  Na  Na1       1.0  0.99530  0.33860  0.13390  1.0000
  Na  Na2       1.0  0.66140  0.65670  0.13390  1.0000
  Na  Na3       1.0  0.34330  0.00470  0.13390  1.0000
  Na  Na4       1.0  0.66140  0.00470  0.63390  1.0000
  Na  Na5       1.0  0.34330  0.33860  0.63390  1.0000
  Na  Na6       1.0  0.99530  0.65670  0.63390  1.0000
