data_image0
_chemical_formula_structural       Fe6Na6O18C18O18C18O36
_chemical_formula_sum              "Fe6 Na6 O72 C36"
_cell_length_a       9.867
_cell_length_b       9.867
_cell_length_c       36.735
_cell_angle_alpha    90
_cell_angle_beta     90
_cell_angle_gamma    120

_space_group_name_H-M_alt    "P 1"
_space_group_IT_number       1

loop_
  _space_group_symop_operation_xyz
  'x, y, z'

loop_
  _atom_site_type_symbol
  _atom_site_label
  _atom_site_symmetry_multiplicity
  _atom_site_fract_x
  _atom_site_fract_y
  _atom_site_fract_z
  _atom_site_occupancy
  Fe  Fe1       1.0  0.00000  0.00000  0.41809  1.0000
  Fe  Fe2       1.0  0.00000  0.00000  0.91809  1.0000
  Fe  Fe3       1.0  0.66667  0.33333  0.75142  1.0000
  Fe  Fe4       1.0  0.66667  0.33333  0.25142  1.0000
  Fe  Fe5       1.0  0.33333  0.66667  0.08476  1.0000
  Fe  Fe6       1.0  0.33333  0.66667  0.58476  1.0000
  Na  Na1       1.0  0.66667  0.33333  0.41486  1.0000
  Na  Na2       1.0  0.66667  0.33333  0.91486  1.0000
  Na  Na3       1.0  0.33334  0.66666  0.74819  1.0000
  Na  Na4       1.0  0.33334  0.66666  0.24819  1.0000
  Na  Na5       1.0  0.00000  1.00000  0.08153  1.0000
  Na  Na6       1.0  0.00000  1.00000  0.58153  1.0000
  O   O1        1.0  0.17758  0.15714  0.38721  1.0000
  O   O2        1.0  0.84286  0.02044  0.38721  1.0000
  O   O3        1.0  0.97956  0.82242  0.38721  1.0000
  O   O4        1.0  0.84286  0.82242  0.88721  1.0000
  O   O5        1.0  0.97956  0.15714  0.88721  1.0000
  O   O6        1.0  0.17758  0.02044  0.88721  1.0000
  O   O7        1.0  0.84425  0.49047  0.72054  1.0000
  O   O8        1.0  0.50953  0.35377  0.72054  1.0000
  O   O9        1.0  0.64623  0.15575  0.72054  1.0000
  O   O10       1.0  0.50953  0.15575  0.22054  1.0000
  O   O11       1.0  0.64623  0.49047  0.22054  1.0000
  O   O12       1.0  0.84425  0.35377  0.22054  1.0000
  O   O13       1.0  0.51091  0.82381  0.05388  1.0000
  O   O14       1.0  0.17619  0.68711  0.05388  1.0000
  O   O15       1.0  0.31289  0.48909  0.05388  1.0000
  O   O16       1.0  0.17619  0.48909  0.55388  1.0000
  O   O17       1.0  0.31289  0.82381  0.55388  1.0000
  O   O18       1.0  0.51091  0.68711  0.55388  1.0000
  C   C1        1.0  0.31470  0.20549  0.40002  1.0000
  C   C2        1.0  0.79451  0.10921  0.40002  1.0000
  C   C3        1.0  0.89079  0.68530  0.40002  1.0000
  C   C4        1.0  0.79451  0.68530  0.90002  1.0000
  C   C5        1.0  0.89079  0.20549  0.90002  1.0000
  C   C6        1.0  0.31470  0.10921  0.90002  1.0000
  C   C7        1.0  0.98137  0.53882  0.73335  1.0000
  C   C8        1.0  0.46118  0.44254  0.73335  1.0000
  C   C9        1.0  0.55746  0.01863  0.73335  1.0000
  C   C10       1.0  0.46118  0.01863  0.23335  1.0000
  C   C11       1.0  0.55746  0.53882  0.23335  1.0000
  C   C12       1.0  0.98137  0.44254  0.23335  1.0000
  C   C13       1.0  0.64803  0.87216  0.06669  1.0000
  C   C14       1.0  0.12784  0.77588  0.06669  1.0000
  C   C15       1.0  0.22412  0.35197  0.06669  1.0000
  C   C16       1.0  0.12784  0.35197  0.56669  1.0000
  C   C17       1.0  0.22412  0.87216  0.56669  1.0000
  C   C18       1.0  0.64803  0.77588  0.56669  1.0000
  O   O19       1.0  0.18138  0.01664  0.44663  1.0000
  O   O20       1.0  0.98336  0.16474  0.44663  1.0000
  O   O21       1.0  0.83526  0.81862  0.44663  1.0000
  O   O22       1.0  0.98336  0.81862  0.94663  1.0000
  O   O23       1.0  0.83526  0.01664  0.94663  1.0000
  O   O24       1.0  0.18138  0.16474  0.94663  1.0000
  O   O25       1.0  0.84805  0.34997  0.77996  1.0000
  O   O26       1.0  0.65003  0.49807  0.77996  1.0000
  O   O27       1.0  0.50193  0.15195  0.77996  1.0000
  O   O28       1.0  0.65003  0.15195  0.27996  1.0000
  O   O29       1.0  0.50193  0.34997  0.27996  1.0000
  O   O30       1.0  0.84805  0.49807  0.27996  1.0000
  O   O31       1.0  0.51471  0.68331  0.11330  1.0000
  O   O32       1.0  0.31669  0.83141  0.11330  1.0000
  O   O33       1.0  0.16859  0.48529  0.11330  1.0000
  O   O34       1.0  0.31669  0.48529  0.61330  1.0000
  O   O35       1.0  0.16859  0.68331  0.61330  1.0000
  O   O36       1.0  0.51471  0.83141  0.61330  1.0000
  C   C19       1.0  0.31690  0.11990  0.43526  1.0000
  C   C20       1.0  0.88010  0.19700  0.43526  1.0000
  C   C21       1.0  0.80300  0.68310  0.43526  1.0000
  C   C22       1.0  0.88010  0.68310  0.93526  1.0000
  C   C23       1.0  0.80300  0.11990  0.93526  1.0000
  C   C24       1.0  0.31690  0.19700  0.93526  1.0000
  C   C25       1.0  0.98357  0.45323  0.76859  1.0000
  C   C26       1.0  0.54677  0.53033  0.76859  1.0000
  C   C27       1.0  0.46967  0.01643  0.76859  1.0000
  C   C28       1.0  0.54677  0.01643  0.26859  1.0000
  C   C29       1.0  0.46967  0.45323  0.26859  1.0000
  C   C30       1.0  0.98357  0.53033  0.26859  1.0000
  C   C31       1.0  0.65023  0.78657  0.10193  1.0000
  C   C32       1.0  0.21343  0.86367  0.10193  1.0000
  C   C33       1.0  0.13633  0.34977  0.10193  1.0000
  C   C34       1.0  0.21343  0.34977  0.60193  1.0000
  C   C35       1.0  0.13633  0.78657  0.60193  1.0000
  C   C36       1.0  0.65023  0.86367  0.60193  1.0000
  O   O37       1.0  0.44188  0.15296  0.44895  1.0000
  O   O38       1.0  0.84704  0.28892  0.44895  1.0000
  O   O39       1.0  0.71108  0.55812  0.44895  1.0000
  O   O40       1.0  0.84704  0.55812  0.94895  1.0000
  O   O41       1.0  0.71108  0.15296  0.94895  1.0000
  O   O42       1.0  0.44188  0.28892  0.94895  1.0000
  O   O43       1.0  0.10855  0.48629  0.78228  1.0000
  O   O44       1.0  0.51371  0.62225  0.78228  1.0000
  O   O45       1.0  0.37775  0.89145  0.78228  1.0000
  O   O46       1.0  0.51371  0.89145  0.28228  1.0000
  O   O47       1.0  0.37775  0.48629  0.28228  1.0000
  O   O48       1.0  0.10855  0.62225  0.28228  1.0000
  O   O49       1.0  0.77521  0.81963  0.11562  1.0000
  O   O50       1.0  0.18037  0.95559  0.11562  1.0000
  O   O51       1.0  0.04441  0.22479  0.11562  1.0000
  O   O52       1.0  0.18037  0.22479  0.61562  1.0000
  O   O53       1.0  0.04441  0.81963  0.61562  1.0000
  O   O54       1.0  0.77521  0.95559  0.61562  1.0000
  O   O55       1.0  0.43722  0.30863  0.38724  1.0000
  O   O56       1.0  0.69137  0.12859  0.38724  1.0000
  O   O57       1.0  0.87141  0.56278  0.38724  1.0000
  O   O58       1.0  0.69137  0.56278  0.88724  1.0000
  O   O59       1.0  0.87141  0.30863  0.88724  1.0000
  O   O60       1.0  0.43722  0.12859  0.88724  1.0000
  O   O61       1.0  0.10389  0.64196  0.72057  1.0000
  O   O62       1.0  0.35804  0.46192  0.72057  1.0000
  O   O63       1.0  0.53808  0.89611  0.72057  1.0000
  O   O64       1.0  0.35804  0.89611  0.22057  1.0000
  O   O65       1.0  0.53808  0.64196  0.22057  1.0000
  O   O66       1.0  0.10389  0.46192  0.22057  1.0000
  O   O67       1.0  0.77055  0.97530  0.05391  1.0000
  O   O68       1.0  0.02470  0.79526  0.05391  1.0000
  O   O69       1.0  0.20474  0.22945  0.05391  1.0000
  O   O70       1.0  0.02470  0.22945  0.55391  1.0000
  O   O71       1.0  0.20474  0.97530  0.55391  1.0000
  O   O72       1.0  0.77055  0.79526  0.55391  1.0000
