data_image0
_chemical_formula_structural       Fe6Na6O36C36O36
_chemical_formula_sum              "Fe6 Na6 O72 C36"
_cell_length_a       9.8367
_cell_length_b       9.8367
_cell_length_c       36.902
_cell_angle_alpha    90
_cell_angle_beta     90
_cell_angle_gamma    120

_space_group_name_H-M_alt    "P 1"
_space_group_IT_number       1

loop_
  _space_group_symop_operation_xyz
  'x, y, z'

loop_
  _atom_site_type_symbol
  _atom_site_label
  _atom_site_symmetry_multiplicity
  _atom_site_fract_x
  _atom_site_fract_y
  _atom_site_fract_z
  _atom_site_occupancy
  Fe  Fe1       1.0  0.66670  0.33330  0.07591  1.0000
  Fe  Fe2       1.0  0.66670  0.33330  0.57591  1.0000
  Fe  Fe3       1.0  0.33337  0.66663  0.40924  1.0000
  Fe  Fe4       1.0  0.33337  0.66663  0.90924  1.0000
  Fe  Fe5       1.0  0.00003  0.99997  0.74258  1.0000
  Fe  Fe6       1.0  0.00003  0.99997  0.24258  1.0000
  Na  Na1       1.0  0.33330  0.66670  0.07370  1.0000
  Na  Na2       1.0  0.33330  0.66670  0.57370  1.0000
  Na  Na3       1.0  0.99997  0.00003  0.40703  1.0000
  Na  Na4       1.0  0.99997  0.00003  0.90703  1.0000
  Na  Na5       1.0  0.66663  0.33337  0.74037  1.0000
  Na  Na6       1.0  0.66663  0.33337  0.24037  1.0000
  O   O1        1.0  0.53850  0.89420  0.04540  1.0000
  O   O2        1.0  0.10580  0.64430  0.04540  1.0000
  O   O3        1.0  0.35570  0.46150  0.04540  1.0000
  O   O4        1.0  0.10580  0.46150  0.54540  1.0000
  O   O5        1.0  0.35570  0.89420  0.54540  1.0000
  O   O6        1.0  0.53850  0.64430  0.54540  1.0000
  O   O7        1.0  0.20517  0.22753  0.37873  1.0000
  O   O8        1.0  0.77247  0.97763  0.37873  1.0000
  O   O9        1.0  0.02237  0.79483  0.37873  1.0000
  O   O10       1.0  0.77247  0.79483  0.87873  1.0000
  O   O11       1.0  0.02237  0.22753  0.87873  1.0000
  O   O12       1.0  0.20517  0.97763  0.87873  1.0000
  O   O13       1.0  0.87183  0.56087  0.71207  1.0000
  O   O14       1.0  0.43913  0.31097  0.71207  1.0000
  O   O15       1.0  0.68903  0.12817  0.71207  1.0000
  O   O16       1.0  0.43913  0.12817  0.21207  1.0000
  O   O17       1.0  0.68903  0.56087  0.21207  1.0000
  O   O18       1.0  0.87183  0.31097  0.21207  1.0000
  O   O19       1.0  0.64570  0.15540  0.04520  1.0000
  O   O20       1.0  0.84460  0.49030  0.04520  1.0000
  O   O21       1.0  0.50970  0.35430  0.04520  1.0000
  O   O22       1.0  0.84460  0.35430  0.54520  1.0000
  O   O23       1.0  0.50970  0.15540  0.54520  1.0000
  O   O24       1.0  0.64570  0.49030  0.54520  1.0000
  O   O25       1.0  0.31237  0.48873  0.37853  1.0000
  O   O26       1.0  0.51127  0.82363  0.37853  1.0000
  O   O27       1.0  0.17637  0.68763  0.37853  1.0000
  O   O28       1.0  0.51127  0.68763  0.87853  1.0000
  O   O29       1.0  0.17637  0.48873  0.87853  1.0000
  O   O30       1.0  0.31237  0.82363  0.87853  1.0000
  O   O31       1.0  0.97903  0.82207  0.71187  1.0000
  O   O32       1.0  0.17793  0.15697  0.71187  1.0000
  O   O33       1.0  0.84303  0.02097  0.71187  1.0000
  O   O34       1.0  0.17793  0.02097  0.21187  1.0000
  O   O35       1.0  0.84303  0.82207  0.21187  1.0000
  O   O36       1.0  0.97903  0.15697  0.21187  1.0000
  C   C1        1.0  0.46970  0.01850  0.09300  1.0000
  C   C2        1.0  0.98150  0.45120  0.09300  1.0000
  C   C3        1.0  0.54880  0.53030  0.09300  1.0000
  C   C4        1.0  0.98150  0.53030  0.59300  1.0000
  C   C5        1.0  0.54880  0.01850  0.59300  1.0000
  C   C6        1.0  0.46970  0.45120  0.59300  1.0000
  C   C7        1.0  0.13637  0.35183  0.42633  1.0000
  C   C8        1.0  0.64817  0.78453  0.42633  1.0000
  C   C9        1.0  0.21547  0.86363  0.42633  1.0000
  C   C10       1.0  0.64817  0.86363  0.92633  1.0000
  C   C11       1.0  0.21547  0.35183  0.92633  1.0000
  C   C12       1.0  0.13637  0.78453  0.92633  1.0000
  C   C13       1.0  0.80303  0.68517  0.75967  1.0000
  C   C14       1.0  0.31483  0.11787  0.75967  1.0000
  C   C15       1.0  0.88213  0.19697  0.75967  1.0000
  C   C16       1.0  0.31483  0.19697  0.25967  1.0000
  C   C17       1.0  0.88213  0.68517  0.25967  1.0000
  C   C18       1.0  0.80303  0.11787  0.25967  1.0000
  C   C19       1.0  0.55710  0.02000  0.05790  1.0000
  C   C20       1.0  0.98000  0.53710  0.05790  1.0000
  C   C21       1.0  0.46290  0.44290  0.05790  1.0000
  C   C22       1.0  0.98000  0.44290  0.55790  1.0000
  C   C23       1.0  0.46290  0.02000  0.55790  1.0000
  C   C24       1.0  0.55710  0.53710  0.55790  1.0000
  C   C25       1.0  0.22377  0.35333  0.39123  1.0000
  C   C26       1.0  0.64667  0.87043  0.39123  1.0000
  C   C27       1.0  0.12957  0.77623  0.39123  1.0000
  C   C28       1.0  0.64667  0.77623  0.89123  1.0000
  C   C29       1.0  0.12957  0.35333  0.89123  1.0000
  C   C30       1.0  0.22377  0.87043  0.89123  1.0000
  C   C31       1.0  0.89043  0.68667  0.72457  1.0000
  C   C32       1.0  0.31333  0.20377  0.72457  1.0000
  C   C33       1.0  0.79623  0.10957  0.72457  1.0000
  C   C34       1.0  0.31333  0.10957  0.22457  1.0000
  C   C35       1.0  0.79623  0.68667  0.22457  1.0000
  C   C36       1.0  0.89043  0.20377  0.22457  1.0000
  O   O37       1.0  0.50160  0.15040  0.10420  1.0000
  O   O38       1.0  0.84960  0.35120  0.10420  1.0000
  O   O39       1.0  0.64880  0.49840  0.10420  1.0000
  O   O40       1.0  0.84960  0.49840  0.60420  1.0000
  O   O41       1.0  0.64880  0.15040  0.60420  1.0000
  O   O42       1.0  0.50160  0.35120  0.60420  1.0000
  O   O43       1.0  0.16827  0.48373  0.43753  1.0000
  O   O44       1.0  0.51627  0.68453  0.43753  1.0000
  O   O45       1.0  0.31547  0.83173  0.43753  1.0000
  O   O46       1.0  0.51627  0.83173  0.93753  1.0000
  O   O47       1.0  0.31547  0.48373  0.93753  1.0000
  O   O48       1.0  0.16827  0.68453  0.93753  1.0000
  O   O49       1.0  0.83493  0.81707  0.77087  1.0000
  O   O50       1.0  0.18293  0.01787  0.77087  1.0000
  O   O51       1.0  0.98213  0.16507  0.77087  1.0000
  O   O52       1.0  0.18293  0.16507  0.27087  1.0000
  O   O53       1.0  0.98213  0.81707  0.27087  1.0000
  O   O54       1.0  0.83493  0.01787  0.27087  1.0000
  O   O55       1.0  0.37760  0.88990  0.10660  1.0000
  O   O56       1.0  0.11010  0.48770  0.10660  1.0000
  O   O57       1.0  0.51230  0.62240  0.10660  1.0000
  O   O58       1.0  0.11010  0.62240  0.60660  1.0000
  O   O59       1.0  0.51230  0.88990  0.60660  1.0000
  O   O60       1.0  0.37760  0.48770  0.60660  1.0000
  O   O61       1.0  0.04427  0.22323  0.43993  1.0000
  O   O62       1.0  0.77677  0.82103  0.43993  1.0000
  O   O63       1.0  0.17897  0.95573  0.43993  1.0000
  O   O64       1.0  0.77677  0.95573  0.93993  1.0000
  O   O65       1.0  0.17897  0.22323  0.93993  1.0000
  O   O66       1.0  0.04427  0.82103  0.93993  1.0000
  O   O67       1.0  0.71093  0.55657  0.77327  1.0000
  O   O68       1.0  0.44343  0.15437  0.77327  1.0000
  O   O69       1.0  0.84563  0.28907  0.77327  1.0000
  O   O70       1.0  0.44343  0.28907  0.27327  1.0000
  O   O71       1.0  0.84563  0.55657  0.27327  1.0000
  O   O72       1.0  0.71093  0.15437  0.27327  1.0000
