data_image0
_chemical_formula_structural       C36O72Al6Na6
_chemical_formula_sum              "C36 O72 Al6 Na6"
_cell_length_a       16.7567
_cell_length_b       16.7567
_cell_length_c       12.6466
_cell_angle_alpha    90
_cell_angle_beta     90
_cell_angle_gamma    120

_space_group_name_H-M_alt    "P 1"
_space_group_IT_number       1

loop_
  _space_group_symop_operation_xyz
  'x, y, z'

loop_
  _atom_site_type_symbol
  _atom_site_label
  _atom_site_symmetry_multiplicity
  _atom_site_fract_x
  _atom_site_fract_y
  _atom_site_fract_z
  _atom_site_occupancy
  C   C1        1.0  0.16680  0.36170  0.91490  1.0000
  C   C2        1.0  0.63830  0.80510  0.91490  1.0000
  C   C3        1.0  0.19490  0.83320  0.91490  1.0000
  C   C4        1.0  0.63830  0.83320  0.41490  1.0000
  C   C5        1.0  0.19490  0.36170  0.41490  1.0000
  C   C6        1.0  0.16680  0.80510  0.41490  1.0000
  C   C7        1.0  0.14160  0.30420  0.81230  1.0000
  C   C8        1.0  0.69580  0.83740  0.81230  1.0000
  C   C9        1.0  0.16260  0.85840  0.81230  1.0000
  C   C10       1.0  0.69580  0.85840  0.31230  1.0000
  C   C11       1.0  0.16260  0.30420  0.31230  1.0000
  C   C12       1.0  0.14160  0.83740  0.31230  1.0000
  C   C13       1.0  0.82510  0.18850  0.81280  1.0000
  C   C14       1.0  0.81150  0.63660  0.81280  1.0000
  C   C15       1.0  0.36340  0.17490  0.81280  1.0000
  C   C16       1.0  0.81150  0.17490  0.31280  1.0000
  C   C17       1.0  0.36340  0.18850  0.31280  1.0000
  C   C18       1.0  0.82510  0.63660  0.31280  1.0000
  C   C19       1.0  0.85540  0.15900  0.91420  1.0000
  C   C20       1.0  0.84100  0.69640  0.91420  1.0000
  C   C21       1.0  0.30360  0.14460  0.91420  1.0000
  C   C22       1.0  0.84100  0.14460  0.41420  1.0000
  C   C23       1.0  0.30360  0.15900  0.41420  1.0000
  C   C24       1.0  0.85540  0.69640  0.41420  1.0000
  C   C25       1.0  0.02840  0.49670  0.81120  1.0000
  C   C26       1.0  0.50330  0.53170  0.81120  1.0000
  C   C27       1.0  0.46830  0.97160  0.81120  1.0000
  C   C28       1.0  0.50330  0.97160  0.31120  1.0000
  C   C29       1.0  0.46830  0.49670  0.31120  1.0000
  C   C30       1.0  0.02840  0.53170  0.31120  1.0000
  C   C31       1.0  0.97220  0.46800  0.91510  1.0000
  C   C32       1.0  0.53200  0.50420  0.91510  1.0000
  C   C33       1.0  0.49580  0.02780  0.91510  1.0000
  C   C34       1.0  0.53200  0.02780  0.41510  1.0000
  C   C35       1.0  0.49580  0.46800  0.41510  1.0000
  C   C36       1.0  0.97220  0.50420  0.41510  1.0000
  O   O1        1.0  0.10260  0.37333  0.95150  1.0000
  O   O2        1.0  0.62667  0.72927  0.95150  1.0000
  O   O3        1.0  0.27073  0.89740  0.95150  1.0000
  O   O4        1.0  0.62667  0.89740  0.45150  1.0000
  O   O5        1.0  0.27073  0.37333  0.45150  1.0000
  O   O6        1.0  0.10260  0.72927  0.45150  1.0000
  O   O7        1.0  0.05870  0.27920  0.78210  1.0000
  O   O8        1.0  0.72080  0.77950  0.78210  1.0000
  O   O9        1.0  0.22050  0.94130  0.78210  1.0000
  O   O10       1.0  0.72080  0.94130  0.28210  1.0000
  O   O11       1.0  0.22050  0.27920  0.28210  1.0000
  O   O12       1.0  0.05870  0.77950  0.28210  1.0000
  O   O13       1.0  0.24500  0.39380  0.95280  1.0000
  O   O14       1.0  0.60620  0.85120  0.95280  1.0000
  O   O15       1.0  0.14880  0.75500  0.95280  1.0000
  O   O16       1.0  0.60620  0.75500  0.45280  1.0000
  O   O17       1.0  0.14880  0.39380  0.45280  1.0000
  O   O18       1.0  0.24500  0.85120  0.45280  1.0000
  O   O19       1.0  0.19680  0.28910  0.76950  1.0000
  O   O20       1.0  0.71090  0.90770  0.76950  1.0000
  O   O21       1.0  0.09230  0.80320  0.76950  1.0000
  O   O22       1.0  0.71090  0.80320  0.26950  1.0000
  O   O23       1.0  0.09230  0.28910  0.26950  1.0000
  O   O24       1.0  0.19680  0.90770  0.26950  1.0000
  O   O25       1.0  0.89010  0.26650  0.77770  1.0000
  O   O26       1.0  0.73350  0.62360  0.77770  1.0000
  O   O27       1.0  0.37640  0.10990  0.77770  1.0000
  O   O28       1.0  0.73350  0.10990  0.27770  1.0000
  O   O29       1.0  0.37640  0.26650  0.27770  1.0000
  O   O30       1.0  0.89010  0.62360  0.27770  1.0000
  O   O31       1.0  0.93470  0.21900  0.94850  1.0000
  O   O32       1.0  0.78100  0.71570  0.94850  1.0000
  O   O33       1.0  0.28430  0.06530  0.94850  1.0000
  O   O34       1.0  0.78100  0.06530  0.44850  1.0000
  O   O35       1.0  0.28430  0.21900  0.44850  1.0000
  O   O36       1.0  0.93470  0.71570  0.44850  1.0000
  O   O37       1.0  0.74980  0.14050  0.77480  1.0000
  O   O38       1.0  0.85950  0.60930  0.77480  1.0000
  O   O39       1.0  0.39070  0.25020  0.77480  1.0000
  O   O40       1.0  0.85950  0.25020  0.27480  1.0000
  O   O41       1.0  0.39070  0.14050  0.27480  1.0000
  O   O42       1.0  0.74980  0.60930  0.27480  1.0000
  O   O43       1.0  0.80610  0.08250  0.95300  1.0000
  O   O44       1.0  0.91750  0.72360  0.95300  1.0000
  O   O45       1.0  0.27640  0.19390  0.95300  1.0000
  O   O46       1.0  0.91750  0.19390  0.45300  1.0000
  O   O47       1.0  0.27640  0.08250  0.45300  1.0000
  O   O48       1.0  0.80610  0.72360  0.45300  1.0000
  O   O49       1.0  0.04760  0.43520  0.77960  1.0000
  O   O50       1.0  0.56480  0.61240  0.77960  1.0000
  O   O51       1.0  0.38760  0.95240  0.77960  1.0000
  O   O52       1.0  0.56480  0.95240  0.27960  1.0000
  O   O53       1.0  0.38760  0.43520  0.27960  1.0000
  O   O54       1.0  0.04760  0.61240  0.27960  1.0000
  O   O55       1.0  0.94780  0.38670  0.94670  1.0000
  O   O56       1.0  0.61330  0.56110  0.94670  1.0000
  O   O57       1.0  0.43890  0.05220  0.94670  1.0000
  O   O58       1.0  0.61330  0.05220  0.44670  1.0000
  O   O59       1.0  0.43890  0.38670  0.44670  1.0000
  O   O60       1.0  0.94780  0.56110  0.44670  1.0000
  O   O61       1.0  0.04820  0.56870  0.76890  1.0000
  O   O62       1.0  0.43130  0.47950  0.76890  1.0000
  O   O63       1.0  0.52050  0.95180  0.76890  1.0000
  O   O64       1.0  0.43130  0.95180  0.26890  1.0000
  O   O65       1.0  0.52050  0.56870  0.26890  1.0000
  O   O66       1.0  0.04820  0.47950  0.26890  1.0000
  O   O67       1.0  0.95340  0.52200  0.95870  1.0000
  O   O68       1.0  0.47800  0.43140  0.95870  1.0000
  O   O69       1.0  0.56860  0.04660  0.95870  1.0000
  O   O70       1.0  0.47800  0.04660  0.45870  1.0000
  O   O71       1.0  0.56860  0.52200  0.45870  1.0000
  O   O72       1.0  0.95340  0.43140  0.45870  1.0000
  Al  Al1       1.0  0.99684  0.32630  0.86421  1.0000
  Al  Al2       1.0  0.67370  0.67054  0.86421  1.0000
  Al  Al3       1.0  0.32946  0.00316  0.86421  1.0000
  Al  Al4       1.0  0.67370  0.00316  0.36421  1.0000
  Al  Al5       1.0  0.32946  0.32630  0.36421  1.0000
  Al  Al6       1.0  0.99684  0.67054  0.36421  1.0000
  Na  Na1       1.0  0.00339  0.66297  0.86310  1.0000
  Na  Na2       1.0  0.33703  0.34042  0.86310  1.0000
  Na  Na3       1.0  0.65958  0.99661  0.86310  1.0000
  Na  Na4       1.0  0.33703  0.99661  0.36310  1.0000
  Na  Na5       1.0  0.65958  0.66297  0.36310  1.0000
  Na  Na6       1.0  0.00339  0.34042  0.36310  1.0000
