data_image0
_chemical_formula_structural       Mn4Cr4O48C24
_chemical_formula_sum              "Mn4 Cr4 O48 C24"
_cell_length_a       9.1437
_cell_length_b       16.5084
_cell_length_c       26.4142
_cell_angle_alpha    90
_cell_angle_beta     101.367
_cell_angle_gamma    90

_space_group_name_H-M_alt    "P 1"
_space_group_IT_number       1

loop_
  _space_group_symop_operation_xyz
  'x, y, z'

loop_
  _atom_site_type_symbol
  _atom_site_label
  _atom_site_symmetry_multiplicity
  _atom_site_fract_x
  _atom_site_fract_y
  _atom_site_fract_z
  _atom_site_occupancy
  Mn  Mn1       1.0  0.71737  0.49519  0.75972  1.0000
  Mn  Mn2       1.0  0.28263  0.99519  0.74028  1.0000
  Mn  Mn3       1.0  0.28263  0.50481  0.24028  1.0000
  Mn  Mn4       1.0  0.71737  0.00481  0.25972  1.0000
  Cr  Cr1       1.0  0.21301  0.32034  0.75421  1.0000
  Cr  Cr2       1.0  0.78699  0.82034  0.74579  1.0000
  Cr  Cr3       1.0  0.78699  0.67966  0.24579  1.0000
  Cr  Cr4       1.0  0.21301  0.17966  0.25421  1.0000
  O   O1        1.0  0.42230  0.32870  0.79663  1.0000
  O   O2        1.0  0.57770  0.82870  0.70337  1.0000
  O   O3        1.0  0.57770  0.67130  0.20337  1.0000
  O   O4        1.0  0.42230  0.17130  0.29663  1.0000
  O   O5        1.0  0.79420  0.40130  0.71599  1.0000
  O   O6        1.0  0.20580  0.90130  0.78401  1.0000
  O   O7        1.0  0.20580  0.59870  0.28401  1.0000
  O   O8        1.0  0.79420  0.09870  0.21599  1.0000
  O   O9        1.0  0.28630  0.41320  0.71601  1.0000
  O   O10       1.0  0.71370  0.91320  0.78399  1.0000
  O   O11       1.0  0.71370  0.58680  0.28399  1.0000
  O   O12       1.0  0.28630  0.08680  0.21601  1.0000
  O   O13       1.0  0.27770  0.23920  0.70575  1.0000
  O   O14       1.0  0.72230  0.73920  0.79425  1.0000
  O   O15       1.0  0.72230  0.76080  0.29425  1.0000
  O   O16       1.0  0.27770  0.26080  0.20575  1.0000
  O   O17       1.0  0.49130  0.48930  0.71870  1.0000
  O   O18       1.0  0.50870  0.98930  0.78130  1.0000
  O   O19       1.0  0.50870  0.51070  0.28130  1.0000
  O   O20       1.0  0.49130  0.01070  0.21870  1.0000
  O   O21       1.0  0.62590  0.40730  0.80336  1.0000
  O   O22       1.0  0.37410  0.90730  0.69664  1.0000
  O   O23       1.0  0.37410  0.59270  0.19664  1.0000
  O   O24       1.0  0.62590  0.09270  0.30336  1.0000
  O   O25       1.0  0.13670  0.39730  0.80200  1.0000
  O   O26       1.0  0.86330  0.89730  0.69800  1.0000
  O   O27       1.0  0.86330  0.60270  0.19800  1.0000
  O   O28       1.0  0.13670  0.10270  0.30200  1.0000
  O   O29       1.0  0.21950  0.08450  0.78917  1.0000
  O   O30       1.0  0.78050  0.58450  0.71083  1.0000
  O   O31       1.0  0.78050  0.91550  0.21083  1.0000
  O   O32       1.0  0.21950  0.41550  0.28917  1.0000
  O   O33       1.0  0.17860  0.21870  0.79215  1.0000
  O   O34       1.0  0.82140  0.71870  0.70785  1.0000
  O   O35       1.0  0.82140  0.78130  0.20785  1.0000
  O   O36       1.0  0.17860  0.28130  0.29215  1.0000
  O   O37       1.0  0.93410  0.47320  0.80361  1.0000
  O   O38       1.0  0.06590  0.97320  0.69639  1.0000
  O   O39       1.0  0.06590  0.52680  0.19639  1.0000
  O   O40       1.0  0.93410  0.02680  0.30361  1.0000
  O   O41       1.0  0.30720  0.10420  0.69880  1.0000
  O   O42       1.0  0.69280  0.60420  0.80120  1.0000
  O   O43       1.0  0.69280  0.89580  0.30120  1.0000
  O   O44       1.0  0.30720  0.39580  0.19880  1.0000
  O   O45       1.0  0.00200  0.32870  0.71498  1.0000
  O   O46       1.0  0.99800  0.82870  0.78502  1.0000
  O   O47       1.0  0.99800  0.67130  0.28502  1.0000
  O   O48       1.0  0.00200  0.17130  0.21498  1.0000
  C   C1        1.0  0.49600  0.38660  0.78280  1.0000
  C   C2        1.0  0.50400  0.88660  0.71720  1.0000
  C   C3        1.0  0.50400  0.61340  0.21720  1.0000
  C   C4        1.0  0.49600  0.11340  0.28280  1.0000
  C   C5        1.0  0.41800  0.43510  0.73500  1.0000
  C   C6        1.0  0.58200  0.93510  0.76500  1.0000
  C   C7        1.0  0.58200  0.56490  0.26500  1.0000
  C   C8        1.0  0.41800  0.06490  0.23500  1.0000
  C   C9        1.0  0.27340  0.16550  0.72080  1.0000
  C   C10       1.0  0.72660  0.66550  0.77920  1.0000
  C   C11       1.0  0.72660  0.83450  0.27920  1.0000
  C   C12       1.0  0.27340  0.33450  0.22080  1.0000
  C   C13       1.0  0.92380  0.38000  0.73374  1.0000
  C   C14       1.0  0.07620  0.88000  0.76626  1.0000
  C   C15       1.0  0.07620  0.62000  0.26626  1.0000
  C   C16       1.0  0.92380  0.12000  0.23374  1.0000
  C   C17       1.0  0.00470  0.42080  0.78430  1.0000
  C   C18       1.0  0.99530  0.92080  0.71570  1.0000
  C   C19       1.0  0.99530  0.57920  0.21570  1.0000
  C   C20       1.0  0.00470  0.07920  0.28430  1.0000
  C   C21       1.0  0.21720  0.15450  0.77280  1.0000
  C   C22       1.0  0.78280  0.65450  0.72720  1.0000
  C   C23       1.0  0.78280  0.84550  0.22720  1.0000
  C   C24       1.0  0.21720  0.34550  0.27280  1.0000
