data_image0
_chemical_formula_structural       U4O28H4N4C8H4C4H4C8H4C8
_chemical_formula_sum              "U4 O28 H16 N4 C28"
_cell_length_a       13.3789
_cell_length_b       11.1183
_cell_length_c       17.7408
_cell_angle_alpha    90
_cell_angle_beta     104.512
_cell_angle_gamma    90

_space_group_name_H-M_alt    "P 1"
_space_group_IT_number       1

loop_
  _space_group_symop_operation_xyz
  'x, y, z'

loop_
  _atom_site_type_symbol
  _atom_site_label
  _atom_site_symmetry_multiplicity
  _atom_site_fract_x
  _atom_site_fract_y
  _atom_site_fract_z
  _atom_site_occupancy
  U   U1        1.0  0.45686  0.15566  0.52773  1.0000
  U   U2        1.0  0.04314  0.65566  0.97227  1.0000
  U   U3        1.0  0.54314  0.84434  0.47227  1.0000
  U   U4        1.0  0.95686  0.34434  0.02773  1.0000
  O   O1        1.0  0.54951  0.15517  0.61979  1.0000
  O   O2        1.0  0.95049  0.65517  0.88021  1.0000
  O   O3        1.0  0.45049  0.84483  0.38021  1.0000
  O   O4        1.0  0.04951  0.34483  0.11979  1.0000
  O   O5        1.0  0.36249  0.17098  0.43698  1.0000
  O   O6        1.0  0.13751  0.67098  0.06302  1.0000
  O   O7        1.0  0.63751  0.82902  0.56302  1.0000
  O   O8        1.0  0.86249  0.32902  0.93698  1.0000
  O   O9        1.0  0.33102  0.12464  0.59959  1.0000
  O   O10       1.0  0.16898  0.62464  0.90041  1.0000
  O   O11       1.0  0.66898  0.87536  0.40041  1.0000
  O   O12       1.0  0.83102  0.37536  0.09959  1.0000
  O   O13       1.0  0.24228  0.17997  0.68469  1.0000
  O   O14       1.0  0.25772  0.67997  0.81531  1.0000
  O   O15       1.0  0.75772  0.82003  0.31531  1.0000
  O   O16       1.0  0.74228  0.32003  0.18469  1.0000
  O   O17       1.0  0.44354  0.69095  0.51467  1.0000
  O   O18       1.0  0.05646  0.19095  0.98533  1.0000
  O   O19       1.0  0.55646  0.30905  0.48533  1.0000
  O   O20       1.0  0.94354  0.80905  0.01467  1.0000
  O   O21       1.0  0.32835  0.77017  0.57306  1.0000
  O   O22       1.0  0.17165  0.27017  0.92694  1.0000
  O   O23       1.0  0.67165  0.22983  0.42694  1.0000
  O   O24       1.0  0.82835  0.72983  0.07306  1.0000
  O   O25       1.0  0.56641  0.04799  0.47049  1.0000
  O   O26       1.0  0.93359  0.54799  0.02951  1.0000
  O   O27       1.0  0.43359  0.95201  0.52951  1.0000
  O   O28       1.0  0.06641  0.45201  0.97049  1.0000
  H   H1        1.0  0.60800  0.08500  0.45400  1.0000
  H   H2        1.0  0.89200  0.58500  0.04600  1.0000
  H   H3        1.0  0.39200  0.91500  0.54600  1.0000
  H   H4        1.0  0.10800  0.41500  0.95400  1.0000
  N   N1        1.0  0.37171  0.34706  0.56860  1.0000
  N   N2        1.0  0.12829  0.84706  0.93140  1.0000
  N   N3        1.0  0.62829  0.65294  0.43140  1.0000
  N   N4        1.0  0.87171  0.15294  0.06860  1.0000
  C   C1        1.0  0.31405  0.33220  0.62039  1.0000
  C   C2        1.0  0.18595  0.83220  0.87961  1.0000
  C   C3        1.0  0.68595  0.66780  0.37961  1.0000
  C   C4        1.0  0.81405  0.16780  0.12039  1.0000
  C   C5        1.0  0.27527  0.42780  0.65451  1.0000
  C   C6        1.0  0.22473  0.92780  0.84549  1.0000
  C   C7        1.0  0.72473  0.57220  0.34549  1.0000
  C   C8        1.0  0.77527  0.07220  0.15451  1.0000
  H   H5        1.0  0.23666  0.41424  0.69194  1.0000
  H   H6        1.0  0.26334  0.91424  0.80806  1.0000
  H   H7        1.0  0.76334  0.58576  0.30806  1.0000
  H   H8        1.0  0.73666  0.08576  0.19194  1.0000
  C   C9        1.0  0.29413  0.54350  0.63274  1.0000
  C   C10       1.0  0.20587  0.04350  0.86726  1.0000
  C   C11       1.0  0.70587  0.45650  0.36726  1.0000
  C   C12       1.0  0.79413  0.95650  0.13274  1.0000
  H   H9        1.0  0.26868  0.61083  0.65522  1.0000
  H   H10       1.0  0.23132  0.11083  0.84478  1.0000
  H   H11       1.0  0.73132  0.38917  0.34478  1.0000
  H   H12       1.0  0.76868  0.88917  0.15522  1.0000
  C   C13       1.0  0.35054  0.56020  0.57780  1.0000
  C   C14       1.0  0.14946  0.06020  0.92220  1.0000
  C   C15       1.0  0.64946  0.43980  0.42220  1.0000
  C   C16       1.0  0.85054  0.93980  0.07780  1.0000
  C   C17       1.0  0.38848  0.45940  0.54778  1.0000
  C   C18       1.0  0.11152  0.95940  0.95222  1.0000
  C   C19       1.0  0.61152  0.54060  0.45222  1.0000
  C   C20       1.0  0.88848  0.04060  0.04778  1.0000
  H   H13       1.0  0.42811  0.47089  0.51078  1.0000
  H   H14       1.0  0.07189  0.97089  0.98922  1.0000
  H   H15       1.0  0.57189  0.52911  0.48922  1.0000
  H   H16       1.0  0.92811  0.02911  0.01078  1.0000
  C   C21       1.0  0.29353  0.20260  0.63767  1.0000
  C   C22       1.0  0.20647  0.70260  0.86233  1.0000
  C   C23       1.0  0.70647  0.79740  0.36233  1.0000
  C   C24       1.0  0.79353  0.29740  0.13767  1.0000
  C   C25       1.0  0.37478  0.68430  0.55330  1.0000
  C   C26       1.0  0.12522  0.18430  0.94670  1.0000
  C   C27       1.0  0.62522  0.31570  0.44670  1.0000
  C   C28       1.0  0.87478  0.81570  0.05330  1.0000
