data_image0
_chemical_formula_structural       U2O14H2N2C4H2C2H2C4H2C4
_chemical_formula_sum              "U2 O14 H8 N2 C14"
_cell_length_a       9.4943
_cell_length_b       10.7752
_cell_length_c       11.3208
_cell_angle_alpha    112.14
_cell_angle_beta     113.689
_cell_angle_gamma    97.248

_space_group_name_H-M_alt    "P 1"
_space_group_IT_number       1

loop_
  _space_group_symop_operation_xyz
  'x, y, z'

loop_
  _atom_site_type_symbol
  _atom_site_label
  _atom_site_symmetry_multiplicity
  _atom_site_fract_x
  _atom_site_fract_y
  _atom_site_fract_z
  _atom_site_occupancy
  U   U1        1.0  0.09646  0.05413  0.20417  1.0000
  U   U2        1.0  0.90354  0.94587  0.79583  1.0000
  O   O1        1.0  0.05640  0.87480  0.16760  1.0000
  O   O2        1.0  0.94360  0.12520  0.83240  1.0000
  O   O3        1.0  0.14520  0.23390  0.25010  1.0000
  O   O4        1.0  0.85480  0.76610  0.74990  1.0000
  O   O5        1.0  0.24830  0.13680  0.46360  1.0000
  O   O6        1.0  0.75170  0.86320  0.53640  1.0000
  O   O7        1.0  0.47870  0.23980  0.67620  1.0000
  O   O8        1.0  0.52130  0.76020  0.32380  1.0000
  O   O9        1.0  0.88820  0.06140  0.27430  1.0000
  O   O10       1.0  0.11180  0.93860  0.72570  1.0000
  O   O11       1.0  0.64330  0.93790  0.07480  1.0000
  O   O12       1.0  0.35670  0.06210  0.92520  1.0000
  O   O13       1.0  0.85950  0.99610  0.99070  1.0000
  O   O14       1.0  0.14050  0.00390  0.00930  1.0000
  H   H1        1.0  0.78600  0.95300  0.98600  1.0000
  H   H2        1.0  0.21400  0.04700  0.01400  1.0000
  N   N1        1.0  0.40740  0.07970  0.31160  1.0000
  N   N2        1.0  0.59260  0.92030  0.68840  1.0000
  C   C1        1.0  0.49680  0.13860  0.45960  1.0000
  C   C2        1.0  0.50320  0.86140  0.54040  1.0000
  C   C3        1.0  0.66170  0.16380  0.53270  1.0000
  C   C4        1.0  0.33830  0.83620  0.46730  1.0000
  H   H3        1.0  0.72007  0.20659  0.63642  1.0000
  H   H4        1.0  0.27993  0.79341  0.36358  1.0000
  C   C5        1.0  0.74140  0.12490  0.45100  1.0000
  C   C6        1.0  0.25860  0.87510  0.54900  1.0000
  H   H5        1.0  0.85499  0.14007  0.49826  1.0000
  H   H6        1.0  0.14501  0.85993  0.50174  1.0000
  C   C7        1.0  0.65240  0.06410  0.30070  1.0000
  C   C8        1.0  0.34760  0.93590  0.69930  1.0000
  C   C9        1.0  0.48700  0.04220  0.23540  1.0000
  C   C10       1.0  0.51300  0.95780  0.76460  1.0000
  H   H7        1.0  0.42651  0.99857  0.13172  1.0000
  H   H8        1.0  0.57349  0.00143  0.86828  1.0000
  C   C11       1.0  0.40410  0.17550  0.54220  1.0000
  C   C12       1.0  0.59590  0.82450  0.45780  1.0000
  C   C13       1.0  0.73160  0.01540  0.20700  1.0000
  C   C14       1.0  0.26840  0.98460  0.79300  1.0000
