data_image0
_chemical_formula_structural       U4O28H4N8C12H4C4H4C8
_chemical_formula_sum              "U4 O28 H12 N8 C24"
_cell_length_a       12.4003
_cell_length_b       15.3937
_cell_length_c       15.2945
_cell_angle_alpha    90
_cell_angle_beta     103.414
_cell_angle_gamma    90

_space_group_name_H-M_alt    "P 1"
_space_group_IT_number       1

loop_
  _space_group_symop_operation_xyz
  'x, y, z'

loop_
  _atom_site_type_symbol
  _atom_site_label
  _atom_site_symmetry_multiplicity
  _atom_site_fract_x
  _atom_site_fract_y
  _atom_site_fract_z
  _atom_site_occupancy
  U   U1        1.0  0.48657  0.38951  0.05561  1.0000
  U   U2        1.0  0.51343  0.88951  0.44439  1.0000
  U   U3        1.0  0.51343  0.61049  0.94439  1.0000
  U   U4        1.0  0.48657  0.11049  0.55561  1.0000
  O   O1        1.0  0.34530  0.41090  0.04540  1.0000
  O   O2        1.0  0.65470  0.91090  0.45460  1.0000
  O   O3        1.0  0.65470  0.58910  0.95460  1.0000
  O   O4        1.0  0.34530  0.08910  0.54540  1.0000
  O   O5        1.0  0.62850  0.36060  0.07130  1.0000
  O   O6        1.0  0.37150  0.86060  0.42870  1.0000
  O   O7        1.0  0.37150  0.63940  0.92870  1.0000
  O   O8        1.0  0.62850  0.13940  0.57130  1.0000
  O   O9        1.0  0.51710  0.41450  0.21240  1.0000
  O   O10       1.0  0.48290  0.91450  0.28760  1.0000
  O   O11       1.0  0.48290  0.58550  0.78760  1.0000
  O   O12       1.0  0.51710  0.08550  0.71240  1.0000
  O   O13       1.0  0.45390  0.40190  0.33670  1.0000
  O   O14       1.0  0.54610  0.90190  0.16330  1.0000
  O   O15       1.0  0.54610  0.59810  0.66330  1.0000
  O   O16       1.0  0.45390  0.09810  0.83670  1.0000
  O   O17       1.0  0.44430  0.22530  0.45280  1.0000
  O   O18       1.0  0.55570  0.72530  0.04720  1.0000
  O   O19       1.0  0.55570  0.77470  0.54720  1.0000
  O   O20       1.0  0.44430  0.27470  0.95280  1.0000
  O   O21       1.0  0.27690  0.27340  0.37790  1.0000
  O   O22       1.0  0.72310  0.77340  0.12210  1.0000
  O   O23       1.0  0.72310  0.72660  0.62210  1.0000
  O   O24       1.0  0.27690  0.22660  0.87790  1.0000
  O   O25       1.0  0.52450  0.53610  0.07750  1.0000
  O   O26       1.0  0.47550  0.03610  0.42250  1.0000
  O   O27       1.0  0.47550  0.46390  0.92250  1.0000
  O   O28       1.0  0.52450  0.96390  0.57750  1.0000
  H   H1        1.0  0.55180  0.56740  0.13330  1.0000
  H   H2        1.0  0.44820  0.06740  0.36670  1.0000
  H   H3        1.0  0.44820  0.43260  0.86670  1.0000
  H   H4        1.0  0.55180  0.93260  0.63330  1.0000
  N   N1        1.0  0.44880  0.25860  0.15620  1.0000
  N   N2        1.0  0.55120  0.75860  0.34380  1.0000
  N   N3        1.0  0.55120  0.74140  0.84380  1.0000
  N   N4        1.0  0.44880  0.24140  0.65620  1.0000
  N   N5        1.0  0.38680  0.13760  0.26950  1.0000
  N   N6        1.0  0.61320  0.63760  0.23050  1.0000
  N   N7        1.0  0.61320  0.86240  0.73050  1.0000
  N   N8        1.0  0.38680  0.36240  0.76950  1.0000
  C   C1        1.0  0.43760  0.28130  0.23940  1.0000
  C   C2        1.0  0.56240  0.78130  0.26060  1.0000
  C   C3        1.0  0.56240  0.71870  0.76060  1.0000
  C   C4        1.0  0.43760  0.21870  0.73940  1.0000
  C   C5        1.0  0.40130  0.22150  0.29360  1.0000
  C   C6        1.0  0.59870  0.72150  0.20640  1.0000
  C   C7        1.0  0.59870  0.77850  0.70640  1.0000
  C   C8        1.0  0.40130  0.27850  0.79360  1.0000
  C   C9        1.0  0.40130  0.11610  0.18940  1.0000
  C   C10       1.0  0.59870  0.61610  0.31060  1.0000
  C   C11       1.0  0.59870  0.88390  0.81060  1.0000
  C   C12       1.0  0.40130  0.38390  0.68940  1.0000
  H   H5        1.0  0.39360  0.05690  0.17140  1.0000
  H   H6        1.0  0.60640  0.55690  0.32860  1.0000
  H   H7        1.0  0.60640  0.94310  0.82860  1.0000
  H   H8        1.0  0.39360  0.44310  0.67140  1.0000
  C   C13       1.0  0.42750  0.17710  0.13080  1.0000
  C   C14       1.0  0.57250  0.67710  0.36920  1.0000
  C   C15       1.0  0.57250  0.82290  0.86920  1.0000
  C   C16       1.0  0.42750  0.32290  0.63080  1.0000
  H   H9        1.0  0.43010  0.16000  0.07160  1.0000
  H   H10       1.0  0.56990  0.66000  0.42840  1.0000
  H   H11       1.0  0.56990  0.84000  0.92840  1.0000
  H   H12       1.0  0.43010  0.34000  0.57160  1.0000
  C   C17       1.0  0.47080  0.37410  0.26700  1.0000
  C   C18       1.0  0.52920  0.87410  0.23300  1.0000
  C   C19       1.0  0.52920  0.62590  0.73300  1.0000
  C   C20       1.0  0.47080  0.12590  0.76700  1.0000
  C   C21       1.0  0.37020  0.24410  0.38210  1.0000
  C   C22       1.0  0.62980  0.74410  0.11790  1.0000
  C   C23       1.0  0.62980  0.75590  0.61790  1.0000
  C   C24       1.0  0.37020  0.25590  0.88210  1.0000
