data_image0
_chemical_formula_structural       U8P16O12H4O8H4O12H4O32C8H4C4H4C4H4C8H4C8H4C8H4C4H4C4H4
_chemical_formula_sum              "U8 P16 O64 H44 C48"
_cell_length_a       9.6374
_cell_length_b       15.312
_cell_length_c       18.465
_cell_angle_alpha    90
_cell_angle_beta     90
_cell_angle_gamma    90

_space_group_name_H-M_alt    "P 1"
_space_group_IT_number       1

loop_
  _space_group_symop_operation_xyz
  'x, y, z'

loop_
  _atom_site_type_symbol
  _atom_site_label
  _atom_site_symmetry_multiplicity
  _atom_site_fract_x
  _atom_site_fract_y
  _atom_site_fract_z
  _atom_site_occupancy
  U   U1        1.0  0.44921  0.78603  0.61276  1.0000
  U   U2        1.0  0.05079  0.21397  0.11276  1.0000
  U   U3        1.0  0.55079  0.28603  0.88724  1.0000
  U   U4        1.0  0.94921  0.71397  0.38724  1.0000
  U   U5        1.0  0.55594  0.70879  0.89767  1.0000
  U   U6        1.0  0.94406  0.29121  0.39767  1.0000
  U   U7        1.0  0.44406  0.20879  0.60233  1.0000
  U   U8        1.0  0.05594  0.79121  0.10233  1.0000
  P   P1        1.0  0.28610  0.81586  0.79272  1.0000
  P   P2        1.0  0.21390  0.18414  0.29272  1.0000
  P   P3        1.0  0.71390  0.31586  0.70728  1.0000
  P   P4        1.0  0.78610  0.68414  0.20728  1.0000
  P   P5        1.0  0.29310  0.17627  0.77927  1.0000
  P   P6        1.0  0.20690  0.82373  0.27927  1.0000
  P   P7        1.0  0.70690  0.67627  0.72073  1.0000
  P   P8        1.0  0.79310  0.32373  0.22073  1.0000
  P   P9        1.0  0.08770  0.81389  0.55787  1.0000
  P   P10       1.0  0.41230  0.18611  0.05787  1.0000
  P   P11       1.0  0.91230  0.31389  0.94213  1.0000
  P   P12       1.0  0.58770  0.68611  0.44213  1.0000
  P   P13       1.0  0.07460  0.17991  0.56494  1.0000
  P   P14       1.0  0.42540  0.82009  0.06494  1.0000
  P   P15       1.0  0.92540  0.67991  0.93506  1.0000
  P   P16       1.0  0.57460  0.32009  0.43506  1.0000
  O   O1        1.0  0.36760  0.83040  0.72370  1.0000
  O   O2        1.0  0.13240  0.16960  0.22370  1.0000
  O   O3        1.0  0.63240  0.33040  0.77630  1.0000
  O   O4        1.0  0.86760  0.66960  0.27630  1.0000
  O   O5        1.0  0.34560  0.75200  0.84530  1.0000
  O   O6        1.0  0.15440  0.24800  0.34530  1.0000
  O   O7        1.0  0.65440  0.25200  0.65470  1.0000
  O   O8        1.0  0.84560  0.74800  0.15470  1.0000
  O   O9        1.0  0.13760  0.78370  0.76980  1.0000
  O   O10       1.0  0.36240  0.21630  0.26980  1.0000
  O   O11       1.0  0.86240  0.28370  0.73020  1.0000
  O   O12       1.0  0.63760  0.71630  0.23020  1.0000
  H   H1        1.0  0.10100  0.75820  0.80390  1.0000
  H   H2        1.0  0.39900  0.24180  0.30390  1.0000
  H   H3        1.0  0.89900  0.25820  0.69610  1.0000
  H   H4        1.0  0.60100  0.74180  0.19610  1.0000
  O   O13       1.0  0.38370  0.15430  0.71500  1.0000
  O   O14       1.0  0.11630  0.84570  0.21500  1.0000
  O   O15       1.0  0.61630  0.65430  0.78500  1.0000
  O   O16       1.0  0.88370  0.34570  0.28500  1.0000
  O   O17       1.0  0.14890  0.20920  0.75640  1.0000
  O   O18       1.0  0.35110  0.79080  0.25640  1.0000
  O   O19       1.0  0.85110  0.70920  0.74360  1.0000
  O   O20       1.0  0.64890  0.29080  0.24360  1.0000
  H   H5        1.0  0.15410  0.23240  0.71640  1.0000
  H   H6        1.0  0.34590  0.76760  0.21640  1.0000
  H   H7        1.0  0.84590  0.73240  0.78360  1.0000
  H   H8        1.0  0.65410  0.26760  0.28360  1.0000
  O   O21       1.0  0.35390  0.24400  0.83000  1.0000
  O   O22       1.0  0.14610  0.75600  0.33000  1.0000
  O   O23       1.0  0.64610  0.74400  0.67000  1.0000
  O   O24       1.0  0.85390  0.25600  0.17000  1.0000
  O   O25       1.0  0.04740  0.75880  0.49440  1.0000
  O   O26       1.0  0.45260  0.24120  0.99440  1.0000
  O   O27       1.0  0.95260  0.25880  0.00560  1.0000
  O   O28       1.0  0.54740  0.74120  0.50560  1.0000
  O   O29       1.0  0.03250  0.76280  0.62550  1.0000
  O   O30       1.0  0.46750  0.23720  0.12550  1.0000
  O   O31       1.0  0.96750  0.26280  0.87450  1.0000
  O   O32       1.0  0.53250  0.73720  0.37450  1.0000
  H   H9        1.0  0.96180  0.73610  0.61450  1.0000
  H   H10       1.0  0.53820  0.26390  0.11450  1.0000
  H   H11       1.0  0.03820  0.23610  0.88550  1.0000
  H   H12       1.0  0.46180  0.76390  0.38550  1.0000
  O   O33       1.0  0.24070  0.83200  0.56480  1.0000
  O   O34       1.0  0.25930  0.16800  0.06480  1.0000
  O   O35       1.0  0.75930  0.33200  0.93520  1.0000
  O   O36       1.0  0.74070  0.66800  0.43520  1.0000
  O   O37       1.0  0.23030  0.16540  0.56100  1.0000
  O   O38       1.0  0.26970  0.83460  0.06100  1.0000
  O   O39       1.0  0.76970  0.66540  0.93900  1.0000
  O   O40       1.0  0.73030  0.33460  0.43900  1.0000
  O   O41       1.0  0.02920  0.21570  0.63860  1.0000
  O   O42       1.0  0.47080  0.78430  0.13860  1.0000
  O   O43       1.0  0.97080  0.71570  0.86140  1.0000
  O   O44       1.0  0.52920  0.28430  0.36140  1.0000
  O   O45       1.0  0.01930  0.23790  0.50500  1.0000
  O   O46       1.0  0.48070  0.76210  0.00500  1.0000
  O   O47       1.0  0.98070  0.73790  0.99500  1.0000
  O   O48       1.0  0.51930  0.26210  0.49500  1.0000
  O   O49       1.0  0.37670  0.68040  0.62660  1.0000
  O   O50       1.0  0.12330  0.31960  0.12660  1.0000
  O   O51       1.0  0.62330  0.18040  0.87340  1.0000
  O   O52       1.0  0.87670  0.81960  0.37340  1.0000
  O   O53       1.0  0.51700  0.89160  0.59860  1.0000
  O   O54       1.0  0.98300  0.10840  0.09860  1.0000
  O   O55       1.0  0.48300  0.39160  0.90140  1.0000
  O   O56       1.0  0.01700  0.60840  0.40140  1.0000
  O   O57       1.0  0.48510  0.60600  0.92020  1.0000
  O   O58       1.0  0.01490  0.39400  0.42020  1.0000
  O   O59       1.0  0.51490  0.10600  0.57980  1.0000
  O   O60       1.0  0.98510  0.89400  0.07980  1.0000
  O   O61       1.0  0.62510  0.81280  0.87300  1.0000
  O   O62       1.0  0.87490  0.18720  0.37300  1.0000
  O   O63       1.0  0.37490  0.31280  0.62700  1.0000
  O   O64       1.0  0.12510  0.68720  0.12700  1.0000
  C   C1        1.0  0.25920  0.92070  0.83500  1.0000
  C   C2        1.0  0.24080  0.07930  0.33500  1.0000
  C   C3        1.0  0.74080  0.42070  0.66500  1.0000
  C   C4        1.0  0.75920  0.57930  0.16500  1.0000
  C   C5        1.0  0.19800  0.92420  0.90350  1.0000
  C   C6        1.0  0.30200  0.07580  0.40350  1.0000
  C   C7        1.0  0.80200  0.42420  0.59650  1.0000
  C   C8        1.0  0.69800  0.57580  0.09650  1.0000
  H   H13       1.0  0.17580  0.87300  0.92790  1.0000
  H   H14       1.0  0.32420  0.12700  0.42790  1.0000
  H   H15       1.0  0.82420  0.37300  0.57210  1.0000
  H   H16       1.0  0.67580  0.62700  0.07210  1.0000
  C   C9        1.0  0.17070  0.00430  0.93500  1.0000
  C   C10       1.0  0.32930  0.99570  0.43500  1.0000
  C   C11       1.0  0.82930  0.50430  0.56500  1.0000
  C   C12       1.0  0.67070  0.49570  0.06500  1.0000
  H   H17       1.0  0.13160  0.00660  0.98100  1.0000
  H   H18       1.0  0.36840  0.99340  0.48100  1.0000
  H   H19       1.0  0.86840  0.50660  0.51900  1.0000
  H   H20       1.0  0.63160  0.49340  0.01900  1.0000
  C   C13       1.0  0.20100  0.08120  0.89840  1.0000
  C   C14       1.0  0.29900  0.91880  0.39840  1.0000
  C   C15       1.0  0.79900  0.58120  0.60160  1.0000
  C   C16       1.0  0.70100  0.41880  0.10160  1.0000
  H   H21       1.0  0.18120  0.13490  0.91970  1.0000
  H   H22       1.0  0.31880  0.86510  0.41970  1.0000
  H   H23       1.0  0.81880  0.63490  0.58030  1.0000
  H   H24       1.0  0.68120  0.36510  0.08030  1.0000
  C   C17       1.0  0.26150  0.07780  0.82960  1.0000
  C   C18       1.0  0.23850  0.92220  0.32960  1.0000
  C   C19       1.0  0.73850  0.57780  0.67040  1.0000
  C   C20       1.0  0.76150  0.42220  0.17040  1.0000
  C   C21       1.0  0.28990  0.99630  0.79800  1.0000
  C   C22       1.0  0.21010  0.00370  0.29800  1.0000
  C   C23       1.0  0.71010  0.49630  0.70200  1.0000
  C   C24       1.0  0.78990  0.50370  0.20200  1.0000
  H   H25       1.0  0.32950  0.99340  0.75210  1.0000
  H   H26       1.0  0.17050  0.00660  0.25210  1.0000
  H   H27       1.0  0.67050  0.49340  0.74790  1.0000
  H   H28       1.0  0.82950  0.50660  0.24790  1.0000
  C   C25       1.0  0.99660  0.91650  0.55370  1.0000
  C   C26       1.0  0.50340  0.08350  0.05370  1.0000
  C   C27       1.0  0.00340  0.41650  0.94630  1.0000
  C   C28       1.0  0.49660  0.58350  0.44630  1.0000
  C   C29       1.0  0.06570  0.99660  0.56020  1.0000
  C   C30       1.0  0.43430  0.00340  0.06020  1.0000
  C   C31       1.0  0.93430  0.49660  0.93980  1.0000
  C   C32       1.0  0.56570  0.50340  0.43980  1.0000
  H   H29       1.0  0.16090  0.99770  0.56830  1.0000
  H   H30       1.0  0.33910  0.00230  0.06830  1.0000
  H   H31       1.0  0.83910  0.49770  0.93170  1.0000
  H   H32       1.0  0.66090  0.50230  0.43170  1.0000
  C   C33       1.0  0.99260  0.07410  0.55450  1.0000
  C   C34       1.0  0.50740  0.92590  0.05450  1.0000
  C   C35       1.0  0.00740  0.57410  0.94550  1.0000
  C   C36       1.0  0.49260  0.42590  0.44550  1.0000
  C   C37       1.0  0.85110  0.07090  0.54230  1.0000
  C   C38       1.0  0.64890  0.92910  0.04230  1.0000
  C   C39       1.0  0.14890  0.57090  0.95770  1.0000
  C   C40       1.0  0.35110  0.42910  0.45770  1.0000
  H   H33       1.0  0.80170  0.12280  0.53750  1.0000
  H   H34       1.0  0.69830  0.87720  0.03750  1.0000
  H   H35       1.0  0.19830  0.62280  0.96250  1.0000
  H   H36       1.0  0.30170  0.37720  0.46250  1.0000
  C   C41       1.0  0.78170  0.99230  0.53710  1.0000
  C   C42       1.0  0.71830  0.00770  0.03710  1.0000
  C   C43       1.0  0.21830  0.49230  0.96290  1.0000
  C   C44       1.0  0.28170  0.50770  0.46290  1.0000
  H   H37       1.0  0.68620  0.99160  0.53030  1.0000
  H   H38       1.0  0.81380  0.00840  0.03030  1.0000
  H   H39       1.0  0.31380  0.49160  0.96970  1.0000
  H   H40       1.0  0.18620  0.50840  0.46970  1.0000
  C   C45       1.0  0.85420  0.91490  0.54210  1.0000
  C   C46       1.0  0.64580  0.08510  0.04210  1.0000
  C   C47       1.0  0.14580  0.41490  0.95790  1.0000
  C   C48       1.0  0.35420  0.58510  0.45790  1.0000
  H   H41       1.0  0.80790  0.86190  0.53780  1.0000
  H   H42       1.0  0.69210  0.13810  0.03780  1.0000
  H   H43       1.0  0.19210  0.36190  0.96220  1.0000
  H   H44       1.0  0.30790  0.63810  0.46220  1.0000
