data_image0
_chemical_formula_structural       In16O128C64
_chemical_formula_sum              "In16 O128 C64"
_cell_length_a       21.75
_cell_length_b       21.75
_cell_length_c       12.335
_cell_angle_alpha    90
_cell_angle_beta     90
_cell_angle_gamma    90

_space_group_name_H-M_alt    "P 1"
_space_group_IT_number       1

loop_
  _space_group_symop_operation_xyz
  'x, y, z'

loop_
  _atom_site_type_symbol
  _atom_site_label
  _atom_site_symmetry_multiplicity
  _atom_site_fract_x
  _atom_site_fract_y
  _atom_site_fract_z
  _atom_site_occupancy
  In  In1       1.0  0.36416  0.38584  0.12500  1.0000
  In  In2       1.0  0.13584  0.61416  0.62500  1.0000
  In  In3       1.0  0.86416  0.11416  0.37500  1.0000
  In  In4       1.0  0.63584  0.88584  0.87500  1.0000
  In  In5       1.0  0.13584  0.38584  0.37500  1.0000
  In  In6       1.0  0.36416  0.61416  0.87500  1.0000
  In  In7       1.0  0.63584  0.11416  0.12500  1.0000
  In  In8       1.0  0.86416  0.88584  0.62500  1.0000
  In  In9       1.0  0.63584  0.61416  0.87500  1.0000
  In  In10      1.0  0.86416  0.38584  0.37500  1.0000
  In  In11      1.0  0.13584  0.88584  0.62500  1.0000
  In  In12      1.0  0.36416  0.11416  0.12500  1.0000
  In  In13      1.0  0.86416  0.61416  0.62500  1.0000
  In  In14      1.0  0.63584  0.38584  0.12500  1.0000
  In  In15      1.0  0.36416  0.88584  0.87500  1.0000
  In  In16      1.0  0.13584  0.11416  0.37500  1.0000
  O   O1        1.0  0.32610  0.39710  0.29200  1.0000
  O   O2        1.0  0.17390  0.60290  0.79200  1.0000
  O   O3        1.0  0.85290  0.07610  0.54200  1.0000
  O   O4        1.0  0.64710  0.92390  0.04200  1.0000
  O   O5        1.0  0.17390  0.39710  0.20800  1.0000
  O   O6        1.0  0.32610  0.60290  0.70800  1.0000
  O   O7        1.0  0.64710  0.07610  0.95800  1.0000
  O   O8        1.0  0.85290  0.92390  0.45800  1.0000
  O   O9        1.0  0.82610  0.89710  0.79200  1.0000
  O   O10       1.0  0.67390  0.10290  0.29200  1.0000
  O   O11       1.0  0.35290  0.57610  0.04200  1.0000
  O   O12       1.0  0.14710  0.42390  0.54200  1.0000
  O   O13       1.0  0.67390  0.89710  0.70800  1.0000
  O   O14       1.0  0.82610  0.10290  0.20800  1.0000
  O   O15       1.0  0.14710  0.57610  0.45800  1.0000
  O   O16       1.0  0.35290  0.42390  0.95800  1.0000
  O   O17       1.0  0.67390  0.60290  0.70800  1.0000
  O   O18       1.0  0.82610  0.39710  0.20800  1.0000
  O   O19       1.0  0.14710  0.92390  0.45800  1.0000
  O   O20       1.0  0.35290  0.07610  0.95800  1.0000
  O   O21       1.0  0.82610  0.60290  0.79200  1.0000
  O   O22       1.0  0.67390  0.39710  0.29200  1.0000
  O   O23       1.0  0.35290  0.92390  0.04200  1.0000
  O   O24       1.0  0.14710  0.07610  0.54200  1.0000
  O   O25       1.0  0.17390  0.10290  0.20800  1.0000
  O   O26       1.0  0.32610  0.89710  0.70800  1.0000
  O   O27       1.0  0.64710  0.42390  0.95800  1.0000
  O   O28       1.0  0.85290  0.57610  0.45800  1.0000
  O   O29       1.0  0.32610  0.10290  0.29200  1.0000
  O   O30       1.0  0.17390  0.89710  0.79200  1.0000
  O   O31       1.0  0.85290  0.42390  0.54200  1.0000
  O   O32       1.0  0.64710  0.57610  0.04200  1.0000
  O   O33       1.0  0.23910  0.39350  0.38930  1.0000
  O   O34       1.0  0.26090  0.60650  0.88930  1.0000
  O   O35       1.0  0.85650  0.98910  0.63930  1.0000
  O   O36       1.0  0.64350  0.01090  0.13930  1.0000
  O   O37       1.0  0.26090  0.39350  0.11070  1.0000
  O   O38       1.0  0.23910  0.60650  0.61070  1.0000
  O   O39       1.0  0.64350  0.98910  0.86070  1.0000
  O   O40       1.0  0.85650  0.01090  0.36070  1.0000
  O   O41       1.0  0.73910  0.89350  0.88930  1.0000
  O   O42       1.0  0.76090  0.10650  0.38930  1.0000
  O   O43       1.0  0.35650  0.48910  0.13930  1.0000
  O   O44       1.0  0.14350  0.51090  0.63930  1.0000
  O   O45       1.0  0.76090  0.89350  0.61070  1.0000
  O   O46       1.0  0.73910  0.10650  0.11070  1.0000
  O   O47       1.0  0.14350  0.48910  0.36070  1.0000
  O   O48       1.0  0.35650  0.51090  0.86070  1.0000
  O   O49       1.0  0.76090  0.60650  0.61070  1.0000
  O   O50       1.0  0.73910  0.39350  0.11070  1.0000
  O   O51       1.0  0.14350  0.01090  0.36070  1.0000
  O   O52       1.0  0.35650  0.98910  0.86070  1.0000
  O   O53       1.0  0.73910  0.60650  0.88930  1.0000
  O   O54       1.0  0.76090  0.39350  0.38930  1.0000
  O   O55       1.0  0.35650  0.01090  0.13930  1.0000
  O   O56       1.0  0.14350  0.98910  0.63930  1.0000
  O   O57       1.0  0.26090  0.10650  0.11070  1.0000
  O   O58       1.0  0.23910  0.89350  0.61070  1.0000
  O   O59       1.0  0.64350  0.51090  0.86070  1.0000
  O   O60       1.0  0.85650  0.48910  0.36070  1.0000
  O   O61       1.0  0.23910  0.10650  0.38930  1.0000
  O   O62       1.0  0.26090  0.89350  0.88930  1.0000
  O   O63       1.0  0.85650  0.51090  0.63930  1.0000
  O   O64       1.0  0.64350  0.48910  0.13930  1.0000
  O   O65       1.0  0.33240  0.30100  0.02890  1.0000
  O   O66       1.0  0.16760  0.69900  0.52890  1.0000
  O   O67       1.0  0.94900  0.08240  0.27890  1.0000
  O   O68       1.0  0.55100  0.91760  0.77890  1.0000
  O   O69       1.0  0.16760  0.30100  0.47110  1.0000
  O   O70       1.0  0.33240  0.69900  0.97110  1.0000
  O   O71       1.0  0.55100  0.08240  0.22110  1.0000
  O   O72       1.0  0.94900  0.91760  0.72110  1.0000
  O   O73       1.0  0.83240  0.80100  0.52890  1.0000
  O   O74       1.0  0.66760  0.19900  0.02890  1.0000
  O   O75       1.0  0.44900  0.58240  0.77890  1.0000
  O   O76       1.0  0.05100  0.41760  0.27890  1.0000
  O   O77       1.0  0.66760  0.80100  0.97110  1.0000
  O   O78       1.0  0.83240  0.19900  0.47110  1.0000
  O   O79       1.0  0.05100  0.58240  0.72110  1.0000
  O   O80       1.0  0.44900  0.41760  0.22110  1.0000
  O   O81       1.0  0.66760  0.69900  0.97110  1.0000
  O   O82       1.0  0.83240  0.30100  0.47110  1.0000
  O   O83       1.0  0.05100  0.91760  0.72110  1.0000
  O   O84       1.0  0.44900  0.08240  0.22110  1.0000
  O   O85       1.0  0.83240  0.69900  0.52890  1.0000
  O   O86       1.0  0.66760  0.30100  0.02890  1.0000
  O   O87       1.0  0.44900  0.91760  0.77890  1.0000
  O   O88       1.0  0.05100  0.08240  0.27890  1.0000
  O   O89       1.0  0.16760  0.19900  0.47110  1.0000
  O   O90       1.0  0.33240  0.80100  0.97110  1.0000
  O   O91       1.0  0.55100  0.41760  0.22110  1.0000
  O   O92       1.0  0.94900  0.58240  0.72110  1.0000
  O   O93       1.0  0.33240  0.19900  0.02890  1.0000
  O   O94       1.0  0.16760  0.80100  0.52890  1.0000
  O   O95       1.0  0.94900  0.41760  0.27890  1.0000
  O   O96       1.0  0.55100  0.58240  0.77890  1.0000
  O   O97       1.0  0.39250  0.30190  0.21710  1.0000
  O   O98       1.0  0.10750  0.69810  0.71710  1.0000
  O   O99       1.0  0.94810  0.14250  0.46710  1.0000
  O   O100      1.0  0.55190  0.85750  0.96710  1.0000
  O   O101      1.0  0.10750  0.30190  0.28290  1.0000
  O   O102      1.0  0.39250  0.69810  0.78290  1.0000
  O   O103      1.0  0.55190  0.14250  0.03290  1.0000
  O   O104      1.0  0.94810  0.85750  0.53290  1.0000
  O   O105      1.0  0.89250  0.80190  0.71710  1.0000
  O   O106      1.0  0.60750  0.19810  0.21710  1.0000
  O   O107      1.0  0.44810  0.64250  0.96710  1.0000
  O   O108      1.0  0.05190  0.35750  0.46710  1.0000
  O   O109      1.0  0.60750  0.80190  0.78290  1.0000
  O   O110      1.0  0.89250  0.19810  0.28290  1.0000
  O   O111      1.0  0.05190  0.64250  0.53290  1.0000
  O   O112      1.0  0.44810  0.35750  0.03290  1.0000
  O   O113      1.0  0.60750  0.69810  0.78290  1.0000
  O   O114      1.0  0.89250  0.30190  0.28290  1.0000
  O   O115      1.0  0.05190  0.85750  0.53290  1.0000
  O   O116      1.0  0.44810  0.14250  0.03290  1.0000
  O   O117      1.0  0.89250  0.69810  0.71710  1.0000
  O   O118      1.0  0.60750  0.30190  0.21710  1.0000
  O   O119      1.0  0.44810  0.85750  0.96710  1.0000
  O   O120      1.0  0.05190  0.14250  0.46710  1.0000
  O   O121      1.0  0.10750  0.19810  0.28290  1.0000
  O   O122      1.0  0.39250  0.80190  0.78290  1.0000
  O   O123      1.0  0.55190  0.35750  0.03290  1.0000
  O   O124      1.0  0.94810  0.64250  0.53290  1.0000
  O   O125      1.0  0.39250  0.19810  0.21710  1.0000
  O   O126      1.0  0.10750  0.80190  0.71710  1.0000
  O   O127      1.0  0.94810  0.35750  0.46710  1.0000
  O   O128      1.0  0.55190  0.64250  0.96710  1.0000
  C   C1        1.0  0.26870  0.39550  0.30040  1.0000
  C   C2        1.0  0.23130  0.60450  0.80040  1.0000
  C   C3        1.0  0.85450  0.01870  0.55040  1.0000
  C   C4        1.0  0.64550  0.98130  0.05040  1.0000
  C   C5        1.0  0.23130  0.39550  0.19960  1.0000
  C   C6        1.0  0.26870  0.60450  0.69960  1.0000
  C   C7        1.0  0.64550  0.01870  0.94960  1.0000
  C   C8        1.0  0.85450  0.98130  0.44960  1.0000
  C   C9        1.0  0.76870  0.89550  0.80040  1.0000
  C   C10       1.0  0.73130  0.10450  0.30040  1.0000
  C   C11       1.0  0.35450  0.51870  0.05040  1.0000
  C   C12       1.0  0.14550  0.48130  0.55040  1.0000
  C   C13       1.0  0.73130  0.89550  0.69960  1.0000
  C   C14       1.0  0.76870  0.10450  0.19960  1.0000
  C   C15       1.0  0.14550  0.51870  0.44960  1.0000
  C   C16       1.0  0.35450  0.48130  0.94960  1.0000
  C   C17       1.0  0.73130  0.60450  0.69960  1.0000
  C   C18       1.0  0.76870  0.39550  0.19960  1.0000
  C   C19       1.0  0.14550  0.98130  0.44960  1.0000
  C   C20       1.0  0.35450  0.01870  0.94960  1.0000
  C   C21       1.0  0.76870  0.60450  0.80040  1.0000
  C   C22       1.0  0.73130  0.39550  0.30040  1.0000
  C   C23       1.0  0.35450  0.98130  0.05040  1.0000
  C   C24       1.0  0.14550  0.01870  0.55040  1.0000
  C   C25       1.0  0.23130  0.10450  0.19960  1.0000
  C   C26       1.0  0.26870  0.89550  0.69960  1.0000
  C   C27       1.0  0.64550  0.48130  0.94960  1.0000
  C   C28       1.0  0.85450  0.51870  0.44960  1.0000
  C   C29       1.0  0.26870  0.10450  0.30040  1.0000
  C   C30       1.0  0.23130  0.89550  0.80040  1.0000
  C   C31       1.0  0.85450  0.48130  0.55040  1.0000
  C   C32       1.0  0.64550  0.51870  0.05040  1.0000
  C   C33       1.0  0.34620  0.25000  0.06840  1.0000
  C   C34       1.0  0.15380  0.75000  0.56840  1.0000
  C   C35       1.0  0.00000  0.09620  0.31840  1.0000
  C   C36       1.0  0.50000  0.90380  0.81840  1.0000
  C   C37       1.0  0.15380  0.25000  0.43160  1.0000
  C   C38       1.0  0.34620  0.75000  0.93160  1.0000
  C   C39       1.0  0.50000  0.09620  0.18160  1.0000
  C   C40       1.0  0.00000  0.90380  0.68160  1.0000
  C   C41       1.0  0.84620  0.75000  0.56840  1.0000
  C   C42       1.0  0.65380  0.25000  0.06840  1.0000
  C   C43       1.0  0.50000  0.59620  0.81840  1.0000
  C   C44       1.0  0.00000  0.40380  0.31840  1.0000
  C   C45       1.0  0.65380  0.75000  0.93160  1.0000
  C   C46       1.0  0.84620  0.25000  0.43160  1.0000
  C   C47       1.0  0.00000  0.59620  0.68160  1.0000
  C   C48       1.0  0.50000  0.40380  0.18160  1.0000
  C   C49       1.0  0.38010  0.25000  0.17640  1.0000
  C   C50       1.0  0.11990  0.75000  0.67640  1.0000
  C   C51       1.0  0.00000  0.13010  0.42640  1.0000
  C   C52       1.0  0.50000  0.86990  0.92640  1.0000
  C   C53       1.0  0.11990  0.25000  0.32360  1.0000
  C   C54       1.0  0.38010  0.75000  0.82360  1.0000
  C   C55       1.0  0.50000  0.13010  0.07360  1.0000
  C   C56       1.0  0.00000  0.86990  0.57360  1.0000
  C   C57       1.0  0.88010  0.75000  0.67640  1.0000
  C   C58       1.0  0.61990  0.25000  0.17640  1.0000
  C   C59       1.0  0.50000  0.63010  0.92640  1.0000
  C   C60       1.0  0.00000  0.36990  0.42640  1.0000
  C   C61       1.0  0.61990  0.75000  0.82360  1.0000
  C   C62       1.0  0.88010  0.25000  0.32360  1.0000
  C   C63       1.0  0.00000  0.63010  0.57360  1.0000
  C   C64       1.0  0.50000  0.36990  0.07360  1.0000
