data_image0
_chemical_formula_structural       Tb4O20C4O4N4C8H4C4H4C4H4C4H8N4O4C32H4O4
_chemical_formula_sum              "Tb4 O32 C56 N8 H24"
_cell_length_a       9.2477
_cell_length_b       10.1192
_cell_length_c       21.715
_cell_angle_alpha    90
_cell_angle_beta     100.542
_cell_angle_gamma    90

_space_group_name_H-M_alt    "P 1"
_space_group_IT_number       1

loop_
  _space_group_symop_operation_xyz
  'x, y, z'

loop_
  _atom_site_type_symbol
  _atom_site_label
  _atom_site_symmetry_multiplicity
  _atom_site_fract_x
  _atom_site_fract_y
  _atom_site_fract_z
  _atom_site_occupancy
  Tb  Tb1       1.0  0.11657  0.37460  0.05970  1.0000
  Tb  Tb2       1.0  0.88343  0.87460  0.44030  1.0000
  Tb  Tb3       1.0  0.88343  0.62540  0.94030  1.0000
  Tb  Tb4       1.0  0.11657  0.12540  0.55970  1.0000
  O   O1        1.0  0.11270  0.62680  0.00320  1.0000
  O   O2        1.0  0.88730  0.12680  0.49680  1.0000
  O   O3        1.0  0.88730  0.37320  0.99680  1.0000
  O   O4        1.0  0.11270  0.87320  0.50320  1.0000
  O   O5        1.0  0.32100  0.22790  0.07749  1.0000
  O   O6        1.0  0.67900  0.72790  0.42251  1.0000
  O   O7        1.0  0.67900  0.77210  0.92251  1.0000
  O   O8        1.0  0.32100  0.27210  0.57749  1.0000
  O   O9        1.0  0.83040  0.64100  0.04353  1.0000
  O   O10       1.0  0.16960  0.14100  0.45647  1.0000
  O   O11       1.0  0.16960  0.35900  0.95647  1.0000
  O   O12       1.0  0.83040  0.85900  0.54353  1.0000
  O   O13       1.0  0.10900  0.13740  0.03522  1.0000
  O   O14       1.0  0.89100  0.63740  0.46478  1.0000
  O   O15       1.0  0.89100  0.86260  0.96478  1.0000
  O   O16       1.0  0.10900  0.36260  0.53522  1.0000
  O   O17       1.0  0.30530  0.53510  0.06195  1.0000
  O   O18       1.0  0.69470  0.03510  0.43805  1.0000
  O   O19       1.0  0.69470  0.46490  0.93805  1.0000
  O   O20       1.0  0.30530  0.96490  0.56195  1.0000
  C   C1        1.0  0.24280  0.63360  0.03396  1.0000
  C   C2        1.0  0.75720  0.13360  0.46604  1.0000
  C   C3        1.0  0.75720  0.36640  0.96604  1.0000
  C   C4        1.0  0.24280  0.86640  0.53396  1.0000
  O   O21       1.0  0.76130  0.89280  0.32720  1.0000
  O   O22       1.0  0.23870  0.39280  0.17280  1.0000
  O   O23       1.0  0.23870  0.10720  0.67280  1.0000
  O   O24       1.0  0.76130  0.60720  0.82720  1.0000
  N   N1        1.0  0.76430  0.85920  0.20118  1.0000
  N   N2        1.0  0.23570  0.35920  0.29882  1.0000
  N   N3        1.0  0.23570  0.14080  0.79882  1.0000
  N   N4        1.0  0.76430  0.64080  0.70118  1.0000
  C   C5        1.0  0.55460  0.88040  0.07333  1.0000
  C   C6        1.0  0.44540  0.38040  0.42667  1.0000
  C   C7        1.0  0.44540  0.11960  0.92667  1.0000
  C   C8        1.0  0.55460  0.61960  0.57333  1.0000
  C   C9        1.0  0.47890  0.76350  0.05815  1.0000
  C   C10       1.0  0.52110  0.26350  0.44185  1.0000
  C   C11       1.0  0.52110  0.23650  0.94185  1.0000
  C   C12       1.0  0.47890  0.73650  0.55815  1.0000
  H   H1        1.0  0.53207  0.68306  0.05858  1.0000
  H   H2        1.0  0.46793  0.18306  0.44142  1.0000
  H   H3        1.0  0.46793  0.31694  0.94142  1.0000
  H   H4        1.0  0.53207  0.81694  0.55858  1.0000
  C   C13       1.0  0.24550  0.88130  0.03894  1.0000
  C   C14       1.0  0.75450  0.38130  0.46106  1.0000
  C   C15       1.0  0.75450  0.11870  0.96106  1.0000
  C   C16       1.0  0.24550  0.61870  0.53894  1.0000
  H   H5        1.0  0.14180  0.88312  0.02552  1.0000
  H   H6        1.0  0.85820  0.38312  0.47448  1.0000
  H   H7        1.0  0.85820  0.11688  0.97448  1.0000
  H   H8        1.0  0.14180  0.61688  0.52552  1.0000
  C   C17       1.0  0.47670  0.99660  0.07303  1.0000
  C   C18       1.0  0.52330  0.49660  0.42697  1.0000
  C   C19       1.0  0.52330  0.00340  0.92697  1.0000
  C   C20       1.0  0.47670  0.50340  0.57303  1.0000
  H   H9        1.0  0.52777  0.07692  0.08450  1.0000
  H   H10       1.0  0.47223  0.57692  0.41550  1.0000
  H   H11       1.0  0.47223  0.92308  0.91550  1.0000
  H   H12       1.0  0.52777  0.42308  0.58450  1.0000
  C   C21       1.0  0.72100  0.88580  0.08981  1.0000
  C   C22       1.0  0.27900  0.38580  0.41019  1.0000
  C   C23       1.0  0.27900  0.11420  0.91019  1.0000
  C   C24       1.0  0.72100  0.61420  0.58981  1.0000
  H   H13       1.0  0.76299  0.85234  0.05401  1.0000
  H   H14       1.0  0.23701  0.35234  0.44599  1.0000
  H   H15       1.0  0.23701  0.14766  0.94599  1.0000
  H   H16       1.0  0.76299  0.64766  0.55401  1.0000
  H   H17       1.0  0.75260  0.97878  0.09730  1.0000
  H   H18       1.0  0.24740  0.47878  0.40270  1.0000
  H   H19       1.0  0.24740  0.02122  0.90270  1.0000
  H   H20       1.0  0.75260  0.52122  0.59730  1.0000
  N   N5        1.0  0.77840  0.80710  0.14563  1.0000
  N   N6        1.0  0.22160  0.30710  0.35437  1.0000
  N   N7        1.0  0.22160  0.19290  0.85437  1.0000
  N   N8        1.0  0.77840  0.69290  0.64563  1.0000
  O   O25       1.0  0.99410  0.52990  0.11302  1.0000
  O   O26       1.0  0.00590  0.02990  0.38698  1.0000
  O   O27       1.0  0.00590  0.47010  0.88698  1.0000
  O   O28       1.0  0.99410  0.97010  0.61302  1.0000
  C   C25       1.0  0.32300  0.76180  0.04191  1.0000
  C   C26       1.0  0.67700  0.26180  0.45809  1.0000
  C   C27       1.0  0.67700  0.23820  0.95809  1.0000
  C   C28       1.0  0.32300  0.73820  0.54191  1.0000
  C   C29       1.0  0.83930  0.77580  0.24378  1.0000
  C   C30       1.0  0.16070  0.27580  0.25622  1.0000
  C   C31       1.0  0.16070  0.22420  0.75622  1.0000
  C   C32       1.0  0.83930  0.72420  0.74378  1.0000
  C   C33       1.0  0.24490  0.12920  0.05644  1.0000
  C   C34       1.0  0.75510  0.62920  0.44356  1.0000
  C   C35       1.0  0.75510  0.87080  0.94356  1.0000
  C   C36       1.0  0.24490  0.37080  0.55644  1.0000
  C   C37       1.0  0.89600  0.61690  0.09755  1.0000
  C   C38       1.0  0.10400  0.11690  0.40245  1.0000
  C   C39       1.0  0.10400  0.38310  0.90245  1.0000
  C   C40       1.0  0.89600  0.88310  0.59755  1.0000
  C   C41       1.0  0.32340  0.99760  0.05605  1.0000
  C   C42       1.0  0.67660  0.49760  0.44395  1.0000
  C   C43       1.0  0.67660  0.00240  0.94395  1.0000
  C   C44       1.0  0.32340  0.50240  0.55605  1.0000
  C   C45       1.0  0.84720  0.80860  0.31087  1.0000
  C   C46       1.0  0.15280  0.30860  0.18913  1.0000
  C   C47       1.0  0.15280  0.19140  0.68913  1.0000
  C   C48       1.0  0.84720  0.69140  0.81087  1.0000
  C   C49       1.0  0.85770  0.69490  0.15130  1.0000
  C   C50       1.0  0.14230  0.19490  0.34870  1.0000
  C   C51       1.0  0.14230  0.30510  0.84870  1.0000
  C   C52       1.0  0.85770  0.80510  0.65130  1.0000
  C   C53       1.0  0.90040  0.67200  0.21479  1.0000
  C   C54       1.0  0.09960  0.17200  0.28521  1.0000
  C   C55       1.0  0.09960  0.32800  0.78521  1.0000
  C   C56       1.0  0.90040  0.82800  0.71479  1.0000
  H   H21       1.0  0.95856  0.60111  0.23441  1.0000
  H   H22       1.0  0.04144  0.10111  0.26559  1.0000
  H   H23       1.0  0.04144  0.39889  0.76559  1.0000
  H   H24       1.0  0.95856  0.89889  0.73441  1.0000
  O   O29       1.0  0.94340  0.74960  0.35131  1.0000
  O   O30       1.0  0.05660  0.24960  0.14869  1.0000
  O   O31       1.0  0.05660  0.25040  0.64869  1.0000
  O   O32       1.0  0.94340  0.75040  0.85131  1.0000
