data_image0
_chemical_formula_structural       Mn8Cr8O96C48
_chemical_formula_sum              "Mn8 Cr8 O96 C48"
_cell_length_a       19.4566
_cell_length_b       15.5539
_cell_length_c       22.9545
_cell_angle_alpha    90
_cell_angle_beta     90
_cell_angle_gamma    90

_space_group_name_H-M_alt    "P 1"
_space_group_IT_number       1

loop_
  _space_group_symop_operation_xyz
  'x, y, z'

loop_
  _atom_site_type_symbol
  _atom_site_label
  _atom_site_symmetry_multiplicity
  _atom_site_fract_x
  _atom_site_fract_y
  _atom_site_fract_z
  _atom_site_occupancy
  Mn  Mn1       1.0  0.25000  0.00000  0.38191  1.0000
  Mn  Mn2       1.0  0.25000  0.50000  0.11809  1.0000
  Mn  Mn3       1.0  0.75000  0.00000  0.61809  1.0000
  Mn  Mn4       1.0  0.75000  0.50000  0.88191  1.0000
  Mn  Mn5       1.0  0.35577  0.25000  0.75000  1.0000
  Mn  Mn6       1.0  0.14423  0.75000  0.75000  1.0000
  Mn  Mn7       1.0  0.64423  0.75000  0.25000  1.0000
  Mn  Mn8       1.0  0.85577  0.25000  0.25000  1.0000
  Cr  Cr1       1.0  0.36669  0.75000  0.25000  1.0000
  Cr  Cr2       1.0  0.13331  0.25000  0.25000  1.0000
  Cr  Cr3       1.0  0.63331  0.25000  0.75000  1.0000
  Cr  Cr4       1.0  0.86669  0.75000  0.75000  1.0000
  Cr  Cr5       1.0  0.25000  0.00000  0.61656  1.0000
  Cr  Cr6       1.0  0.25000  0.50000  0.88344  1.0000
  Cr  Cr7       1.0  0.75000  0.00000  0.38344  1.0000
  Cr  Cr8       1.0  0.75000  0.50000  0.11656  1.0000
  O   O1        1.0  0.29670  0.76030  0.31270  1.0000
  O   O2        1.0  0.20330  0.23970  0.31270  1.0000
  O   O3        1.0  0.20330  0.26030  0.18730  1.0000
  O   O4        1.0  0.29670  0.73970  0.18730  1.0000
  O   O5        1.0  0.70330  0.23970  0.68730  1.0000
  O   O6        1.0  0.79670  0.76030  0.68730  1.0000
  O   O7        1.0  0.79670  0.73970  0.81270  1.0000
  O   O8        1.0  0.70330  0.26030  0.81270  1.0000
  O   O9        1.0  0.36430  0.87710  0.25300  1.0000
  O   O10       1.0  0.13570  0.12290  0.25300  1.0000
  O   O11       1.0  0.13570  0.37710  0.24700  1.0000
  O   O12       1.0  0.36430  0.62290  0.24700  1.0000
  O   O13       1.0  0.63570  0.12290  0.74700  1.0000
  O   O14       1.0  0.86430  0.87710  0.74700  1.0000
  O   O15       1.0  0.86430  0.62290  0.75300  1.0000
  O   O16       1.0  0.63570  0.37710  0.75300  1.0000
  O   O17       1.0  0.24900  0.86000  0.36980  1.0000
  O   O18       1.0  0.25100  0.14000  0.36980  1.0000
  O   O19       1.0  0.25100  0.36000  0.13020  1.0000
  O   O20       1.0  0.24900  0.64000  0.13020  1.0000
  O   O21       1.0  0.75100  0.14000  0.63020  1.0000
  O   O22       1.0  0.74900  0.86000  0.63020  1.0000
  O   O23       1.0  0.74900  0.64000  0.86980  1.0000
  O   O24       1.0  0.75100  0.36000  0.86980  1.0000
  O   O25       1.0  0.32550  0.98260  0.31200  1.0000
  O   O26       1.0  0.17450  0.01740  0.31200  1.0000
  O   O27       1.0  0.17450  0.48260  0.18800  1.0000
  O   O28       1.0  0.32550  0.51740  0.18800  1.0000
  O   O29       1.0  0.67450  0.01740  0.68800  1.0000
  O   O30       1.0  0.82550  0.98260  0.68800  1.0000
  O   O31       1.0  0.82550  0.51740  0.81200  1.0000
  O   O32       1.0  0.67450  0.48260  0.81200  1.0000
  O   O33       1.0  0.24610  0.12690  0.62170  1.0000
  O   O34       1.0  0.25390  0.87310  0.62170  1.0000
  O   O35       1.0  0.25390  0.62690  0.87830  1.0000
  O   O36       1.0  0.24610  0.37310  0.87830  1.0000
  O   O37       1.0  0.75390  0.87310  0.37830  1.0000
  O   O38       1.0  0.74610  0.12690  0.37830  1.0000
  O   O39       1.0  0.74610  0.37310  0.12170  1.0000
  O   O40       1.0  0.75390  0.62690  0.12170  1.0000
  O   O41       1.0  0.32010  0.01300  0.67890  1.0000
  O   O42       1.0  0.17990  0.98700  0.67890  1.0000
  O   O43       1.0  0.17990  0.51300  0.82110  1.0000
  O   O44       1.0  0.32010  0.48700  0.82110  1.0000
  O   O45       1.0  0.67990  0.98700  0.32110  1.0000
  O   O46       1.0  0.82010  0.01300  0.32110  1.0000
  O   O47       1.0  0.82010  0.48700  0.17890  1.0000
  O   O48       1.0  0.67990  0.51300  0.17890  1.0000
  O   O49       1.0  0.28560  0.23350  0.67720  1.0000
  O   O50       1.0  0.21440  0.76650  0.67720  1.0000
  O   O51       1.0  0.21440  0.73350  0.82280  1.0000
  O   O52       1.0  0.28560  0.26650  0.82280  1.0000
  O   O53       1.0  0.71440  0.76650  0.32280  1.0000
  O   O54       1.0  0.78560  0.23350  0.32280  1.0000
  O   O55       1.0  0.78560  0.26650  0.17720  1.0000
  O   O56       1.0  0.71440  0.73350  0.17720  1.0000
  O   O57       1.0  0.34900  0.11300  0.74610  1.0000
  O   O58       1.0  0.15100  0.88700  0.74610  1.0000
  O   O59       1.0  0.15100  0.61300  0.75390  1.0000
  O   O60       1.0  0.34900  0.38700  0.75390  1.0000
  O   O61       1.0  0.65100  0.88700  0.25390  1.0000
  O   O62       1.0  0.84900  0.11300  0.25390  1.0000
  O   O63       1.0  0.84900  0.38700  0.24610  1.0000
  O   O64       1.0  0.65100  0.61300  0.24610  1.0000
  O   O65       1.0  0.44160  0.75010  0.30773  1.0000
  O   O66       1.0  0.05840  0.24990  0.30773  1.0000
  O   O67       1.0  0.05840  0.25010  0.19227  1.0000
  O   O68       1.0  0.44160  0.74990  0.19227  1.0000
  O   O69       1.0  0.55840  0.24990  0.69227  1.0000
  O   O70       1.0  0.94160  0.75010  0.69227  1.0000
  O   O71       1.0  0.94160  0.74990  0.80773  1.0000
  O   O72       1.0  0.55840  0.25010  0.80773  1.0000
  O   O73       1.0  0.55580  0.76150  0.30914  1.0000
  O   O74       1.0  0.94420  0.23850  0.30914  1.0000
  O   O75       1.0  0.94420  0.26150  0.19086  1.0000
  O   O76       1.0  0.55580  0.73850  0.19086  1.0000
  O   O77       1.0  0.44420  0.23850  0.69086  1.0000
  O   O78       1.0  0.05580  0.76150  0.69086  1.0000
  O   O79       1.0  0.05580  0.73850  0.80914  1.0000
  O   O80       1.0  0.44420  0.26150  0.80914  1.0000
  O   O81       1.0  0.32010  0.01120  0.45570  1.0000
  O   O82       1.0  0.17990  0.98880  0.45570  1.0000
  O   O83       1.0  0.17990  0.51120  0.04430  1.0000
  O   O84       1.0  0.32010  0.48880  0.04430  1.0000
  O   O85       1.0  0.67990  0.98880  0.54430  1.0000
  O   O86       1.0  0.82010  0.01120  0.54430  1.0000
  O   O87       1.0  0.82010  0.48880  0.95570  1.0000
  O   O88       1.0  0.67990  0.51120  0.95570  1.0000
  O   O89       1.0  0.31910  0.00540  0.55320  1.0000
  O   O90       1.0  0.18090  0.99460  0.55320  1.0000
  O   O91       1.0  0.18090  0.50540  0.94680  1.0000
  O   O92       1.0  0.31910  0.49460  0.94680  1.0000
  O   O93       1.0  0.68090  0.99460  0.44680  1.0000
  O   O94       1.0  0.81910  0.00540  0.44680  1.0000
  O   O95       1.0  0.81910  0.49460  0.05320  1.0000
  O   O96       1.0  0.68090  0.50540  0.05320  1.0000
  C   C1        1.0  0.28750  0.83750  0.32900  1.0000
  C   C2        1.0  0.21250  0.16250  0.32900  1.0000
  C   C3        1.0  0.21250  0.33750  0.17100  1.0000
  C   C4        1.0  0.28750  0.66250  0.17100  1.0000
  C   C5        1.0  0.71250  0.16250  0.67100  1.0000
  C   C6        1.0  0.78750  0.83750  0.67100  1.0000
  C   C7        1.0  0.78750  0.66250  0.82900  1.0000
  C   C8        1.0  0.71250  0.33750  0.82900  1.0000
  C   C9        1.0  0.33020  0.90520  0.29550  1.0000
  C   C10       1.0  0.16980  0.09480  0.29550  1.0000
  C   C11       1.0  0.16980  0.40520  0.20450  1.0000
  C   C12       1.0  0.33020  0.59480  0.20450  1.0000
  C   C13       1.0  0.66980  0.09480  0.70450  1.0000
  C   C14       1.0  0.83020  0.90520  0.70450  1.0000
  C   C15       1.0  0.83020  0.59480  0.79550  1.0000
  C   C16       1.0  0.66980  0.40520  0.79550  1.0000
  C   C17       1.0  0.27950  0.15670  0.66400  1.0000
  C   C18       1.0  0.22050  0.84330  0.66400  1.0000
  C   C19       1.0  0.22050  0.65670  0.83600  1.0000
  C   C20       1.0  0.27950  0.34330  0.83600  1.0000
  C   C21       1.0  0.72050  0.84330  0.33600  1.0000
  C   C22       1.0  0.77950  0.15670  0.33600  1.0000
  C   C23       1.0  0.77950  0.34330  0.16400  1.0000
  C   C24       1.0  0.72050  0.65670  0.16400  1.0000
  C   C25       1.0  0.32050  0.08870  0.70150  1.0000
  C   C26       1.0  0.17950  0.91130  0.70150  1.0000
  C   C27       1.0  0.17950  0.58870  0.79850  1.0000
  C   C28       1.0  0.32050  0.41130  0.79850  1.0000
  C   C29       1.0  0.67950  0.91130  0.29850  1.0000
  C   C30       1.0  0.82050  0.08870  0.29850  1.0000
  C   C31       1.0  0.82050  0.41130  0.20150  1.0000
  C   C32       1.0  0.67950  0.58870  0.20150  1.0000
  C   C33       1.0  0.50030  0.75400  0.28330  1.0000
  C   C34       1.0  0.99970  0.24600  0.28330  1.0000
  C   C35       1.0  0.99970  0.25400  0.21670  1.0000
  C   C36       1.0  0.50030  0.74600  0.21670  1.0000
  C   C37       1.0  0.49970  0.24600  0.71670  1.0000
  C   C38       1.0  0.00030  0.75400  0.71670  1.0000
  C   C39       1.0  0.00030  0.74600  0.78330  1.0000
  C   C40       1.0  0.49970  0.25400  0.78330  1.0000
  C   C41       1.0  0.28960  0.00600  0.50270  1.0000
  C   C42       1.0  0.21040  0.99400  0.50270  1.0000
  C   C43       1.0  0.21040  0.50600  0.99730  1.0000
  C   C44       1.0  0.28960  0.49400  0.99730  1.0000
  C   C45       1.0  0.71040  0.99400  0.49730  1.0000
  C   C46       1.0  0.78960  0.00600  0.49730  1.0000
  C   C47       1.0  0.78960  0.49400  0.00270  1.0000
  C   C48       1.0  0.71040  0.50600  0.00270  1.0000
