data_image0
_chemical_formula_structural       Mg6P12O78H12O6H12N12C36H12C12H12C24H12C12H12C36H12C12H12C24H12C12H12
_chemical_formula_sum              "Mg6 P12 O84 H120 N12 C168"
_cell_length_a       18.571
_cell_length_b       18.571
_cell_length_c       28.8779
_cell_angle_alpha    90
_cell_angle_beta     90
_cell_angle_gamma    120

_space_group_name_H-M_alt    "P 1"
_space_group_IT_number       1

loop_
  _space_group_symop_operation_xyz
  'x, y, z'

loop_
  _atom_site_type_symbol
  _atom_site_label
  _atom_site_symmetry_multiplicity
  _atom_site_fract_x
  _atom_site_fract_y
  _atom_site_fract_z
  _atom_site_occupancy
  Mg  Mg1       1.0  0.46969  0.27738  0.25000  1.0000
  Mg  Mg2       1.0  0.19231  0.46969  0.75000  1.0000
  Mg  Mg3       1.0  0.72262  0.19231  0.25000  1.0000
  Mg  Mg4       1.0  0.53031  0.72262  0.75000  1.0000
  Mg  Mg5       1.0  0.80769  0.53031  0.25000  1.0000
  Mg  Mg6       1.0  0.27738  0.80769  0.75000  1.0000
  P   P1        1.0  0.62764  0.23559  0.96178  1.0000
  P   P2        1.0  0.39205  0.62764  0.46178  1.0000
  P   P3        1.0  0.76441  0.39205  0.96178  1.0000
  P   P4        1.0  0.37236  0.76441  0.46178  1.0000
  P   P5        1.0  0.60795  0.37236  0.96178  1.0000
  P   P6        1.0  0.23559  0.60795  0.46178  1.0000
  P   P7        1.0  0.37236  0.76441  0.03822  1.0000
  P   P8        1.0  0.60795  0.37236  0.53822  1.0000
  P   P9        1.0  0.23559  0.60795  0.03822  1.0000
  P   P10       1.0  0.62764  0.23559  0.53822  1.0000
  P   P11       1.0  0.39205  0.62764  0.03822  1.0000
  P   P12       1.0  0.76441  0.39205  0.53822  1.0000
  O   O1        1.0  0.59460  0.15730  0.99521  1.0000
  O   O2        1.0  0.43730  0.59460  0.49521  1.0000
  O   O3        1.0  0.84270  0.43730  0.99521  1.0000
  O   O4        1.0  0.40540  0.84270  0.49521  1.0000
  O   O5        1.0  0.56270  0.40540  0.99521  1.0000
  O   O6        1.0  0.15730  0.56270  0.49521  1.0000
  O   O7        1.0  0.40540  0.84270  0.00479  1.0000
  O   O8        1.0  0.56270  0.40540  0.50479  1.0000
  O   O9        1.0  0.15730  0.56270  0.00479  1.0000
  O   O10       1.0  0.59460  0.15730  0.50479  1.0000
  O   O11       1.0  0.43730  0.59460  0.00479  1.0000
  O   O12       1.0  0.84270  0.43730  0.50479  1.0000
  O   O13       1.0  0.61840  0.19280  0.91324  1.0000
  O   O14       1.0  0.42560  0.61840  0.41324  1.0000
  O   O15       1.0  0.80720  0.42560  0.91324  1.0000
  O   O16       1.0  0.38160  0.80720  0.41324  1.0000
  O   O17       1.0  0.57440  0.38160  0.91324  1.0000
  O   O18       1.0  0.19280  0.57440  0.41324  1.0000
  O   O19       1.0  0.38160  0.80720  0.08676  1.0000
  O   O20       1.0  0.57440  0.38160  0.58676  1.0000
  O   O21       1.0  0.19280  0.57440  0.08676  1.0000
  O   O22       1.0  0.61840  0.19280  0.58676  1.0000
  O   O23       1.0  0.42560  0.61840  0.08676  1.0000
  O   O24       1.0  0.80720  0.42560  0.58676  1.0000
  O   O25       1.0  0.37740  0.12780  0.17005  1.0000
  O   O26       1.0  0.24960  0.37740  0.67005  1.0000
  O   O27       1.0  0.87220  0.24960  0.17005  1.0000
  O   O28       1.0  0.62260  0.87220  0.67005  1.0000
  O   O29       1.0  0.75040  0.62260  0.17005  1.0000
  O   O30       1.0  0.12780  0.75040  0.67005  1.0000
  O   O31       1.0  0.62260  0.87220  0.82995  1.0000
  O   O32       1.0  0.75040  0.62260  0.32995  1.0000
  O   O33       1.0  0.12780  0.75040  0.82995  1.0000
  O   O34       1.0  0.37740  0.12780  0.32995  1.0000
  O   O35       1.0  0.24960  0.37740  0.82995  1.0000
  O   O36       1.0  0.87220  0.24960  0.32995  1.0000
  O   O37       1.0  0.50120  0.21920  0.19891  1.0000
  O   O38       1.0  0.28200  0.50120  0.69891  1.0000
  O   O39       1.0  0.78080  0.28200  0.19891  1.0000
  O   O40       1.0  0.49880  0.78080  0.69891  1.0000
  O   O41       1.0  0.71800  0.49880  0.19891  1.0000
  O   O42       1.0  0.21920  0.71800  0.69891  1.0000
  O   O43       1.0  0.49880  0.78080  0.80109  1.0000
  O   O44       1.0  0.71800  0.49880  0.30109  1.0000
  O   O45       1.0  0.21920  0.71800  0.80109  1.0000
  O   O46       1.0  0.50120  0.21920  0.30109  1.0000
  O   O47       1.0  0.28200  0.50120  0.80109  1.0000
  O   O48       1.0  0.78080  0.28200  0.30109  1.0000
  O   O49       1.0  0.26890  0.96130  0.81580  1.0000
  O   O50       1.0  0.30760  0.26890  0.31580  1.0000
  O   O51       1.0  0.03870  0.30760  0.81580  1.0000
  O   O52       1.0  0.73110  0.03870  0.31580  1.0000
  O   O53       1.0  0.69240  0.73110  0.81580  1.0000
  O   O54       1.0  0.96130  0.69240  0.31580  1.0000
  O   O55       1.0  0.73110  0.03870  0.18420  1.0000
  O   O56       1.0  0.69240  0.73110  0.68420  1.0000
  O   O57       1.0  0.96130  0.69240  0.18420  1.0000
  O   O58       1.0  0.26890  0.96130  0.68420  1.0000
  O   O59       1.0  0.30760  0.26890  0.18420  1.0000
  O   O60       1.0  0.03870  0.30760  0.68420  1.0000
  O   O61       1.0  0.33690  0.89480  0.80080  1.0000
  O   O62       1.0  0.44210  0.33690  0.30080  1.0000
  O   O63       1.0  0.10520  0.44210  0.80080  1.0000
  O   O64       1.0  0.66310  0.10520  0.30080  1.0000
  O   O65       1.0  0.55790  0.66310  0.80080  1.0000
  O   O66       1.0  0.89480  0.55790  0.30080  1.0000
  O   O67       1.0  0.66310  0.10520  0.19920  1.0000
  O   O68       1.0  0.55790  0.66310  0.69920  1.0000
  O   O69       1.0  0.89480  0.55790  0.19920  1.0000
  O   O70       1.0  0.33690  0.89480  0.69920  1.0000
  O   O71       1.0  0.44210  0.33690  0.19920  1.0000
  O   O72       1.0  0.10520  0.44210  0.69920  1.0000
  O   O73       1.0  0.33980  0.18100  0.25000  1.0000
  O   O74       1.0  0.15880  0.33980  0.75000  1.0000
  O   O75       1.0  0.81900  0.15880  0.25000  1.0000
  O   O76       1.0  0.66020  0.81900  0.75000  1.0000
  O   O77       1.0  0.84120  0.66020  0.25000  1.0000
  O   O78       1.0  0.18100  0.84120  0.75000  1.0000
  H   H1        1.0  0.32080  0.16930  0.27740  1.0000
  H   H2        1.0  0.15150  0.32080  0.77740  1.0000
  H   H3        1.0  0.83070  0.15150  0.27740  1.0000
  H   H4        1.0  0.67920  0.83070  0.77740  1.0000
  H   H5        1.0  0.84850  0.67920  0.27740  1.0000
  H   H6        1.0  0.16930  0.84850  0.77740  1.0000
  H   H7        1.0  0.67920  0.83070  0.72260  1.0000
  H   H8        1.0  0.84850  0.67920  0.22260  1.0000
  H   H9        1.0  0.16930  0.84850  0.72260  1.0000
  H   H10       1.0  0.32080  0.16930  0.22260  1.0000
  H   H11       1.0  0.15150  0.32080  0.72260  1.0000
  H   H12       1.0  0.83070  0.15150  0.22260  1.0000
  O   O79       1.0  0.59050  0.37100  0.25000  1.0000
  O   O80       1.0  0.21950  0.59050  0.75000  1.0000
  O   O81       1.0  0.62900  0.21950  0.25000  1.0000
  O   O82       1.0  0.40950  0.62900  0.75000  1.0000
  O   O83       1.0  0.78050  0.40950  0.25000  1.0000
  O   O84       1.0  0.37100  0.78050  0.75000  1.0000
  H   H13       1.0  0.60200  0.39520  0.27620  1.0000
  H   H14       1.0  0.20680  0.60200  0.77620  1.0000
  H   H15       1.0  0.60480  0.20680  0.27620  1.0000
  H   H16       1.0  0.39800  0.60480  0.77620  1.0000
  H   H17       1.0  0.79320  0.39800  0.27620  1.0000
  H   H18       1.0  0.39520  0.79320  0.77620  1.0000
  H   H19       1.0  0.39800  0.60480  0.72380  1.0000
  H   H20       1.0  0.79320  0.39800  0.22380  1.0000
  H   H21       1.0  0.39520  0.79320  0.72380  1.0000
  H   H22       1.0  0.60200  0.39520  0.22380  1.0000
  H   H23       1.0  0.20680  0.60200  0.72380  1.0000
  H   H24       1.0  0.60480  0.20680  0.22380  1.0000
  N   N1        1.0  0.57000  0.27530  0.96721  1.0000
  N   N2        1.0  0.29470  0.57000  0.46721  1.0000
  N   N3        1.0  0.72470  0.29470  0.96721  1.0000
  N   N4        1.0  0.43000  0.72470  0.46721  1.0000
  N   N5        1.0  0.70530  0.43000  0.96721  1.0000
  N   N6        1.0  0.27530  0.70530  0.46721  1.0000
  N   N7        1.0  0.43000  0.72470  0.03279  1.0000
  N   N8        1.0  0.70530  0.43000  0.53279  1.0000
  N   N9        1.0  0.27530  0.70530  0.03279  1.0000
  N   N10       1.0  0.57000  0.27530  0.53279  1.0000
  N   N11       1.0  0.29470  0.57000  0.03279  1.0000
  N   N12       1.0  0.72470  0.29470  0.53279  1.0000
  C   C1        1.0  0.45490  0.17010  0.16716  1.0000
  C   C2        1.0  0.28480  0.45490  0.66716  1.0000
  C   C3        1.0  0.82990  0.28480  0.16716  1.0000
  C   C4        1.0  0.54510  0.82990  0.66716  1.0000
  C   C5        1.0  0.71520  0.54510  0.16716  1.0000
  C   C6        1.0  0.17010  0.71520  0.66716  1.0000
  C   C7        1.0  0.54510  0.82990  0.83284  1.0000
  C   C8        1.0  0.71520  0.54510  0.33284  1.0000
  C   C9        1.0  0.17010  0.71520  0.83284  1.0000
  C   C10       1.0  0.45490  0.17010  0.33284  1.0000
  C   C11       1.0  0.28480  0.45490  0.83284  1.0000
  C   C12       1.0  0.82990  0.28480  0.33284  1.0000
  C   C13       1.0  0.49380  0.16580  0.12324  1.0000
  C   C14       1.0  0.32800  0.49380  0.62324  1.0000
  C   C15       1.0  0.83420  0.32800  0.12324  1.0000
  C   C16       1.0  0.50620  0.83420  0.62324  1.0000
  C   C17       1.0  0.67200  0.50620  0.12324  1.0000
  C   C18       1.0  0.16580  0.67200  0.62324  1.0000
  C   C19       1.0  0.50620  0.83420  0.87676  1.0000
  C   C20       1.0  0.67200  0.50620  0.37676  1.0000
  C   C21       1.0  0.16580  0.67200  0.87676  1.0000
  C   C22       1.0  0.49380  0.16580  0.37676  1.0000
  C   C23       1.0  0.32800  0.49380  0.87676  1.0000
  C   C24       1.0  0.83420  0.32800  0.37676  1.0000
  C   C25       1.0  0.44270  0.12180  0.08532  1.0000
  C   C26       1.0  0.32090  0.44270  0.58532  1.0000
  C   C27       1.0  0.87820  0.32090  0.08532  1.0000
  C   C28       1.0  0.55730  0.87820  0.58532  1.0000
  C   C29       1.0  0.67910  0.55730  0.08532  1.0000
  C   C30       1.0  0.12180  0.67910  0.58532  1.0000
  C   C31       1.0  0.55730  0.87820  0.91468  1.0000
  C   C32       1.0  0.67910  0.55730  0.41468  1.0000
  C   C33       1.0  0.12180  0.67910  0.91468  1.0000
  C   C34       1.0  0.44270  0.12180  0.41468  1.0000
  C   C35       1.0  0.32090  0.44270  0.91468  1.0000
  C   C36       1.0  0.87820  0.32090  0.41468  1.0000
  H   H25       1.0  0.38530  0.09400  0.08900  1.0000
  H   H26       1.0  0.29130  0.38530  0.58900  1.0000
  H   H27       1.0  0.90600  0.29130  0.08900  1.0000
  H   H28       1.0  0.61470  0.90600  0.58900  1.0000
  H   H29       1.0  0.70870  0.61470  0.08900  1.0000
  H   H30       1.0  0.09400  0.70870  0.58900  1.0000
  H   H31       1.0  0.61470  0.90600  0.91100  1.0000
  H   H32       1.0  0.70870  0.61470  0.41100  1.0000
  H   H33       1.0  0.09400  0.70870  0.91100  1.0000
  H   H34       1.0  0.38530  0.09400  0.41100  1.0000
  H   H35       1.0  0.29130  0.38530  0.91100  1.0000
  H   H36       1.0  0.90600  0.29130  0.41100  1.0000
  C   C37       1.0  0.47510  0.11880  0.04338  1.0000
  C   C38       1.0  0.35630  0.47510  0.54338  1.0000
  C   C39       1.0  0.88120  0.35630  0.04338  1.0000
  C   C40       1.0  0.52490  0.88120  0.54338  1.0000
  C   C41       1.0  0.64370  0.52490  0.04338  1.0000
  C   C42       1.0  0.11880  0.64370  0.54338  1.0000
  C   C43       1.0  0.52490  0.88120  0.95662  1.0000
  C   C44       1.0  0.64370  0.52490  0.45662  1.0000
  C   C45       1.0  0.11880  0.64370  0.95662  1.0000
  C   C46       1.0  0.47510  0.11880  0.45662  1.0000
  C   C47       1.0  0.35630  0.47510  0.95662  1.0000
  C   C48       1.0  0.88120  0.35630  0.45662  1.0000
  H   H37       1.0  0.44020  0.09070  0.01860  1.0000
  H   H38       1.0  0.34950  0.44020  0.51860  1.0000
  H   H39       1.0  0.90930  0.34950  0.01860  1.0000
  H   H40       1.0  0.55980  0.90930  0.51860  1.0000
  H   H41       1.0  0.65050  0.55980  0.01860  1.0000
  H   H42       1.0  0.09070  0.65050  0.51860  1.0000
  H   H43       1.0  0.55980  0.90930  0.98140  1.0000
  H   H44       1.0  0.65050  0.55980  0.48140  1.0000
  H   H45       1.0  0.09070  0.65050  0.98140  1.0000
  H   H46       1.0  0.44020  0.09070  0.48140  1.0000
  H   H47       1.0  0.34950  0.44020  0.98140  1.0000
  H   H48       1.0  0.90930  0.34950  0.48140  1.0000
  C   C49       1.0  0.56180  0.15870  0.03816  1.0000
  C   C50       1.0  0.40310  0.56180  0.53816  1.0000
  C   C51       1.0  0.84130  0.40310  0.03816  1.0000
  C   C52       1.0  0.43820  0.84130  0.53816  1.0000
  C   C53       1.0  0.59690  0.43820  0.03816  1.0000
  C   C54       1.0  0.15870  0.59690  0.53816  1.0000
  C   C55       1.0  0.43820  0.84130  0.96184  1.0000
  C   C56       1.0  0.59690  0.43820  0.46184  1.0000
  C   C57       1.0  0.15870  0.59690  0.96184  1.0000
  C   C58       1.0  0.56180  0.15870  0.46184  1.0000
  C   C59       1.0  0.40310  0.56180  0.96184  1.0000
  C   C60       1.0  0.84130  0.40310  0.46184  1.0000
  C   C61       1.0  0.61390  0.20070  0.07542  1.0000
  C   C62       1.0  0.41320  0.61390  0.57542  1.0000
  C   C63       1.0  0.79930  0.41320  0.07542  1.0000
  C   C64       1.0  0.38610  0.79930  0.57542  1.0000
  C   C65       1.0  0.58680  0.38610  0.07542  1.0000
  C   C66       1.0  0.20070  0.58680  0.57542  1.0000
  C   C67       1.0  0.38610  0.79930  0.92458  1.0000
  C   C68       1.0  0.58680  0.38610  0.42458  1.0000
  C   C69       1.0  0.20070  0.58680  0.92458  1.0000
  C   C70       1.0  0.61390  0.20070  0.42458  1.0000
  C   C71       1.0  0.41320  0.61390  0.92458  1.0000
  C   C72       1.0  0.79930  0.41320  0.42458  1.0000
  H   H49       1.0  0.67130  0.22560  0.07200  1.0000
  H   H50       1.0  0.44570  0.67130  0.57200  1.0000
  H   H51       1.0  0.77440  0.44570  0.07200  1.0000
  H   H52       1.0  0.32870  0.77440  0.57200  1.0000
  H   H53       1.0  0.55430  0.32870  0.07200  1.0000
  H   H54       1.0  0.22560  0.55430  0.57200  1.0000
  H   H55       1.0  0.32870  0.77440  0.92800  1.0000
  H   H56       1.0  0.55430  0.32870  0.42800  1.0000
  H   H57       1.0  0.22560  0.55430  0.92800  1.0000
  H   H58       1.0  0.67130  0.22560  0.42800  1.0000
  H   H59       1.0  0.44570  0.67130  0.92800  1.0000
  H   H60       1.0  0.77440  0.44570  0.42800  1.0000
  C   C73       1.0  0.58070  0.20550  0.11760  1.0000
  C   C74       1.0  0.37520  0.58070  0.61760  1.0000
  C   C75       1.0  0.79450  0.37520  0.11760  1.0000
  C   C76       1.0  0.41930  0.79450  0.61760  1.0000
  C   C77       1.0  0.62480  0.41930  0.11760  1.0000
  C   C78       1.0  0.20550  0.62480  0.61760  1.0000
  C   C79       1.0  0.41930  0.79450  0.88240  1.0000
  C   C80       1.0  0.62480  0.41930  0.38240  1.0000
  C   C81       1.0  0.20550  0.62480  0.88240  1.0000
  C   C82       1.0  0.58070  0.20550  0.38240  1.0000
  C   C83       1.0  0.37520  0.58070  0.88240  1.0000
  C   C84       1.0  0.79450  0.37520  0.38240  1.0000
  H   H61       1.0  0.61580  0.23480  0.14210  1.0000
  H   H62       1.0  0.38100  0.61580  0.64210  1.0000
  H   H63       1.0  0.76520  0.38100  0.14210  1.0000
  H   H64       1.0  0.38420  0.76520  0.64210  1.0000
  H   H65       1.0  0.61900  0.38420  0.14210  1.0000
  H   H66       1.0  0.23480  0.61900  0.64210  1.0000
  H   H67       1.0  0.38420  0.76520  0.85790  1.0000
  H   H68       1.0  0.61900  0.38420  0.35790  1.0000
  H   H69       1.0  0.23480  0.61900  0.85790  1.0000
  H   H70       1.0  0.61580  0.23480  0.35790  1.0000
  H   H71       1.0  0.38100  0.61580  0.85790  1.0000
  H   H72       1.0  0.76520  0.38100  0.35790  1.0000
  C   C85       1.0  0.32920  0.94920  0.81980  1.0000
  C   C86       1.0  0.38000  0.32920  0.31980  1.0000
  C   C87       1.0  0.05080  0.38000  0.81980  1.0000
  C   C88       1.0  0.67080  0.05080  0.31980  1.0000
  C   C89       1.0  0.62000  0.67080  0.81980  1.0000
  C   C90       1.0  0.94920  0.62000  0.31980  1.0000
  C   C91       1.0  0.67080  0.05080  0.18020  1.0000
  C   C92       1.0  0.62000  0.67080  0.68020  1.0000
  C   C93       1.0  0.94920  0.62000  0.18020  1.0000
  C   C94       1.0  0.32920  0.94920  0.68020  1.0000
  C   C95       1.0  0.38000  0.32920  0.18020  1.0000
  C   C96       1.0  0.05080  0.38000  0.68020  1.0000
  C   C97       1.0  0.40390  0.01540  0.84700  1.0000
  C   C98       1.0  0.38850  0.40390  0.34700  1.0000
  C   C99       1.0  0.98460  0.38850  0.84700  1.0000
  C   C100      1.0  0.59610  0.98460  0.34700  1.0000
  C   C101      1.0  0.61150  0.59610  0.84700  1.0000
  C   C102      1.0  0.01540  0.61150  0.34700  1.0000
  C   C103      1.0  0.59610  0.98460  0.15300  1.0000
  C   C104      1.0  0.61150  0.59610  0.65300  1.0000
  C   C105      1.0  0.01540  0.61150  0.15300  1.0000
  C   C106      1.0  0.40390  0.01540  0.65300  1.0000
  C   C107      1.0  0.38850  0.40390  0.15300  1.0000
  C   C108      1.0  0.98460  0.38850  0.65300  1.0000
  C   C109      1.0  0.41130  0.08950  0.85990  1.0000
  C   C110      1.0  0.32180  0.41130  0.35990  1.0000
  C   C111      1.0  0.91050  0.32180  0.85990  1.0000
  C   C112      1.0  0.58870  0.91050  0.35990  1.0000
  C   C113      1.0  0.67820  0.58870  0.85990  1.0000
  C   C114      1.0  0.08950  0.67820  0.35990  1.0000
  C   C115      1.0  0.58870  0.91050  0.14010  1.0000
  C   C116      1.0  0.67820  0.58870  0.64010  1.0000
  C   C117      1.0  0.08950  0.67820  0.14010  1.0000
  C   C118      1.0  0.41130  0.08950  0.64010  1.0000
  C   C119      1.0  0.32180  0.41130  0.14010  1.0000
  C   C120      1.0  0.91050  0.32180  0.64010  1.0000
  H   H73       1.0  0.36840  0.10010  0.85310  1.0000
  H   H74       1.0  0.26830  0.36840  0.35310  1.0000
  H   H75       1.0  0.89990  0.26830  0.85310  1.0000
  H   H76       1.0  0.63160  0.89990  0.35310  1.0000
  H   H77       1.0  0.73170  0.63160  0.85310  1.0000
  H   H78       1.0  0.10010  0.73170  0.35310  1.0000
  H   H79       1.0  0.63160  0.89990  0.14690  1.0000
  H   H80       1.0  0.73170  0.63160  0.64690  1.0000
  H   H81       1.0  0.10010  0.73170  0.14690  1.0000
  H   H82       1.0  0.36840  0.10010  0.64690  1.0000
  H   H83       1.0  0.26830  0.36840  0.14690  1.0000
  H   H84       1.0  0.89990  0.26830  0.64690  1.0000
  C   C121      1.0  0.48210  0.15020  0.88320  1.0000
  C   C122      1.0  0.33190  0.48210  0.38320  1.0000
  C   C123      1.0  0.84980  0.33190  0.88320  1.0000
  C   C124      1.0  0.51790  0.84980  0.38320  1.0000
  C   C125      1.0  0.66810  0.51790  0.88320  1.0000
  C   C126      1.0  0.15020  0.66810  0.38320  1.0000
  C   C127      1.0  0.51790  0.84980  0.11680  1.0000
  C   C128      1.0  0.66810  0.51790  0.61680  1.0000
  C   C129      1.0  0.15020  0.66810  0.11680  1.0000
  C   C130      1.0  0.48210  0.15020  0.61680  1.0000
  C   C131      1.0  0.33190  0.48210  0.11680  1.0000
  C   C132      1.0  0.84980  0.33190  0.61680  1.0000
  H   H85       1.0  0.48750  0.20100  0.89160  1.0000
  H   H86       1.0  0.28650  0.48750  0.39160  1.0000
  H   H87       1.0  0.79900  0.28650  0.89160  1.0000
  H   H88       1.0  0.51250  0.79900  0.39160  1.0000
  H   H89       1.0  0.71350  0.51250  0.89160  1.0000
  H   H90       1.0  0.20100  0.71350  0.39160  1.0000
  H   H91       1.0  0.51250  0.79900  0.10840  1.0000
  H   H92       1.0  0.71350  0.51250  0.60840  1.0000
  H   H93       1.0  0.20100  0.71350  0.10840  1.0000
  H   H94       1.0  0.48750  0.20100  0.60840  1.0000
  H   H95       1.0  0.28650  0.48750  0.10840  1.0000
  H   H96       1.0  0.79900  0.28650  0.60840  1.0000
  C   C133      1.0  0.54220  0.13160  0.89281  1.0000
  C   C134      1.0  0.41060  0.54220  0.39281  1.0000
  C   C135      1.0  0.86840  0.41060  0.89281  1.0000
  C   C136      1.0  0.45780  0.86840  0.39281  1.0000
  C   C137      1.0  0.58940  0.45780  0.89281  1.0000
  C   C138      1.0  0.13160  0.58940  0.39281  1.0000
  C   C139      1.0  0.45780  0.86840  0.10719  1.0000
  C   C140      1.0  0.58940  0.45780  0.60719  1.0000
  C   C141      1.0  0.13160  0.58940  0.10719  1.0000
  C   C142      1.0  0.54220  0.13160  0.60719  1.0000
  C   C143      1.0  0.41060  0.54220  0.10719  1.0000
  C   C144      1.0  0.86840  0.41060  0.60719  1.0000
  C   C145      1.0  0.53670  0.05900  0.88190  1.0000
  C   C146      1.0  0.47770  0.53670  0.38190  1.0000
  C   C147      1.0  0.94100  0.47770  0.88190  1.0000
  C   C148      1.0  0.46330  0.94100  0.38190  1.0000
  C   C149      1.0  0.52230  0.46330  0.88190  1.0000
  C   C150      1.0  0.05900  0.52230  0.38190  1.0000
  C   C151      1.0  0.46330  0.94100  0.11810  1.0000
  C   C152      1.0  0.52230  0.46330  0.61810  1.0000
  C   C153      1.0  0.05900  0.52230  0.11810  1.0000
  C   C154      1.0  0.53670  0.05900  0.61810  1.0000
  C   C155      1.0  0.47770  0.53670  0.11810  1.0000
  C   C156      1.0  0.94100  0.47770  0.61810  1.0000
  H   H97       1.0  0.57860  0.04790  0.88990  1.0000
  H   H98       1.0  0.53070  0.57860  0.38990  1.0000
  H   H99       1.0  0.95210  0.53070  0.88990  1.0000
  H   H100      1.0  0.42140  0.95210  0.38990  1.0000
  H   H101      1.0  0.46930  0.42140  0.88990  1.0000
  H   H102      1.0  0.04790  0.46930  0.38990  1.0000
  H   H103      1.0  0.42140  0.95210  0.11010  1.0000
  H   H104      1.0  0.46930  0.42140  0.61010  1.0000
  H   H105      1.0  0.04790  0.46930  0.11010  1.0000
  H   H106      1.0  0.57860  0.04790  0.61010  1.0000
  H   H107      1.0  0.53070  0.57860  0.11010  1.0000
  H   H108      1.0  0.95210  0.53070  0.61010  1.0000
  C   C157      1.0  0.46620  0.00070  0.85810  1.0000
  C   C158      1.0  0.46550  0.46620  0.35810  1.0000
  C   C159      1.0  0.99930  0.46550  0.85810  1.0000
  C   C160      1.0  0.53380  0.99930  0.35810  1.0000
  C   C161      1.0  0.53450  0.53380  0.85810  1.0000
  C   C162      1.0  0.00070  0.53450  0.35810  1.0000
  C   C163      1.0  0.53380  0.99930  0.14190  1.0000
  C   C164      1.0  0.53450  0.53380  0.64190  1.0000
  C   C165      1.0  0.00070  0.53450  0.14190  1.0000
  C   C166      1.0  0.46620  0.00070  0.64190  1.0000
  C   C167      1.0  0.46550  0.46620  0.14190  1.0000
  C   C168      1.0  0.99930  0.46550  0.64190  1.0000
  H   H109      1.0  0.46180  0.95030  0.84960  1.0000
  H   H110      1.0  0.51150  0.46180  0.34960  1.0000
  H   H111      1.0  0.04970  0.51150  0.84960  1.0000
  H   H112      1.0  0.53820  0.04970  0.34960  1.0000
  H   H113      1.0  0.48850  0.53820  0.84960  1.0000
  H   H114      1.0  0.95030  0.48850  0.34960  1.0000
  H   H115      1.0  0.53820  0.04970  0.15040  1.0000
  H   H116      1.0  0.48850  0.53820  0.65040  1.0000
  H   H117      1.0  0.95030  0.48850  0.15040  1.0000
  H   H118      1.0  0.46180  0.95030  0.65040  1.0000
  H   H119      1.0  0.51150  0.46180  0.15040  1.0000
  H   H120      1.0  0.04970  0.51150  0.65040  1.0000
