data_image0
_chemical_formula_structural       Mo36As8Cu4O136N4H8N4H8N4H8N4H12C4H8C4H8C4H8C4H8
_chemical_formula_sum              "Mo36 As8 Cu4 O136 N16 H68 C16"
_cell_length_a       18.847
_cell_length_b       10.0522
_cell_length_c       21.042
_cell_angle_alpha    90
_cell_angle_beta     94.18
_cell_angle_gamma    90

_space_group_name_H-M_alt    "P 1"
_space_group_IT_number       1

loop_
  _space_group_symop_operation_xyz
  'x, y, z'

loop_
  _atom_site_type_symbol
  _atom_site_label
  _atom_site_symmetry_multiplicity
  _atom_site_fract_x
  _atom_site_fract_y
  _atom_site_fract_z
  _atom_site_occupancy
  Mo  Mo1       1.0  0.36969  0.36293  0.33998  1.0000
  Mo  Mo2       1.0  0.63031  0.86293  0.16002  1.0000
  Mo  Mo3       1.0  0.63031  0.63707  0.66002  1.0000
  Mo  Mo4       1.0  0.36969  0.13707  0.83998  1.0000
  Mo  Mo5       1.0  0.40517  0.12669  0.45381  1.0000
  Mo  Mo6       1.0  0.59483  0.62669  0.04619  1.0000
  Mo  Mo7       1.0  0.59483  0.87331  0.54619  1.0000
  Mo  Mo8       1.0  0.40517  0.37331  0.95381  1.0000
  Mo  Mo9       1.0  0.27464  0.34904  0.48462  1.0000
  Mo  Mo10      1.0  0.72536  0.84904  0.01538  1.0000
  Mo  Mo11      1.0  0.72536  0.65096  0.51538  1.0000
  Mo  Mo12      1.0  0.27464  0.15096  0.98462  1.0000
  Mo  Mo13      1.0  0.09033  0.31626  0.37419  1.0000
  Mo  Mo14      1.0  0.90967  0.81626  0.12581  1.0000
  Mo  Mo15      1.0  0.90967  0.68374  0.62581  1.0000
  Mo  Mo16      1.0  0.09033  0.18374  0.87419  1.0000
  Mo  Mo17      1.0  0.17509  0.32581  0.23979  1.0000
  Mo  Mo18      1.0  0.82491  0.82581  0.26021  1.0000
  Mo  Mo19      1.0  0.82491  0.67419  0.76021  1.0000
  Mo  Mo20      1.0  0.17509  0.17419  0.73979  1.0000
  Mo  Mo21      1.0  0.32390  0.08613  0.21506  1.0000
  Mo  Mo22      1.0  0.67610  0.58613  0.28494  1.0000
  Mo  Mo23      1.0  0.67610  0.91387  0.78494  1.0000
  Mo  Mo24      1.0  0.32390  0.41387  0.71506  1.0000
  Mo  Mo25      1.0  0.37278  0.85847  0.32523  1.0000
  Mo  Mo26      1.0  0.62722  0.35847  0.17477  1.0000
  Mo  Mo27      1.0  0.62722  0.14153  0.67477  1.0000
  Mo  Mo28      1.0  0.37278  0.64153  0.82523  1.0000
  Mo  Mo29      1.0  0.27607  0.84353  0.47465  1.0000
  Mo  Mo30      1.0  0.72393  0.34353  0.02535  1.0000
  Mo  Mo31      1.0  0.72393  0.15647  0.52535  1.0000
  Mo  Mo32      1.0  0.27607  0.65647  0.97465  1.0000
  Mo  Mo33      1.0  0.13974  0.04896  0.49690  1.0000
  Mo  Mo34      1.0  0.86026  0.54896  0.00310  1.0000
  Mo  Mo35      1.0  0.86026  0.95104  0.50310  1.0000
  Mo  Mo36      1.0  0.13974  0.45104  0.99690  1.0000
  As  As1       1.0  0.24033  0.10206  0.36132  1.0000
  As  As2       1.0  0.75967  0.60206  0.13868  1.0000
  As  As3       1.0  0.75967  0.89794  0.63868  1.0000
  As  As4       1.0  0.24033  0.39794  0.86132  1.0000
  As  As5       1.0  0.23650  0.51602  0.36588  1.0000
  As  As6       1.0  0.76350  0.01602  0.13412  1.0000
  As  As7       1.0  0.76350  0.48398  0.63412  1.0000
  As  As8       1.0  0.23650  0.98398  0.86588  1.0000
  Cu  Cu1       1.0  0.03204  0.29763  0.11117  1.0000
  Cu  Cu2       1.0  0.96796  0.79763  0.38883  1.0000
  Cu  Cu3       1.0  0.96796  0.70237  0.88883  1.0000
  Cu  Cu4       1.0  0.03204  0.20237  0.61117  1.0000
  O   O1        1.0  0.41640  0.49260  0.31153  1.0000
  O   O2        1.0  0.58360  0.99260  0.18847  1.0000
  O   O3        1.0  0.58360  0.50740  0.68847  1.0000
  O   O4        1.0  0.41640  0.00740  0.81153  1.0000
  O   O5        1.0  0.48330  0.13020  0.49941  1.0000
  O   O6        1.0  0.51670  0.63020  0.00059  1.0000
  O   O7        1.0  0.51670  0.86980  0.50059  1.0000
  O   O8        1.0  0.48330  0.36980  0.99941  1.0000
  O   O9        1.0  0.26680  0.47490  0.53729  1.0000
  O   O10       1.0  0.73320  0.97490  0.96271  1.0000
  O   O11       1.0  0.73320  0.52510  0.46271  1.0000
  O   O12       1.0  0.26680  0.02510  0.03729  1.0000
  O   O13       1.0  0.02050  0.24710  0.33058  1.0000
  O   O14       1.0  0.97950  0.74710  0.16942  1.0000
  O   O15       1.0  0.97950  0.75290  0.66942  1.0000
  O   O16       1.0  0.02050  0.25290  0.83058  1.0000
  O   O17       1.0  0.18500  0.45750  0.18945  1.0000
  O   O18       1.0  0.81500  0.95750  0.31055  1.0000
  O   O19       1.0  0.81500  0.54250  0.81055  1.0000
  O   O20       1.0  0.18500  0.04250  0.68945  1.0000
  O   O21       1.0  0.37120  0.15730  0.15722  1.0000
  O   O22       1.0  0.62880  0.65730  0.34278  1.0000
  O   O23       1.0  0.62880  0.84270  0.84278  1.0000
  O   O24       1.0  0.37120  0.34270  0.65722  1.0000
  O   O25       1.0  0.45210  0.77710  0.33785  1.0000
  O   O26       1.0  0.54790  0.27710  0.16215  1.0000
  O   O27       1.0  0.54790  0.22290  0.66215  1.0000
  O   O28       1.0  0.45210  0.72290  0.83785  1.0000
  O   O29       1.0  0.32540  0.76200  0.53365  1.0000
  O   O30       1.0  0.67460  0.26200  0.96635  1.0000
  O   O31       1.0  0.67460  0.23800  0.46635  1.0000
  O   O32       1.0  0.32540  0.73800  0.03365  1.0000
  O   O33       1.0  0.08220  0.92500  0.47343  1.0000
  O   O34       1.0  0.91780  0.42500  0.02657  1.0000
  O   O35       1.0  0.91780  0.07500  0.52657  1.0000
  O   O36       1.0  0.08220  0.57500  0.97343  1.0000
  O   O37       1.0  0.05140  0.44100  0.41572  1.0000
  O   O38       1.0  0.94860  0.94100  0.08428  1.0000
  O   O39       1.0  0.94860  0.55900  0.58428  1.0000
  O   O40       1.0  0.05140  0.05900  0.91572  1.0000
  O   O41       1.0  0.10227  0.24330  0.20497  1.0000
  O   O42       1.0  0.89773  0.74330  0.29503  1.0000
  O   O43       1.0  0.89773  0.75670  0.79503  1.0000
  O   O44       1.0  0.10227  0.25670  0.70497  1.0000
  O   O45       1.0  0.27950  0.95830  0.17622  1.0000
  O   O46       1.0  0.72050  0.45830  0.32378  1.0000
  O   O47       1.0  0.72050  0.04170  0.82378  1.0000
  O   O48       1.0  0.27950  0.54170  0.67622  1.0000
  O   O49       1.0  0.32350  0.74960  0.27762  1.0000
  O   O50       1.0  0.67650  0.24960  0.22238  1.0000
  O   O51       1.0  0.67650  0.25040  0.72238  1.0000
  O   O52       1.0  0.32350  0.75040  0.77762  1.0000
  O   O53       1.0  0.21000  0.73140  0.45342  1.0000
  O   O54       1.0  0.79000  0.23140  0.04658  1.0000
  O   O55       1.0  0.79000  0.26860  0.54658  1.0000
  O   O56       1.0  0.21000  0.76860  0.95342  1.0000
  O   O57       1.0  0.10500  0.10940  0.56532  1.0000
  O   O58       1.0  0.89500  0.60940  0.93468  1.0000
  O   O59       1.0  0.89500  0.89060  0.43468  1.0000
  O   O60       1.0  0.10500  0.39060  0.06532  1.0000
  O   O61       1.0  0.22129  0.21980  0.51102  1.0000
  O   O62       1.0  0.77871  0.71980  0.98898  1.0000
  O   O63       1.0  0.77871  0.78020  0.48898  1.0000
  O   O64       1.0  0.22129  0.28020  0.01102  1.0000
  O   O65       1.0  0.10390  0.18310  0.43758  1.0000
  O   O66       1.0  0.89610  0.68310  0.06242  1.0000
  O   O67       1.0  0.89610  0.81690  0.56242  1.0000
  O   O68       1.0  0.10390  0.31690  0.93758  1.0000
  O   O69       1.0  0.32900  0.82880  0.40279  1.0000
  O   O70       1.0  0.67100  0.32880  0.09721  1.0000
  O   O71       1.0  0.67100  0.17120  0.59721  1.0000
  O   O72       1.0  0.32900  0.67120  0.90279  1.0000
  O   O73       1.0  0.31986  0.47060  0.41153  1.0000
  O   O74       1.0  0.68014  0.97060  0.08847  1.0000
  O   O75       1.0  0.68014  0.52940  0.58847  1.0000
  O   O76       1.0  0.31986  0.02940  0.91153  1.0000
  O   O77       1.0  0.37149  0.24000  0.28130  1.0000
  O   O78       1.0  0.62851  0.74000  0.21870  1.0000
  O   O79       1.0  0.62851  0.76000  0.71870  1.0000
  O   O80       1.0  0.37149  0.26000  0.78130  1.0000
  O   O81       1.0  0.36393  0.28800  0.50573  1.0000
  O   O82       1.0  0.63607  0.78800  0.99427  1.0000
  O   O83       1.0  0.63607  0.71200  0.49427  1.0000
  O   O84       1.0  0.36393  0.21200  0.00573  1.0000
  O   O85       1.0  0.41809  0.02740  0.38653  1.0000
  O   O86       1.0  0.58191  0.52740  0.11347  1.0000
  O   O87       1.0  0.58191  0.97260  0.61347  1.0000
  O   O88       1.0  0.41809  0.47260  0.88653  1.0000
  O   O89       1.0  0.24716  0.21150  0.21609  1.0000
  O   O90       1.0  0.75284  0.71150  0.28391  1.0000
  O   O91       1.0  0.75284  0.78850  0.78391  1.0000
  O   O92       1.0  0.24716  0.28850  0.71609  1.0000
  O   O93       1.0  0.34618  0.01940  0.49369  1.0000
  O   O94       1.0  0.65382  0.51940  0.00631  1.0000
  O   O95       1.0  0.65382  0.98060  0.50631  1.0000
  O   O96       1.0  0.34618  0.48060  0.99369  1.0000
  O   O97       1.0  0.12616  0.42040  0.30476  1.0000
  O   O98       1.0  0.87384  0.92040  0.19524  1.0000
  O   O99       1.0  0.87384  0.57960  0.69524  1.0000
  O   O100      1.0  0.12616  0.07960  0.80476  1.0000
  O   O101      1.0  0.21551  0.94460  0.53275  1.0000
  O   O102      1.0  0.78449  0.44460  0.96725  1.0000
  O   O103      1.0  0.78449  0.05540  0.46725  1.0000
  O   O104      1.0  0.21551  0.55540  0.03275  1.0000
  O   O105      1.0  0.39760  0.97930  0.25844  1.0000
  O   O106      1.0  0.60240  0.47930  0.24156  1.0000
  O   O107      1.0  0.60240  0.02070  0.74156  1.0000
  O   O108      1.0  0.39760  0.52070  0.75844  1.0000
  O   O109      1.0  0.19576  0.39820  0.41675  1.0000
  O   O110      1.0  0.80424  0.89820  0.08325  1.0000
  O   O111      1.0  0.80424  0.60180  0.58325  1.0000
  O   O112      1.0  0.19576  0.10180  0.91675  1.0000
  O   O113      1.0  0.26649  0.40730  0.30553  1.0000
  O   O114      1.0  0.73351  0.90730  0.19447  1.0000
  O   O115      1.0  0.73351  0.59270  0.69447  1.0000
  O   O116      1.0  0.26649  0.09270  0.80553  1.0000
  O   O117      1.0  0.43025  0.29600  0.40148  1.0000
  O   O118      1.0  0.56975  0.79600  0.09852  1.0000
  O   O119      1.0  0.56975  0.70400  0.59852  1.0000
  O   O120      1.0  0.43025  0.20400  0.90148  1.0000
  O   O121      1.0  0.30118  0.20730  0.39797  1.0000
  O   O122      1.0  0.69882  0.70730  0.10203  1.0000
  O   O123      1.0  0.69882  0.79270  0.60203  1.0000
  O   O124      1.0  0.30118  0.29270  0.89797  1.0000
  O   O125      1.0  0.17161  0.18700  0.32567  1.0000
  O   O126      1.0  0.82839  0.68700  0.17433  1.0000
  O   O127      1.0  0.82839  0.81300  0.67433  1.0000
  O   O128      1.0  0.17161  0.31300  0.82567  1.0000
  O   O129      1.0  0.28026  0.01190  0.30728  1.0000
  O   O130      1.0  0.71974  0.51190  0.19272  1.0000
  O   O131      1.0  0.71974  0.98810  0.69272  1.0000
  O   O132      1.0  0.28026  0.48810  0.80728  1.0000
  O   O133      1.0  0.21026  0.00090  0.41732  1.0000
  O   O134      1.0  0.78974  0.50090  0.08268  1.0000
  O   O135      1.0  0.78974  0.99910  0.58268  1.0000
  O   O136      1.0  0.21026  0.49910  0.91732  1.0000
  N   N1        1.0  0.00690  0.46520  0.15280  1.0000
  N   N2        1.0  0.99310  0.96520  0.34720  1.0000
  N   N3        1.0  0.99310  0.53480  0.84720  1.0000
  N   N4        1.0  0.00690  0.03480  0.65280  1.0000
  H   H1        1.0  0.98490  0.52050  0.12410  1.0000
  H   H2        1.0  0.01510  0.02050  0.37590  1.0000
  H   H3        1.0  0.01510  0.47950  0.87590  1.0000
  H   H4        1.0  0.98490  0.97950  0.62410  1.0000
  H   H5        1.0  0.04650  0.50570  0.16970  1.0000
  H   H6        1.0  0.95350  0.00570  0.33030  1.0000
  H   H7        1.0  0.95350  0.49430  0.83030  1.0000
  H   H8        1.0  0.04650  0.99430  0.66970  1.0000
  N   N5        1.0  0.94700  0.22130  0.15090  1.0000
  N   N6        1.0  0.05300  0.72130  0.34910  1.0000
  N   N7        1.0  0.05300  0.77870  0.84910  1.0000
  N   N8        1.0  0.94700  0.27870  0.65090  1.0000
  H   H9        1.0  0.96130  0.16080  0.18060  1.0000
  H   H10       1.0  0.03870  0.66080  0.31940  1.0000
  H   H11       1.0  0.03870  0.83920  0.81940  1.0000
  H   H12       1.0  0.96130  0.33920  0.68060  1.0000
  H   H13       1.0  0.91830  0.18050  0.12090  1.0000
  H   H14       1.0  0.08170  0.68050  0.37910  1.0000
  H   H15       1.0  0.08170  0.81950  0.87910  1.0000
  H   H16       1.0  0.91830  0.31950  0.62090  1.0000
  N   N9        1.0  0.05480  0.13200  0.06450  1.0000
  N   N10       1.0  0.94520  0.63200  0.43550  1.0000
  N   N11       1.0  0.94520  0.86800  0.93550  1.0000
  N   N12       1.0  0.05480  0.36800  0.56450  1.0000
  H   H17       1.0  0.06910  0.15570  0.02620  1.0000
  H   H18       1.0  0.93090  0.65570  0.47380  1.0000
  H   H19       1.0  0.93090  0.84430  0.97380  1.0000
  H   H20       1.0  0.06910  0.34430  0.52620  1.0000
  H   H21       1.0  0.01440  0.08500  0.05750  1.0000
  H   H22       1.0  0.98560  0.58500  0.44250  1.0000
  H   H23       1.0  0.98560  0.91500  0.94250  1.0000
  H   H24       1.0  0.01440  0.41500  0.55750  1.0000
  N   N13       1.0  0.17500  0.83140  0.08470  1.0000
  N   N14       1.0  0.82500  0.33140  0.41530  1.0000
  N   N15       1.0  0.82500  0.16860  0.91530  1.0000
  N   N16       1.0  0.17500  0.66860  0.58470  1.0000
  H   H25       1.0  0.17710  0.75630  0.06250  1.0000
  H   H26       1.0  0.82290  0.25630  0.43750  1.0000
  H   H27       1.0  0.82290  0.24370  0.93750  1.0000
  H   H28       1.0  0.17710  0.74370  0.56250  1.0000
  H   H29       1.0  0.21530  0.87660  0.08240  1.0000
  H   H30       1.0  0.78470  0.37660  0.41760  1.0000
  H   H31       1.0  0.78470  0.12340  0.91760  1.0000
  H   H32       1.0  0.21530  0.62340  0.58240  1.0000
  H   H33       1.0  0.16900  0.81220  0.12530  1.0000
  H   H34       1.0  0.83100  0.31220  0.37470  1.0000
  H   H35       1.0  0.83100  0.18780  0.87470  1.0000
  H   H36       1.0  0.16900  0.68780  0.62530  1.0000
  C   C1        1.0  0.95940  0.43410  0.20330  1.0000
  C   C2        1.0  0.04060  0.93410  0.29670  1.0000
  C   C3        1.0  0.04060  0.56590  0.79670  1.0000
  C   C4        1.0  0.95940  0.06590  0.70330  1.0000
  H   H37       1.0  0.98710  0.40330  0.24110  1.0000
  H   H38       1.0  0.01290  0.90330  0.25890  1.0000
  H   H39       1.0  0.01290  0.59670  0.75890  1.0000
  H   H40       1.0  0.98710  0.09670  0.74110  1.0000
  H   H41       1.0  0.93370  0.51340  0.21440  1.0000
  H   H42       1.0  0.06630  0.01340  0.28560  1.0000
  H   H43       1.0  0.06630  0.48660  0.78560  1.0000
  H   H44       1.0  0.93370  0.98660  0.71440  1.0000
  C   C5        1.0  0.90840  0.32930  0.18020  1.0000
  C   C6        1.0  0.09160  0.82930  0.31980  1.0000
  C   C7        1.0  0.09160  0.67070  0.81980  1.0000
  C   C8        1.0  0.90840  0.17070  0.68020  1.0000
  H   H45       1.0  0.87340  0.36670  0.14920  1.0000
  H   H46       1.0  0.12660  0.86670  0.35080  1.0000
  H   H47       1.0  0.12660  0.63330  0.85080  1.0000
  H   H48       1.0  0.87340  0.13330  0.64920  1.0000
  H   H49       1.0  0.88370  0.29480  0.21550  1.0000
  H   H50       1.0  0.11630  0.79480  0.28450  1.0000
  H   H51       1.0  0.11630  0.70520  0.78450  1.0000
  H   H52       1.0  0.88370  0.20520  0.71550  1.0000
  C   C9        1.0  0.10960  0.04230  0.09520  1.0000
  C   C10       1.0  0.89040  0.54230  0.40480  1.0000
  C   C11       1.0  0.89040  0.95770  0.90480  1.0000
  C   C12       1.0  0.10960  0.45770  0.59520  1.0000
  H   H53       1.0  0.15540  0.08680  0.09760  1.0000
  H   H54       1.0  0.84460  0.58680  0.40240  1.0000
  H   H55       1.0  0.84460  0.91320  0.90240  1.0000
  H   H56       1.0  0.15540  0.41320  0.59760  1.0000
  H   H57       1.0  0.09790  0.02280  0.13840  1.0000
  H   H58       1.0  0.90210  0.52280  0.36160  1.0000
  H   H59       1.0  0.90210  0.97720  0.86160  1.0000
  H   H60       1.0  0.09790  0.47720  0.63840  1.0000
  C   C13       1.0  0.11460  0.91260  0.05820  1.0000
  C   C14       1.0  0.88540  0.41260  0.44180  1.0000
  C   C15       1.0  0.88540  0.08740  0.94180  1.0000
  C   C16       1.0  0.11460  0.58740  0.55820  1.0000
  H   H61       1.0  0.12080  0.93220  0.01380  1.0000
  H   H62       1.0  0.87920  0.43220  0.48620  1.0000
  H   H63       1.0  0.87920  0.06780  0.98620  1.0000
  H   H64       1.0  0.12080  0.56780  0.51380  1.0000
  H   H65       1.0  0.07080  0.86280  0.06030  1.0000
  H   H66       1.0  0.92920  0.36280  0.43970  1.0000
  H   H67       1.0  0.92920  0.13720  0.93970  1.0000
  H   H68       1.0  0.07080  0.63720  0.56030  1.0000
