data_image0
_chemical_formula_structural       Cd4O32H8O16C16H8C16H8C16H8C24
_chemical_formula_sum              "Cd4 O48 H32 C72"
_cell_length_a       10.4242
_cell_length_b       10.4242
_cell_length_c       32.829
_cell_angle_alpha    90
_cell_angle_beta     90
_cell_angle_gamma    90

_space_group_name_H-M_alt    "P 1"
_space_group_IT_number       1

loop_
  _space_group_symop_operation_xyz
  'x, y, z'

loop_
  _atom_site_type_symbol
  _atom_site_label
  _atom_site_symmetry_multiplicity
  _atom_site_fract_x
  _atom_site_fract_y
  _atom_site_fract_z
  _atom_site_occupancy
  Cd  Cd1       1.0  0.92628  0.92628  0.00000  1.0000
  Cd  Cd2       1.0  0.07372  0.07372  0.50000  1.0000
  Cd  Cd3       1.0  0.57372  0.42628  0.25000  1.0000
  Cd  Cd4       1.0  0.42628  0.57372  0.75000  1.0000
  O   O1        1.0  0.07382  0.91631  0.05315  1.0000
  O   O2        1.0  0.92618  0.08369  0.55315  1.0000
  O   O3        1.0  0.58369  0.57382  0.30315  1.0000
  O   O4        1.0  0.41631  0.42618  0.80315  1.0000
  O   O5        1.0  0.42618  0.41631  0.19685  1.0000
  O   O6        1.0  0.57382  0.58369  0.69685  1.0000
  O   O7        1.0  0.91631  0.07382  0.94685  1.0000
  O   O8        1.0  0.08369  0.92618  0.44685  1.0000
  O   O9        1.0  0.16360  0.94684  0.99287  1.0000
  O   O10       1.0  0.83640  0.05316  0.49287  1.0000
  O   O11       1.0  0.55316  0.66360  0.24287  1.0000
  O   O12       1.0  0.44684  0.33640  0.74287  1.0000
  O   O13       1.0  0.33640  0.44684  0.25713  1.0000
  O   O14       1.0  0.66360  0.55316  0.75713  1.0000
  O   O15       1.0  0.94684  0.16360  0.00713  1.0000
  O   O16       1.0  0.05316  0.83640  0.50713  1.0000
  O   O17       1.0  0.33387  0.00390  0.17759  1.0000
  O   O18       1.0  0.66613  0.99610  0.67759  1.0000
  O   O19       1.0  0.49610  0.83387  0.42759  1.0000
  O   O20       1.0  0.50390  0.16613  0.92759  1.0000
  O   O21       1.0  0.16613  0.50390  0.07241  1.0000
  O   O22       1.0  0.83387  0.49610  0.57241  1.0000
  O   O23       1.0  0.00390  0.33387  0.82241  1.0000
  O   O24       1.0  0.99610  0.66613  0.32241  1.0000
  O   O25       1.0  0.54802  0.99868  0.17207  1.0000
  O   O26       1.0  0.45198  0.00132  0.67207  1.0000
  O   O27       1.0  0.50132  0.04802  0.42207  1.0000
  O   O28       1.0  0.49868  0.95198  0.92207  1.0000
  O   O29       1.0  0.95198  0.49868  0.07793  1.0000
  O   O30       1.0  0.04802  0.50132  0.57793  1.0000
  O   O31       1.0  0.99868  0.54802  0.82793  1.0000
  O   O32       1.0  0.00132  0.45198  0.32793  1.0000
  H   H1        1.0  0.54820  0.04200  0.19360  1.0000
  H   H2        1.0  0.45180  0.95800  0.69360  1.0000
  H   H3        1.0  0.45800  0.04820  0.44360  1.0000
  H   H4        1.0  0.54200  0.95180  0.94360  1.0000
  H   H5        1.0  0.95180  0.54200  0.05640  1.0000
  H   H6        1.0  0.04820  0.45800  0.55640  1.0000
  H   H7        1.0  0.04200  0.54820  0.80640  1.0000
  H   H8        1.0  0.95800  0.45180  0.30640  1.0000
  O   O33       1.0  0.64632  0.92860  0.98490  1.0000
  O   O34       1.0  0.35368  0.07140  0.48490  1.0000
  O   O35       1.0  0.57140  0.14632  0.23490  1.0000
  O   O36       1.0  0.42860  0.85368  0.73490  1.0000
  O   O37       1.0  0.85368  0.42860  0.26510  1.0000
  O   O38       1.0  0.14632  0.57140  0.76510  1.0000
  O   O39       1.0  0.92860  0.64632  0.01510  1.0000
  O   O40       1.0  0.07140  0.35368  0.51510  1.0000
  O   O41       1.0  0.75849  0.94503  0.04149  1.0000
  O   O42       1.0  0.24151  0.05497  0.54149  1.0000
  O   O43       1.0  0.55497  0.25849  0.29149  1.0000
  O   O44       1.0  0.44503  0.74151  0.79149  1.0000
  O   O45       1.0  0.74151  0.44503  0.20851  1.0000
  O   O46       1.0  0.25849  0.55497  0.70851  1.0000
  O   O47       1.0  0.94503  0.75849  0.95851  1.0000
  O   O48       1.0  0.05497  0.24151  0.45851  1.0000
  C   C1        1.0  0.30030  0.94380  0.05131  1.0000
  C   C2        1.0  0.69970  0.05620  0.55131  1.0000
  C   C3        1.0  0.55620  0.80030  0.30131  1.0000
  C   C4        1.0  0.44380  0.19970  0.80131  1.0000
  C   C5        1.0  0.19970  0.44380  0.19869  1.0000
  C   C6        1.0  0.80030  0.55620  0.69869  1.0000
  C   C7        1.0  0.94380  0.30030  0.94869  1.0000
  C   C8        1.0  0.05620  0.69970  0.44869  1.0000
  C   C9        1.0  0.30810  0.95610  0.09339  1.0000
  C   C10       1.0  0.69190  0.04390  0.59339  1.0000
  C   C11       1.0  0.54390  0.80810  0.34339  1.0000
  C   C12       1.0  0.45610  0.19190  0.84339  1.0000
  C   C13       1.0  0.19190  0.45610  0.15661  1.0000
  C   C14       1.0  0.80810  0.54390  0.65661  1.0000
  C   C15       1.0  0.95610  0.30810  0.90661  1.0000
  C   C16       1.0  0.04390  0.69190  0.40661  1.0000
  H   H9        1.0  0.23190  0.95590  0.10930  1.0000
  H   H10       1.0  0.76810  0.04410  0.60930  1.0000
  H   H11       1.0  0.54410  0.73190  0.35930  1.0000
  H   H12       1.0  0.45590  0.26810  0.85930  1.0000
  H   H13       1.0  0.26810  0.45590  0.14070  1.0000
  H   H14       1.0  0.73190  0.54410  0.64070  1.0000
  H   H15       1.0  0.95590  0.23190  0.89070  1.0000
  H   H16       1.0  0.04410  0.76810  0.39070  1.0000
  C   C17       1.0  0.42650  0.96880  0.11246  1.0000
  C   C18       1.0  0.57350  0.03120  0.61246  1.0000
  C   C19       1.0  0.53120  0.92650  0.36246  1.0000
  C   C20       1.0  0.46880  0.07350  0.86246  1.0000
  C   C21       1.0  0.07350  0.46880  0.13754  1.0000
  C   C22       1.0  0.92650  0.53120  0.63754  1.0000
  C   C23       1.0  0.96880  0.42650  0.88754  1.0000
  C   C24       1.0  0.03120  0.57350  0.38754  1.0000
  C   C25       1.0  0.53810  0.96550  0.08937  1.0000
  C   C26       1.0  0.46190  0.03450  0.58937  1.0000
  C   C27       1.0  0.53450  0.03810  0.33937  1.0000
  C   C28       1.0  0.46550  0.96190  0.83937  1.0000
  C   C29       1.0  0.96190  0.46550  0.16063  1.0000
  C   C30       1.0  0.03810  0.53450  0.66063  1.0000
  C   C31       1.0  0.96550  0.53810  0.91063  1.0000
  C   C32       1.0  0.03450  0.46190  0.41063  1.0000
  H   H17       1.0  0.61930  0.97320  0.10230  1.0000
  H   H18       1.0  0.38070  0.02680  0.60230  1.0000
  H   H19       1.0  0.52680  0.11930  0.35230  1.0000
  H   H20       1.0  0.47320  0.88070  0.85230  1.0000
  H   H21       1.0  0.88070  0.47320  0.14770  1.0000
  H   H22       1.0  0.11930  0.52680  0.64770  1.0000
  H   H23       1.0  0.97320  0.61930  0.89770  1.0000
  H   H24       1.0  0.02680  0.38070  0.39770  1.0000
  C   C33       1.0  0.53070  0.95080  0.04713  1.0000
  C   C34       1.0  0.46930  0.04920  0.54713  1.0000
  C   C35       1.0  0.54920  0.03070  0.29713  1.0000
  C   C36       1.0  0.45080  0.96930  0.79713  1.0000
  C   C37       1.0  0.96930  0.45080  0.20287  1.0000
  C   C38       1.0  0.03070  0.54920  0.70287  1.0000
  C   C39       1.0  0.95080  0.53070  0.95287  1.0000
  C   C40       1.0  0.04920  0.46930  0.45287  1.0000
  C   C41       1.0  0.41240  0.94300  0.02842  1.0000
  C   C42       1.0  0.58760  0.05700  0.52842  1.0000
  C   C43       1.0  0.55700  0.91240  0.27842  1.0000
  C   C44       1.0  0.44300  0.08760  0.77842  1.0000
  C   C45       1.0  0.08760  0.44300  0.22158  1.0000
  C   C46       1.0  0.91240  0.55700  0.72158  1.0000
  C   C47       1.0  0.94300  0.41240  0.97158  1.0000
  C   C48       1.0  0.05700  0.58760  0.47158  1.0000
  H   H25       1.0  0.40760  0.93690  0.99960  1.0000
  H   H26       1.0  0.59240  0.06310  0.49960  1.0000
  H   H27       1.0  0.56310  0.90760  0.24960  1.0000
  H   H28       1.0  0.43690  0.09240  0.74960  1.0000
  H   H29       1.0  0.09240  0.43690  0.25040  1.0000
  H   H30       1.0  0.90760  0.56310  0.75040  1.0000
  H   H31       1.0  0.93690  0.40760  0.00040  1.0000
  H   H32       1.0  0.06310  0.59240  0.50040  1.0000
  C   C49       1.0  0.17040  0.93380  0.03136  1.0000
  C   C50       1.0  0.82960  0.06620  0.53136  1.0000
  C   C51       1.0  0.56620  0.67040  0.28136  1.0000
  C   C52       1.0  0.43380  0.32960  0.78136  1.0000
  C   C53       1.0  0.32960  0.43380  0.21864  1.0000
  C   C54       1.0  0.67040  0.56620  0.71864  1.0000
  C   C55       1.0  0.93380  0.17040  0.96864  1.0000
  C   C56       1.0  0.06620  0.82960  0.46864  1.0000
  C   C57       1.0  0.42940  0.99150  0.15766  1.0000
  C   C58       1.0  0.57060  0.00850  0.65766  1.0000
  C   C59       1.0  0.50850  0.92940  0.40766  1.0000
  C   C60       1.0  0.49150  0.07060  0.90766  1.0000
  C   C61       1.0  0.07060  0.49150  0.09234  1.0000
  C   C62       1.0  0.92940  0.50850  0.59234  1.0000
  C   C63       1.0  0.99150  0.42940  0.84234  1.0000
  C   C64       1.0  0.00850  0.57060  0.34234  1.0000
  C   C65       1.0  0.65270  0.94210  0.02270  1.0000
  C   C66       1.0  0.34730  0.05790  0.52270  1.0000
  C   C67       1.0  0.55790  0.15270  0.27270  1.0000
  C   C68       1.0  0.44210  0.84730  0.77270  1.0000
  C   C69       1.0  0.84730  0.44210  0.22730  1.0000
  C   C70       1.0  0.15270  0.55790  0.72730  1.0000
  C   C71       1.0  0.94210  0.65270  0.97730  1.0000
  C   C72       1.0  0.05790  0.34730  0.47730  1.0000
