data_image0
_chemical_formula_structural       Mn4C4N8O4H8C8O4H8N8C4N8
_chemical_formula_sum              "Mn4 C16 N24 O8 H16"
_cell_length_a       7.3291
_cell_length_b       13.2877
_cell_length_c       15.6957
_cell_angle_alpha    90
_cell_angle_beta     94.477
_cell_angle_gamma    90

_space_group_name_H-M_alt    "P 1"
_space_group_IT_number       1

loop_
  _space_group_symop_operation_xyz
  'x, y, z'

loop_
  _atom_site_type_symbol
  _atom_site_label
  _atom_site_symmetry_multiplicity
  _atom_site_fract_x
  _atom_site_fract_y
  _atom_site_fract_z
  _atom_site_occupancy
  Mn  Mn1       1.0  0.64335  0.75098  0.60787  1.0000
  Mn  Mn2       1.0  0.64335  0.24902  0.10787  1.0000
  Mn  Mn3       1.0  0.14335  0.25098  0.60787  1.0000
  Mn  Mn4       1.0  0.14335  0.74902  0.10787  1.0000
  C   C1        1.0  0.62250  0.98170  0.67050  1.0000
  C   C2        1.0  0.62250  0.01830  0.17050  1.0000
  C   C3        1.0  0.12250  0.48170  0.67050  1.0000
  C   C4        1.0  0.12250  0.51830  0.17050  1.0000
  N   N1        1.0  0.61580  0.89570  0.67766  1.0000
  N   N2        1.0  0.61580  0.10430  0.17766  1.0000
  N   N3        1.0  0.11580  0.39570  0.67766  1.0000
  N   N4        1.0  0.11580  0.60430  0.17766  1.0000
  N   N5        1.0  0.61070  0.08010  0.66270  1.0000
  N   N6        1.0  0.61070  0.91990  0.16270  1.0000
  N   N7        1.0  0.11070  0.58010  0.66270  1.0000
  N   N8        1.0  0.11070  0.41990  0.16270  1.0000
  O   O1        1.0  0.49610  0.82008  0.49775  1.0000
  O   O2        1.0  0.49610  0.17992  0.99775  1.0000
  O   O3        1.0  0.99610  0.32008  0.49775  1.0000
  O   O4        1.0  0.99610  0.67992  0.99775  1.0000
  H   H1        1.0  0.47740  0.77550  0.45740  1.0000
  H   H2        1.0  0.47740  0.22450  0.95740  1.0000
  H   H3        1.0  0.97740  0.27550  0.45740  1.0000
  H   H4        1.0  0.97740  0.72450  0.95740  1.0000
  H   H5        1.0  0.38680  0.83670  0.51080  1.0000
  H   H6        1.0  0.38680  0.16330  0.01080  1.0000
  H   H7        1.0  0.88680  0.33670  0.51080  1.0000
  H   H8        1.0  0.88680  0.66330  0.01080  1.0000
  C   C5        1.0  0.75880  0.13440  0.65410  1.0000
  C   C6        1.0  0.75880  0.86560  0.15410  1.0000
  C   C7        1.0  0.25880  0.63440  0.65410  1.0000
  C   C8        1.0  0.25880  0.36560  0.15410  1.0000
  C   C9        1.0  0.02360  0.86870  0.55440  1.0000
  C   C10       1.0  0.02360  0.13130  0.05440  1.0000
  C   C11       1.0  0.52360  0.36870  0.55440  1.0000
  C   C12       1.0  0.52360  0.63130  0.05440  1.0000
  O   O5        1.0  0.79290  0.67882  0.71644  1.0000
  O   O6        1.0  0.79290  0.32118  0.21644  1.0000
  O   O7        1.0  0.29290  0.17882  0.71644  1.0000
  O   O8        1.0  0.29290  0.82118  0.21644  1.0000
  H   H9        1.0  0.84640  0.72440  0.74970  1.0000
  H   H10       1.0  0.84640  0.27560  0.24970  1.0000
  H   H11       1.0  0.34640  0.22440  0.74970  1.0000
  H   H12       1.0  0.34640  0.77560  0.24970  1.0000
  H   H13       1.0  0.88300  0.64350  0.69880  1.0000
  H   H14       1.0  0.88300  0.35650  0.19880  1.0000
  H   H15       1.0  0.38300  0.14350  0.69880  1.0000
  H   H16       1.0  0.38300  0.85650  0.19880  1.0000
  N   N9        1.0  0.87830  0.18910  0.64750  1.0000
  N   N10       1.0  0.87830  0.81090  0.14750  1.0000
  N   N11       1.0  0.37830  0.68910  0.64750  1.0000
  N   N12       1.0  0.37830  0.31090  0.14750  1.0000
  N   N13       1.0  0.90520  0.81490  0.56780  1.0000
  N   N14       1.0  0.90520  0.18510  0.06780  1.0000
  N   N15       1.0  0.40520  0.31490  0.56780  1.0000
  N   N16       1.0  0.40520  0.68510  0.06780  1.0000
  C   C13       1.0  0.16360  0.01940  0.53880  1.0000
  C   C14       1.0  0.16360  0.98060  0.03880  1.0000
  C   C15       1.0  0.66360  0.51940  0.53880  1.0000
  C   C16       1.0  0.66360  0.48060  0.03880  1.0000
  N   N17       1.0  0.17310  0.10590  0.53740  1.0000
  N   N18       1.0  0.17310  0.89410  0.03740  1.0000
  N   N19       1.0  0.67310  0.60590  0.53740  1.0000
  N   N20       1.0  0.67310  0.39410  0.03740  1.0000
  N   N21       1.0  0.16960  0.92060  0.53780  1.0000
  N   N22       1.0  0.16960  0.07940  0.03780  1.0000
  N   N23       1.0  0.66960  0.42060  0.53780  1.0000
  N   N24       1.0  0.66960  0.57940  0.03780  1.0000
