data_image0
_chemical_formula_structural       Co4C4N8C4O4H8O4H8C4N8C4N8
_chemical_formula_sum              "Co4 C16 N24 O8 H16"
_cell_length_a       7.1881
_cell_length_b       13.0449
_cell_length_c       15.7517
_cell_angle_alpha    90
_cell_angle_beta     95.456
_cell_angle_gamma    90

_space_group_name_H-M_alt    "P 1"
_space_group_IT_number       1

loop_
  _space_group_symop_operation_xyz
  'x, y, z'

loop_
  _atom_site_type_symbol
  _atom_site_label
  _atom_site_symmetry_multiplicity
  _atom_site_fract_x
  _atom_site_fract_y
  _atom_site_fract_z
  _atom_site_occupancy
  Co  Co1       1.0  0.49987  0.25092  0.60928  1.0000
  Co  Co2       1.0  0.49987  0.74908  0.10928  1.0000
  Co  Co3       1.0  0.99987  0.75092  0.60928  1.0000
  Co  Co4       1.0  0.99987  0.24908  0.10928  1.0000
  C   C1        1.0  0.48010  0.48290  0.66760  1.0000
  C   C2        1.0  0.48010  0.51710  0.16760  1.0000
  C   C3        1.0  0.98010  0.98290  0.66760  1.0000
  C   C4        1.0  0.98010  0.01710  0.16760  1.0000
  N   N1        1.0  0.47330  0.39420  0.67214  1.0000
  N   N2        1.0  0.47330  0.60580  0.17214  1.0000
  N   N3        1.0  0.97330  0.89420  0.67214  1.0000
  N   N4        1.0  0.97330  0.10580  0.17214  1.0000
  N   N5        1.0  0.74340  0.69280  0.64726  1.0000
  N   N6        1.0  0.74340  0.30720  0.14726  1.0000
  N   N7        1.0  0.24340  0.19280  0.64726  1.0000
  N   N8        1.0  0.24340  0.80720  0.14726  1.0000
  C   C5        1.0  0.87240  0.36520  0.55570  1.0000
  C   C6        1.0  0.87240  0.63480  0.05570  1.0000
  C   C7        1.0  0.37240  0.86520  0.55570  1.0000
  C   C8        1.0  0.37240  0.13480  0.05570  1.0000
  O   O1        1.0  0.64760  0.18362  0.71457  1.0000
  O   O2        1.0  0.64760  0.81638  0.21457  1.0000
  O   O3        1.0  0.14760  0.68362  0.71457  1.0000
  O   O4        1.0  0.14760  0.31638  0.21457  1.0000
  H   H1        1.0  0.68320  0.23070  0.75180  1.0000
  H   H2        1.0  0.68320  0.76930  0.25180  1.0000
  H   H3        1.0  0.18320  0.73070  0.75180  1.0000
  H   H4        1.0  0.18320  0.26930  0.25180  1.0000
  H   H5        1.0  0.75130  0.15780  0.69960  1.0000
  H   H6        1.0  0.75130  0.84220  0.19960  1.0000
  H   H7        1.0  0.25130  0.65780  0.69960  1.0000
  H   H8        1.0  0.25130  0.34220  0.19960  1.0000
  O   O5        1.0  0.35380  0.31537  0.50262  1.0000
  O   O6        1.0  0.35380  0.68463  0.00262  1.0000
  O   O7        1.0  0.85380  0.81537  0.50262  1.0000
  O   O8        1.0  0.85380  0.18463  0.00262  1.0000
  H   H9        1.0  0.31770  0.26720  0.46620  1.0000
  H   H10       1.0  0.31770  0.73280  0.96620  1.0000
  H   H11       1.0  0.81770  0.76720  0.46620  1.0000
  H   H12       1.0  0.81770  0.23280  0.96620  1.0000
  H   H13       1.0  0.24970  0.34220  0.51670  1.0000
  H   H14       1.0  0.24970  0.65780  0.01670  1.0000
  H   H15       1.0  0.74970  0.84220  0.51670  1.0000
  H   H16       1.0  0.74970  0.15780  0.01670  1.0000
  C   C9        1.0  0.61930  0.63810  0.65480  1.0000
  C   C10       1.0  0.61930  0.36190  0.15480  1.0000
  C   C11       1.0  0.11930  0.13810  0.65480  1.0000
  C   C12       1.0  0.11930  0.86190  0.15480  1.0000
  N   N9        1.0  0.46900  0.58370  0.66420  1.0000
  N   N10       1.0  0.46900  0.41630  0.16420  1.0000
  N   N11       1.0  0.96900  0.08370  0.66420  1.0000
  N   N12       1.0  0.96900  0.91630  0.16420  1.0000
  N   N13       1.0  0.75270  0.31050  0.56946  1.0000
  N   N14       1.0  0.75270  0.68950  0.06946  1.0000
  N   N15       1.0  0.25270  0.81050  0.56946  1.0000
  N   N16       1.0  0.25270  0.18950  0.06946  1.0000
  C   C13       1.0  0.01530  0.51890  0.54310  1.0000
  C   C14       1.0  0.01530  0.48110  0.04310  1.0000
  C   C15       1.0  0.51530  0.01890  0.54310  1.0000
  C   C16       1.0  0.51530  0.98110  0.04310  1.0000
  N   N17       1.0  0.01970  0.41840  0.53840  1.0000
  N   N18       1.0  0.01970  0.58160  0.03840  1.0000
  N   N19       1.0  0.51970  0.91840  0.53840  1.0000
  N   N20       1.0  0.51970  0.08160  0.03840  1.0000
  N   N21       1.0  0.02630  0.60750  0.54490  1.0000
  N   N22       1.0  0.02630  0.39250  0.04490  1.0000
  N   N23       1.0  0.52630  0.10750  0.54490  1.0000
  N   N24       1.0  0.52630  0.89250  0.04490  1.0000
