data_image0
_chemical_formula_structural       Ni4N4C4O4H8N4C4O4H8N4C8N12
_chemical_formula_sum              "Ni4 N24 C16 O8 H16"
_cell_length_a       7.153
_cell_length_b       12.8872
_cell_length_c       15.7812
_cell_angle_alpha    90
_cell_angle_beta     96.04
_cell_angle_gamma    90

_space_group_name_H-M_alt    "P 1"
_space_group_IT_number       1

loop_
  _space_group_symop_operation_xyz
  'x, y, z'

loop_
  _atom_site_type_symbol
  _atom_site_label
  _atom_site_symmetry_multiplicity
  _atom_site_fract_x
  _atom_site_fract_y
  _atom_site_fract_z
  _atom_site_occupancy
  Ni  Ni1       1.0  0.49819  0.75058  0.39465  1.0000
  Ni  Ni2       1.0  0.49819  0.24942  0.89465  1.0000
  Ni  Ni3       1.0  0.99819  0.25058  0.39465  1.0000
  Ni  Ni4       1.0  0.99819  0.74942  0.89465  1.0000
  N   N1        1.0  0.24570  0.69362  0.43118  1.0000
  N   N2        1.0  0.24570  0.30638  0.93118  1.0000
  N   N3        1.0  0.74570  0.19362  0.43118  1.0000
  N   N4        1.0  0.74570  0.80638  0.93118  1.0000
  C   C1        1.0  0.12130  0.63803  0.43813  1.0000
  C   C2        1.0  0.12130  0.36197  0.93813  1.0000
  C   C3        1.0  0.62130  0.13803  0.43813  1.0000
  C   C4        1.0  0.62130  0.86197  0.93813  1.0000
  O   O1        1.0  0.64535  0.68120  0.49933  1.0000
  O   O2        1.0  0.64535  0.31880  0.99933  1.0000
  O   O3        1.0  0.14535  0.18120  0.49933  1.0000
  O   O4        1.0  0.14535  0.81880  0.99933  1.0000
  H   H1        1.0  0.69338  0.72886  0.53432  1.0000
  H   H2        1.0  0.69338  0.27114  0.03432  1.0000
  H   H3        1.0  0.19338  0.22886  0.53432  1.0000
  H   H4        1.0  0.19338  0.77114  0.03432  1.0000
  H   H5        1.0  0.74268  0.64855  0.48346  1.0000
  H   H6        1.0  0.74268  0.35145  0.98346  1.0000
  H   H7        1.0  0.24268  0.14855  0.48346  1.0000
  H   H8        1.0  0.24268  0.85145  0.98346  1.0000
  N   N5        1.0  0.97000  0.58299  0.44672  1.0000
  N   N6        1.0  0.97000  0.41701  0.94672  1.0000
  N   N7        1.0  0.47000  0.08299  0.44672  1.0000
  N   N8        1.0  0.47000  0.91701  0.94672  1.0000
  C   C5        1.0  0.98160  0.48087  0.45165  1.0000
  C   C6        1.0  0.98160  0.51913  0.95165  1.0000
  C   C7        1.0  0.48160  0.98087  0.45165  1.0000
  C   C8        1.0  0.48160  0.01913  0.95165  1.0000
  O   O5        1.0  0.35419  0.81774  0.28898  1.0000
  O   O6        1.0  0.35419  0.18226  0.78898  1.0000
  O   O7        1.0  0.85419  0.31774  0.28898  1.0000
  O   O8        1.0  0.85419  0.68226  0.78898  1.0000
  H   H9        1.0  0.33202  0.77117  0.24924  1.0000
  H   H10       1.0  0.33202  0.22883  0.74924  1.0000
  H   H11       1.0  0.83202  0.27117  0.24924  1.0000
  H   H12       1.0  0.83202  0.72883  0.74924  1.0000
  H   H13       1.0  0.24318  0.83684  0.30093  1.0000
  H   H14       1.0  0.24318  0.16316  0.80093  1.0000
  H   H15       1.0  0.74318  0.33684  0.30093  1.0000
  H   H16       1.0  0.74318  0.66316  0.80093  1.0000
  N   N9        1.0  0.97530  0.39177  0.45688  1.0000
  N   N10       1.0  0.97530  0.60823  0.95688  1.0000
  N   N11       1.0  0.47530  0.89177  0.45688  1.0000
  N   N12       1.0  0.47530  0.10823  0.95688  1.0000
  C   C9        1.0  0.51000  0.51955  0.32961  1.0000
  C   C10       1.0  0.51000  0.48045  0.82961  1.0000
  C   C11       1.0  0.01000  0.01955  0.32961  1.0000
  C   C12       1.0  0.01000  0.98045  0.82961  1.0000
  C   C13       1.0  0.36690  0.36389  0.34221  1.0000
  C   C14       1.0  0.36690  0.63611  0.84221  1.0000
  C   C15       1.0  0.86690  0.86389  0.34221  1.0000
  C   C16       1.0  0.86690  0.13611  0.84221  1.0000
  N   N13       1.0  0.51970  0.60911  0.33130  1.0000
  N   N14       1.0  0.51970  0.39089  0.83130  1.0000
  N   N15       1.0  0.01970  0.10911  0.33130  1.0000
  N   N16       1.0  0.01970  0.89089  0.83130  1.0000
  N   N17       1.0  0.51480  0.41827  0.32507  1.0000
  N   N18       1.0  0.51480  0.58173  0.82507  1.0000
  N   N19       1.0  0.01480  0.91827  0.32507  1.0000
  N   N20       1.0  0.01480  0.08173  0.82507  1.0000
  N   N21       1.0  0.24710  0.30903  0.35611  1.0000
  N   N22       1.0  0.24710  0.69097  0.85611  1.0000
  N   N23       1.0  0.74710  0.80903  0.35611  1.0000
  N   N24       1.0  0.74710  0.19097  0.85611  1.0000
