data_image0
_chemical_formula_structural       C48Mn16Cl48O96C96
_chemical_formula_sum              "C144 Mn16 Cl48 O96"
_cell_length_a       22.7292
_cell_length_b       22.7292
_cell_length_c       22.7292
_cell_angle_alpha    90
_cell_angle_beta     90
_cell_angle_gamma    90

_space_group_name_H-M_alt    "P 1"
_space_group_IT_number       1

loop_
  _space_group_symop_operation_xyz
  'x, y, z'

loop_
  _atom_site_type_symbol
  _atom_site_label
  _atom_site_symmetry_multiplicity
  _atom_site_fract_x
  _atom_site_fract_y
  _atom_site_fract_z
  _atom_site_occupancy
  C   C1        1.0  0.40070  0.50350  0.18140  1.0000
  C   C2        1.0  0.09930  0.49650  0.68140  1.0000
  C   C3        1.0  0.59930  0.00350  0.31860  1.0000
  C   C4        1.0  0.90070  0.99650  0.81860  1.0000
  C   C5        1.0  0.18140  0.40070  0.50350  1.0000
  C   C6        1.0  0.68140  0.09930  0.49650  1.0000
  C   C7        1.0  0.31860  0.59930  0.00350  1.0000
  C   C8        1.0  0.81860  0.90070  0.99650  1.0000
  C   C9        1.0  0.50350  0.18140  0.40070  1.0000
  C   C10       1.0  0.49650  0.68140  0.09930  1.0000
  C   C11       1.0  0.00350  0.31860  0.59930  1.0000
  C   C12       1.0  0.99650  0.81860  0.90070  1.0000
  C   C13       1.0  0.75350  0.65070  0.43140  1.0000
  C   C14       1.0  0.74650  0.34930  0.93140  1.0000
  C   C15       1.0  0.25350  0.84930  0.56860  1.0000
  C   C16       1.0  0.24650  0.15070  0.06860  1.0000
  C   C17       1.0  0.65070  0.43140  0.75350  1.0000
  C   C18       1.0  0.34930  0.93140  0.74650  1.0000
  C   C19       1.0  0.84930  0.56860  0.25350  1.0000
  C   C20       1.0  0.15070  0.06860  0.24650  1.0000
  C   C21       1.0  0.43140  0.75350  0.65070  1.0000
  C   C22       1.0  0.93140  0.74650  0.34930  1.0000
  C   C23       1.0  0.56860  0.25350  0.84930  1.0000
  C   C24       1.0  0.06860  0.24650  0.15070  1.0000
  C   C25       1.0  0.90070  0.00350  0.68140  1.0000
  C   C26       1.0  0.59930  0.99650  0.18140  1.0000
  C   C27       1.0  0.09930  0.50350  0.81860  1.0000
  C   C28       1.0  0.40070  0.49650  0.31860  1.0000
  C   C29       1.0  0.68140  0.90070  0.00350  1.0000
  C   C30       1.0  0.18140  0.59930  0.99650  1.0000
  C   C31       1.0  0.81860  0.09930  0.50350  1.0000
  C   C32       1.0  0.31860  0.40070  0.49650  1.0000
  C   C33       1.0  0.00350  0.68140  0.90070  1.0000
  C   C34       1.0  0.99650  0.18140  0.59930  1.0000
  C   C35       1.0  0.50350  0.81860  0.09930  1.0000
  C   C36       1.0  0.49650  0.31860  0.40070  1.0000
  C   C37       1.0  0.25350  0.15070  0.93140  1.0000
  C   C38       1.0  0.24650  0.84930  0.43140  1.0000
  C   C39       1.0  0.75350  0.34930  0.06860  1.0000
  C   C40       1.0  0.74650  0.65070  0.56860  1.0000
  C   C41       1.0  0.15070  0.93140  0.25350  1.0000
  C   C42       1.0  0.84930  0.43140  0.24650  1.0000
  C   C43       1.0  0.34930  0.06860  0.75350  1.0000
  C   C44       1.0  0.65070  0.56860  0.74650  1.0000
  C   C45       1.0  0.93140  0.25350  0.15070  1.0000
  C   C46       1.0  0.43140  0.24650  0.84930  1.0000
  C   C47       1.0  0.06860  0.75350  0.34930  1.0000
  C   C48       1.0  0.56860  0.74650  0.65070  1.0000
  Mn  Mn1       1.0  0.39116  0.60884  0.10884  1.0000
  Mn  Mn2       1.0  0.10884  0.39116  0.60884  1.0000
  Mn  Mn3       1.0  0.60884  0.10884  0.39116  1.0000
  Mn  Mn4       1.0  0.89116  0.89116  0.89116  1.0000
  Mn  Mn5       1.0  0.85884  0.64116  0.35884  1.0000
  Mn  Mn6       1.0  0.64116  0.35884  0.85884  1.0000
  Mn  Mn7       1.0  0.35884  0.85884  0.64116  1.0000
  Mn  Mn8       1.0  0.14116  0.14116  0.14116  1.0000
  Mn  Mn9       1.0  0.89116  0.10884  0.60884  1.0000
  Mn  Mn10      1.0  0.60884  0.89116  0.10884  1.0000
  Mn  Mn11      1.0  0.10884  0.60884  0.89116  1.0000
  Mn  Mn12      1.0  0.39116  0.39116  0.39116  1.0000
  Mn  Mn13      1.0  0.35884  0.14116  0.85884  1.0000
  Mn  Mn14      1.0  0.14116  0.85884  0.35884  1.0000
  Mn  Mn15      1.0  0.85884  0.35884  0.14116  1.0000
  Mn  Mn16      1.0  0.64116  0.64116  0.64116  1.0000
  Cl  Cl1       1.0  0.40730  0.38990  0.16518  1.0000
  Cl  Cl2       1.0  0.09270  0.61010  0.66518  1.0000
  Cl  Cl3       1.0  0.59270  0.88990  0.33482  1.0000
  Cl  Cl4       1.0  0.90730  0.11010  0.83482  1.0000
  Cl  Cl5       1.0  0.16518  0.40730  0.38990  1.0000
  Cl  Cl6       1.0  0.66518  0.09270  0.61010  1.0000
  Cl  Cl7       1.0  0.33482  0.59270  0.88990  1.0000
  Cl  Cl8       1.0  0.83482  0.90730  0.11010  1.0000
  Cl  Cl9       1.0  0.38990  0.16518  0.40730  1.0000
  Cl  Cl10      1.0  0.61010  0.66518  0.09270  1.0000
  Cl  Cl11      1.0  0.88990  0.33482  0.59270  1.0000
  Cl  Cl12      1.0  0.11010  0.83482  0.90730  1.0000
  Cl  Cl13      1.0  0.63990  0.65730  0.41518  1.0000
  Cl  Cl14      1.0  0.86010  0.34270  0.91518  1.0000
  Cl  Cl15      1.0  0.13990  0.84270  0.58482  1.0000
  Cl  Cl16      1.0  0.36010  0.15730  0.08482  1.0000
  Cl  Cl17      1.0  0.65730  0.41518  0.63990  1.0000
  Cl  Cl18      1.0  0.34270  0.91518  0.86010  1.0000
  Cl  Cl19      1.0  0.84270  0.58482  0.13990  1.0000
  Cl  Cl20      1.0  0.15730  0.08482  0.36010  1.0000
  Cl  Cl21      1.0  0.41518  0.63990  0.65730  1.0000
  Cl  Cl22      1.0  0.91518  0.86010  0.34270  1.0000
  Cl  Cl23      1.0  0.58482  0.13990  0.84270  1.0000
  Cl  Cl24      1.0  0.08482  0.36010  0.15730  1.0000
  Cl  Cl25      1.0  0.90730  0.88990  0.66518  1.0000
  Cl  Cl26      1.0  0.59270  0.11010  0.16518  1.0000
  Cl  Cl27      1.0  0.09270  0.38990  0.83482  1.0000
  Cl  Cl28      1.0  0.40730  0.61010  0.33482  1.0000
  Cl  Cl29      1.0  0.66518  0.90730  0.88990  1.0000
  Cl  Cl30      1.0  0.16518  0.59270  0.11010  1.0000
  Cl  Cl31      1.0  0.83482  0.09270  0.38990  1.0000
  Cl  Cl32      1.0  0.33482  0.40730  0.61010  1.0000
  Cl  Cl33      1.0  0.88990  0.66518  0.90730  1.0000
  Cl  Cl34      1.0  0.11010  0.16518  0.59270  1.0000
  Cl  Cl35      1.0  0.38990  0.83482  0.09270  1.0000
  Cl  Cl36      1.0  0.61010  0.33482  0.40730  1.0000
  Cl  Cl37      1.0  0.13990  0.15730  0.91518  1.0000
  Cl  Cl38      1.0  0.36010  0.84270  0.41518  1.0000
  Cl  Cl39      1.0  0.63990  0.34270  0.08482  1.0000
  Cl  Cl40      1.0  0.86010  0.65730  0.58482  1.0000
  Cl  Cl41      1.0  0.15730  0.91518  0.13990  1.0000
  Cl  Cl42      1.0  0.84270  0.41518  0.36010  1.0000
  Cl  Cl43      1.0  0.34270  0.08482  0.63990  1.0000
  Cl  Cl44      1.0  0.65730  0.58482  0.86010  1.0000
  Cl  Cl45      1.0  0.91518  0.13990  0.15730  1.0000
  Cl  Cl46      1.0  0.41518  0.36010  0.84270  1.0000
  Cl  Cl47      1.0  0.08482  0.63990  0.34270  1.0000
  Cl  Cl48      1.0  0.58482  0.86010  0.65730  1.0000
  O   O1        1.0  0.39490  0.60970  0.20680  1.0000
  O   O2        1.0  0.10510  0.39030  0.70680  1.0000
  O   O3        1.0  0.60510  0.10970  0.29320  1.0000
  O   O4        1.0  0.89490  0.89030  0.79320  1.0000
  O   O5        1.0  0.20680  0.39490  0.60970  1.0000
  O   O6        1.0  0.70680  0.10510  0.39030  1.0000
  O   O7        1.0  0.29320  0.60510  0.10970  1.0000
  O   O8        1.0  0.79320  0.89490  0.89030  1.0000
  O   O9        1.0  0.60970  0.20680  0.39490  1.0000
  O   O10       1.0  0.39030  0.70680  0.10510  1.0000
  O   O11       1.0  0.10970  0.29320  0.60510  1.0000
  O   O12       1.0  0.89030  0.79320  0.89490  1.0000
  O   O13       1.0  0.85970  0.64490  0.45680  1.0000
  O   O14       1.0  0.64030  0.35510  0.95680  1.0000
  O   O15       1.0  0.35970  0.85510  0.54320  1.0000
  O   O16       1.0  0.14030  0.14490  0.04320  1.0000
  O   O17       1.0  0.64490  0.45680  0.85970  1.0000
  O   O18       1.0  0.35510  0.95680  0.64030  1.0000
  O   O19       1.0  0.85510  0.54320  0.35970  1.0000
  O   O20       1.0  0.14490  0.04320  0.14030  1.0000
  O   O21       1.0  0.45680  0.85970  0.64490  1.0000
  O   O22       1.0  0.95680  0.64030  0.35510  1.0000
  O   O23       1.0  0.54320  0.35970  0.85510  1.0000
  O   O24       1.0  0.04320  0.14030  0.14490  1.0000
  O   O25       1.0  0.89490  0.10970  0.70680  1.0000
  O   O26       1.0  0.60510  0.89030  0.20680  1.0000
  O   O27       1.0  0.10510  0.60970  0.79320  1.0000
  O   O28       1.0  0.39490  0.39030  0.29320  1.0000
  O   O29       1.0  0.70680  0.89490  0.10970  1.0000
  O   O30       1.0  0.20680  0.60510  0.89030  1.0000
  O   O31       1.0  0.79320  0.10510  0.60970  1.0000
  O   O32       1.0  0.29320  0.39490  0.39030  1.0000
  O   O33       1.0  0.10970  0.70680  0.89490  1.0000
  O   O34       1.0  0.89030  0.20680  0.60510  1.0000
  O   O35       1.0  0.60970  0.79320  0.10510  1.0000
  O   O36       1.0  0.39030  0.29320  0.39490  1.0000
  O   O37       1.0  0.35970  0.14490  0.95680  1.0000
  O   O38       1.0  0.14030  0.85510  0.45680  1.0000
  O   O39       1.0  0.85970  0.35510  0.04320  1.0000
  O   O40       1.0  0.64030  0.64490  0.54320  1.0000
  O   O41       1.0  0.14490  0.95680  0.35970  1.0000
  O   O42       1.0  0.85510  0.45680  0.14030  1.0000
  O   O43       1.0  0.35510  0.04320  0.85970  1.0000
  O   O44       1.0  0.64490  0.54320  0.64030  1.0000
  O   O45       1.0  0.95680  0.35970  0.14490  1.0000
  O   O46       1.0  0.45680  0.14030  0.85510  1.0000
  O   O47       1.0  0.04320  0.85970  0.35510  1.0000
  O   O48       1.0  0.54320  0.64030  0.64490  1.0000
  O   O49       1.0  0.39910  0.51940  0.12870  1.0000
  O   O50       1.0  0.10090  0.48060  0.62870  1.0000
  O   O51       1.0  0.60090  0.01940  0.37130  1.0000
  O   O52       1.0  0.89910  0.98060  0.87130  1.0000
  O   O53       1.0  0.12870  0.39910  0.51940  1.0000
  O   O54       1.0  0.62870  0.10090  0.48060  1.0000
  O   O55       1.0  0.37130  0.60090  0.01940  1.0000
  O   O56       1.0  0.87130  0.89910  0.98060  1.0000
  O   O57       1.0  0.51940  0.12870  0.39910  1.0000
  O   O58       1.0  0.48060  0.62870  0.10090  1.0000
  O   O59       1.0  0.01940  0.37130  0.60090  1.0000
  O   O60       1.0  0.98060  0.87130  0.89910  1.0000
  O   O61       1.0  0.76940  0.64910  0.37870  1.0000
  O   O62       1.0  0.73060  0.35090  0.87870  1.0000
  O   O63       1.0  0.26940  0.85090  0.62130  1.0000
  O   O64       1.0  0.23060  0.14910  0.12130  1.0000
  O   O65       1.0  0.64910  0.37870  0.76940  1.0000
  O   O66       1.0  0.35090  0.87870  0.73060  1.0000
  O   O67       1.0  0.85090  0.62130  0.26940  1.0000
  O   O68       1.0  0.14910  0.12130  0.23060  1.0000
  O   O69       1.0  0.37870  0.76940  0.64910  1.0000
  O   O70       1.0  0.87870  0.73060  0.35090  1.0000
  O   O71       1.0  0.62130  0.26940  0.85090  1.0000
  O   O72       1.0  0.12130  0.23060  0.14910  1.0000
  O   O73       1.0  0.89910  0.01940  0.62870  1.0000
  O   O74       1.0  0.60090  0.98060  0.12870  1.0000
  O   O75       1.0  0.10090  0.51940  0.87130  1.0000
  O   O76       1.0  0.39910  0.48060  0.37130  1.0000
  O   O77       1.0  0.62870  0.89910  0.01940  1.0000
  O   O78       1.0  0.12870  0.60090  0.98060  1.0000
  O   O79       1.0  0.87130  0.10090  0.51940  1.0000
  O   O80       1.0  0.37130  0.39910  0.48060  1.0000
  O   O81       1.0  0.01940  0.62870  0.89910  1.0000
  O   O82       1.0  0.98060  0.12870  0.60090  1.0000
  O   O83       1.0  0.51940  0.87130  0.10090  1.0000
  O   O84       1.0  0.48060  0.37130  0.39910  1.0000
  O   O85       1.0  0.26940  0.14910  0.87870  1.0000
  O   O86       1.0  0.23060  0.85090  0.37870  1.0000
  O   O87       1.0  0.76940  0.35090  0.12130  1.0000
  O   O88       1.0  0.73060  0.64910  0.62130  1.0000
  O   O89       1.0  0.14910  0.87870  0.26940  1.0000
  O   O90       1.0  0.85090  0.37870  0.23060  1.0000
  O   O91       1.0  0.35090  0.12130  0.76940  1.0000
  O   O92       1.0  0.64910  0.62130  0.73060  1.0000
  O   O93       1.0  0.87870  0.26940  0.14910  1.0000
  O   O94       1.0  0.37870  0.23060  0.85090  1.0000
  O   O95       1.0  0.12130  0.76940  0.35090  1.0000
  O   O96       1.0  0.62130  0.73060  0.64910  1.0000
  C   C49       1.0  0.40420  0.45020  0.21050  1.0000
  C   C50       1.0  0.09580  0.54980  0.71050  1.0000
  C   C51       1.0  0.59580  0.95020  0.28950  1.0000
  C   C52       1.0  0.90420  0.04980  0.78950  1.0000
  C   C53       1.0  0.21050  0.40420  0.45020  1.0000
  C   C54       1.0  0.71050  0.09580  0.54980  1.0000
  C   C55       1.0  0.28950  0.59580  0.95020  1.0000
  C   C56       1.0  0.78950  0.90420  0.04980  1.0000
  C   C57       1.0  0.45020  0.21050  0.40420  1.0000
  C   C58       1.0  0.54980  0.71050  0.09580  1.0000
  C   C59       1.0  0.95020  0.28950  0.59580  1.0000
  C   C60       1.0  0.04980  0.78950  0.90420  1.0000
  C   C61       1.0  0.70020  0.65420  0.46050  1.0000
  C   C62       1.0  0.79980  0.34580  0.96050  1.0000
  C   C63       1.0  0.20020  0.84580  0.53950  1.0000
  C   C64       1.0  0.29980  0.15420  0.03950  1.0000
  C   C65       1.0  0.65420  0.46050  0.70020  1.0000
  C   C66       1.0  0.34580  0.96050  0.79980  1.0000
  C   C67       1.0  0.84580  0.53950  0.20020  1.0000
  C   C68       1.0  0.15420  0.03950  0.29980  1.0000
  C   C69       1.0  0.46050  0.70020  0.65420  1.0000
  C   C70       1.0  0.96050  0.79980  0.34580  1.0000
  C   C71       1.0  0.53950  0.20020  0.84580  1.0000
  C   C72       1.0  0.03950  0.29980  0.15420  1.0000
  C   C73       1.0  0.90420  0.95020  0.71050  1.0000
  C   C74       1.0  0.59580  0.04980  0.21050  1.0000
  C   C75       1.0  0.09580  0.45020  0.78950  1.0000
  C   C76       1.0  0.40420  0.54980  0.28950  1.0000
  C   C77       1.0  0.71050  0.90420  0.95020  1.0000
  C   C78       1.0  0.21050  0.59580  0.04980  1.0000
  C   C79       1.0  0.78950  0.09580  0.45020  1.0000
  C   C80       1.0  0.28950  0.40420  0.54980  1.0000
  C   C81       1.0  0.95020  0.71050  0.90420  1.0000
  C   C82       1.0  0.04980  0.21050  0.59580  1.0000
  C   C83       1.0  0.45020  0.78950  0.09580  1.0000
  C   C84       1.0  0.54980  0.28950  0.40420  1.0000
  C   C85       1.0  0.20020  0.15420  0.96050  1.0000
  C   C86       1.0  0.29980  0.84580  0.46050  1.0000
  C   C87       1.0  0.70020  0.34580  0.03950  1.0000
  C   C88       1.0  0.79980  0.65420  0.53950  1.0000
  C   C89       1.0  0.15420  0.96050  0.20020  1.0000
  C   C90       1.0  0.84580  0.46050  0.29980  1.0000
  C   C91       1.0  0.34580  0.03950  0.70020  1.0000
  C   C92       1.0  0.65420  0.53950  0.79980  1.0000
  C   C93       1.0  0.96050  0.20020  0.15420  1.0000
  C   C94       1.0  0.46050  0.29980  0.84580  1.0000
  C   C95       1.0  0.03950  0.70020  0.34580  1.0000
  C   C96       1.0  0.53950  0.79980  0.65420  1.0000
  C   C97       1.0  0.39860  0.55960  0.22940  1.0000
  C   C98       1.0  0.10140  0.44040  0.72940  1.0000
  C   C99       1.0  0.60140  0.05960  0.27060  1.0000
  C   C100      1.0  0.89860  0.94040  0.77060  1.0000
  C   C101      1.0  0.22940  0.39860  0.55960  1.0000
  C   C102      1.0  0.72940  0.10140  0.44040  1.0000
  C   C103      1.0  0.27060  0.60140  0.05960  1.0000
  C   C104      1.0  0.77060  0.89860  0.94040  1.0000
  C   C105      1.0  0.55960  0.22940  0.39860  1.0000
  C   C106      1.0  0.44040  0.72940  0.10140  1.0000
  C   C107      1.0  0.05960  0.27060  0.60140  1.0000
  C   C108      1.0  0.94040  0.77060  0.89860  1.0000
  C   C109      1.0  0.80960  0.64860  0.47940  1.0000
  C   C110      1.0  0.69040  0.35140  0.97940  1.0000
  C   C111      1.0  0.30960  0.85140  0.52060  1.0000
  C   C112      1.0  0.19040  0.14860  0.02060  1.0000
  C   C113      1.0  0.64860  0.47940  0.80960  1.0000
  C   C114      1.0  0.35140  0.97940  0.69040  1.0000
  C   C115      1.0  0.85140  0.52060  0.30960  1.0000
  C   C116      1.0  0.14860  0.02060  0.19040  1.0000
  C   C117      1.0  0.47940  0.80960  0.64860  1.0000
  C   C118      1.0  0.97940  0.69040  0.35140  1.0000
  C   C119      1.0  0.52060  0.30960  0.85140  1.0000
  C   C120      1.0  0.02060  0.19040  0.14860  1.0000
  C   C121      1.0  0.89860  0.05960  0.72940  1.0000
  C   C122      1.0  0.60140  0.94040  0.22940  1.0000
  C   C123      1.0  0.10140  0.55960  0.77060  1.0000
  C   C124      1.0  0.39860  0.44040  0.27060  1.0000
  C   C125      1.0  0.72940  0.89860  0.05960  1.0000
  C   C126      1.0  0.22940  0.60140  0.94040  1.0000
  C   C127      1.0  0.77060  0.10140  0.55960  1.0000
  C   C128      1.0  0.27060  0.39860  0.44040  1.0000
  C   C129      1.0  0.05960  0.72940  0.89860  1.0000
  C   C130      1.0  0.94040  0.22940  0.60140  1.0000
  C   C131      1.0  0.55960  0.77060  0.10140  1.0000
  C   C132      1.0  0.44040  0.27060  0.39860  1.0000
  C   C133      1.0  0.30960  0.14860  0.97940  1.0000
  C   C134      1.0  0.19040  0.85140  0.47940  1.0000
  C   C135      1.0  0.80960  0.35140  0.02060  1.0000
  C   C136      1.0  0.69040  0.64860  0.52060  1.0000
  C   C137      1.0  0.14860  0.97940  0.30960  1.0000
  C   C138      1.0  0.85140  0.47940  0.19040  1.0000
  C   C139      1.0  0.35140  0.02060  0.80960  1.0000
  C   C140      1.0  0.64860  0.52060  0.69040  1.0000
  C   C141      1.0  0.97940  0.30960  0.14860  1.0000
  C   C142      1.0  0.47940  0.19040  0.85140  1.0000
  C   C143      1.0  0.02060  0.80960  0.35140  1.0000
  C   C144      1.0  0.52060  0.69040  0.64860  1.0000
