data_image0
_chemical_formula_structural       Co8O16H16O32C8H8O8C8H8C8H8
_chemical_formula_sum              "Co8 O56 H40 C24"
_cell_length_a       8.1298
_cell_length_b       16.1312
_cell_length_c       16.7808
_cell_angle_alpha    90
_cell_angle_beta     90
_cell_angle_gamma    90

_space_group_name_H-M_alt    "P 1"
_space_group_IT_number       1

loop_
  _space_group_symop_operation_xyz
  'x, y, z'

loop_
  _atom_site_type_symbol
  _atom_site_label
  _atom_site_symmetry_multiplicity
  _atom_site_fract_x
  _atom_site_fract_y
  _atom_site_fract_z
  _atom_site_occupancy
  Co  Co1       1.0  0.76237  0.19215  0.62062  1.0000
  Co  Co2       1.0  0.73763  0.80785  0.12062  1.0000
  Co  Co3       1.0  0.23763  0.69215  0.87938  1.0000
  Co  Co4       1.0  0.26237  0.30785  0.37938  1.0000
  Co  Co5       1.0  0.23763  0.80785  0.37938  1.0000
  Co  Co6       1.0  0.26237  0.19215  0.87938  1.0000
  Co  Co7       1.0  0.76237  0.30785  0.12062  1.0000
  Co  Co8       1.0  0.73763  0.69215  0.62062  1.0000
  O   O1        1.0  0.16932  0.15107  0.76853  1.0000
  O   O2        1.0  0.33068  0.84893  0.26853  1.0000
  O   O3        1.0  0.83068  0.65107  0.73147  1.0000
  O   O4        1.0  0.66932  0.34893  0.23147  1.0000
  O   O5        1.0  0.83068  0.84893  0.23147  1.0000
  O   O6        1.0  0.66932  0.15107  0.73147  1.0000
  O   O7        1.0  0.16932  0.34893  0.26853  1.0000
  O   O8        1.0  0.33068  0.65107  0.76853  1.0000
  O   O9        1.0  0.77357  0.31428  0.66820  1.0000
  O   O10       1.0  0.72643  0.68572  0.16820  1.0000
  O   O11       1.0  0.22643  0.81428  0.83180  1.0000
  O   O12       1.0  0.27357  0.18572  0.33180  1.0000
  O   O13       1.0  0.22643  0.68572  0.33180  1.0000
  O   O14       1.0  0.27357  0.31428  0.83180  1.0000
  O   O15       1.0  0.77357  0.18572  0.16820  1.0000
  O   O16       1.0  0.72643  0.81428  0.66820  1.0000
  H   H1        1.0  0.75400  0.35200  0.63580  1.0000
  H   H2        1.0  0.74600  0.64800  0.13580  1.0000
  H   H3        1.0  0.24600  0.85200  0.86420  1.0000
  H   H4        1.0  0.25400  0.14800  0.36420  1.0000
  H   H5        1.0  0.24600  0.64800  0.36420  1.0000
  H   H6        1.0  0.25400  0.35200  0.86420  1.0000
  H   H7        1.0  0.75400  0.14800  0.13580  1.0000
  H   H8        1.0  0.74600  0.85200  0.63580  1.0000
  H   H9        1.0  0.70800  0.32240  0.70270  1.0000
  H   H10       1.0  0.79200  0.67760  0.20270  1.0000
  H   H11       1.0  0.29200  0.82240  0.79730  1.0000
  H   H12       1.0  0.20800  0.17760  0.29730  1.0000
  H   H13       1.0  0.29200  0.67760  0.29730  1.0000
  H   H14       1.0  0.20800  0.32240  0.79730  1.0000
  H   H15       1.0  0.70800  0.17760  0.20270  1.0000
  H   H16       1.0  0.79200  0.82240  0.70270  1.0000
  O   O17       1.0  0.02319  0.28594  0.42169  1.0000
  O   O18       1.0  0.47681  0.71406  0.92169  1.0000
  O   O19       1.0  0.97681  0.78594  0.07831  1.0000
  O   O20       1.0  0.52319  0.21406  0.57831  1.0000
  O   O21       1.0  0.97681  0.71406  0.57831  1.0000
  O   O22       1.0  0.52319  0.28594  0.07831  1.0000
  O   O23       1.0  0.02319  0.21406  0.92169  1.0000
  O   O24       1.0  0.47681  0.78594  0.42169  1.0000
  O   O25       1.0  0.99711  0.16291  0.66625  1.0000
  O   O26       1.0  0.50289  0.83709  0.16625  1.0000
  O   O27       1.0  0.00289  0.66291  0.83375  1.0000
  O   O28       1.0  0.49711  0.33709  0.33375  1.0000
  O   O29       1.0  0.00289  0.83709  0.33375  1.0000
  O   O30       1.0  0.49711  0.16291  0.83375  1.0000
  O   O31       1.0  0.99711  0.33709  0.16625  1.0000
  O   O32       1.0  0.50289  0.66291  0.66625  1.0000
  O   O33       1.0  0.78142  0.94003  0.57149  1.0000
  O   O34       1.0  0.71858  0.05997  0.07149  1.0000
  O   O35       1.0  0.21858  0.44003  0.92851  1.0000
  O   O36       1.0  0.28142  0.55997  0.42851  1.0000
  O   O37       1.0  0.21858  0.05997  0.42851  1.0000
  O   O38       1.0  0.28142  0.94003  0.92851  1.0000
  O   O39       1.0  0.78142  0.55997  0.07149  1.0000
  O   O40       1.0  0.71858  0.44003  0.57149  1.0000
  O   O41       1.0  0.85030  0.24885  0.51728  1.0000
  O   O42       1.0  0.64970  0.75115  0.01728  1.0000
  O   O43       1.0  0.14970  0.74885  0.98272  1.0000
  O   O44       1.0  0.35030  0.25115  0.48272  1.0000
  O   O45       1.0  0.14970  0.75115  0.48272  1.0000
  O   O46       1.0  0.35030  0.24885  0.98272  1.0000
  O   O47       1.0  0.85030  0.25115  0.01728  1.0000
  O   O48       1.0  0.64970  0.74885  0.51728  1.0000
  C   C1        1.0  0.78245  0.01079  0.60309  1.0000
  C   C2        1.0  0.71755  0.98921  0.10309  1.0000
  C   C3        1.0  0.21755  0.51079  0.89691  1.0000
  C   C4        1.0  0.28245  0.48921  0.39691  1.0000
  C   C5        1.0  0.21755  0.98921  0.39691  1.0000
  C   C6        1.0  0.28245  0.01079  0.89691  1.0000
  C   C7        1.0  0.78245  0.48921  0.10309  1.0000
  C   C8        1.0  0.71755  0.51079  0.60309  1.0000
  H   H17       1.0  0.79800  0.01290  0.65560  1.0000
  H   H18       1.0  0.70200  0.98710  0.15560  1.0000
  H   H19       1.0  0.20200  0.51290  0.84440  1.0000
  H   H20       1.0  0.29800  0.48710  0.34440  1.0000
  H   H21       1.0  0.20200  0.98710  0.34440  1.0000
  H   H22       1.0  0.29800  0.01290  0.84440  1.0000
  H   H23       1.0  0.79800  0.48710  0.15560  1.0000
  H   H24       1.0  0.70200  0.51290  0.65560  1.0000
  O   O49       1.0  0.75802  0.07743  0.56730  1.0000
  O   O50       1.0  0.74198  0.92257  0.06730  1.0000
  O   O51       1.0  0.24198  0.57743  0.93270  1.0000
  O   O52       1.0  0.25802  0.42257  0.43270  1.0000
  O   O53       1.0  0.24198  0.92257  0.43270  1.0000
  O   O54       1.0  0.25802  0.07743  0.93270  1.0000
  O   O55       1.0  0.75802  0.42257  0.06730  1.0000
  O   O56       1.0  0.74198  0.57743  0.56730  1.0000
  C   C9        1.0  0.98204  0.24125  0.48043  1.0000
  C   C10       1.0  0.51796  0.75875  0.98043  1.0000
  C   C11       1.0  0.01796  0.74125  0.01957  1.0000
  C   C12       1.0  0.48204  0.25875  0.51957  1.0000
  C   C13       1.0  0.01796  0.75875  0.51957  1.0000
  C   C14       1.0  0.48204  0.24125  0.01957  1.0000
  C   C15       1.0  0.98204  0.25875  0.98043  1.0000
  C   C16       1.0  0.51796  0.74125  0.48043  1.0000
  H   H25       1.0  0.04800  0.20130  0.49540  1.0000
  H   H26       1.0  0.45200  0.79870  0.99540  1.0000
  H   H27       1.0  0.95200  0.70130  0.00460  1.0000
  H   H28       1.0  0.54800  0.29870  0.50460  1.0000
  H   H29       1.0  0.95200  0.79870  0.50460  1.0000
  H   H30       1.0  0.54800  0.20130  0.00460  1.0000
  H   H31       1.0  0.04800  0.29870  0.99540  1.0000
  H   H32       1.0  0.45200  0.70130  0.49540  1.0000
  C   C17       1.0  0.03653  0.17465  0.73828  1.0000
  C   C18       1.0  0.46347  0.82535  0.23828  1.0000
  C   C19       1.0  0.96347  0.67465  0.76172  1.0000
  C   C20       1.0  0.53653  0.32535  0.26172  1.0000
  C   C21       1.0  0.96347  0.82535  0.26172  1.0000
  C   C22       1.0  0.53653  0.17465  0.76172  1.0000
  C   C23       1.0  0.03653  0.32535  0.23828  1.0000
  C   C24       1.0  0.46347  0.67465  0.73828  1.0000
  H   H33       1.0  0.96800  0.20120  0.76970  1.0000
  H   H34       1.0  0.53200  0.79880  0.26970  1.0000
  H   H35       1.0  0.03200  0.70120  0.73030  1.0000
  H   H36       1.0  0.46800  0.29880  0.23030  1.0000
  H   H37       1.0  0.03200  0.79880  0.23030  1.0000
  H   H38       1.0  0.46800  0.20120  0.73030  1.0000
  H   H39       1.0  0.96800  0.29880  0.26970  1.0000
  H   H40       1.0  0.53200  0.70120  0.76970  1.0000
