data_image0
_chemical_formula_structural       Eu4O40H16N8C24H8C8H8C16H8C8H8C24H8C8H8C16H8C16
_chemical_formula_sum              "Eu4 O40 H72 N8 C120"
_cell_length_a       11.9763
_cell_length_b       10.6741
_cell_length_c       24.7299
_cell_angle_alpha    90
_cell_angle_beta     98.083
_cell_angle_gamma    90

_space_group_name_H-M_alt    "P 1"
_space_group_IT_number       1

loop_
  _space_group_symop_operation_xyz
  'x, y, z'

loop_
  _atom_site_type_symbol
  _atom_site_label
  _atom_site_symmetry_multiplicity
  _atom_site_fract_x
  _atom_site_fract_y
  _atom_site_fract_z
  _atom_site_occupancy
  Eu  Eu1       1.0  0.75000  0.56198  0.00000  1.0000
  Eu  Eu2       1.0  0.25000  0.06198  0.50000  1.0000
  Eu  Eu3       1.0  0.25000  0.43802  0.00000  1.0000
  Eu  Eu4       1.0  0.75000  0.93802  0.50000  1.0000
  O   O1        1.0  0.68247  0.48153  0.07777  1.0000
  O   O2        1.0  0.81753  0.48153  0.92223  1.0000
  O   O3        1.0  0.18247  0.98153  0.57777  1.0000
  O   O4        1.0  0.31753  0.98153  0.42223  1.0000
  O   O5        1.0  0.31753  0.51847  0.92223  1.0000
  O   O6        1.0  0.18247  0.51847  0.07777  1.0000
  O   O7        1.0  0.81753  0.01847  0.42223  1.0000
  O   O8        1.0  0.68247  0.01847  0.57777  1.0000
  O   O9        1.0  0.79199  0.33242  0.12121  1.0000
  O   O10       1.0  0.70801  0.33242  0.87879  1.0000
  O   O11       1.0  0.29199  0.83242  0.62121  1.0000
  O   O12       1.0  0.20801  0.83242  0.37879  1.0000
  O   O13       1.0  0.20801  0.66758  0.87879  1.0000
  O   O14       1.0  0.29199  0.66758  0.12121  1.0000
  O   O15       1.0  0.70801  0.16758  0.37879  1.0000
  O   O16       1.0  0.79199  0.16758  0.62121  1.0000
  O   O17       1.0  0.07277  0.17293  0.49491  1.0000
  O   O18       1.0  0.42723  0.17293  0.50509  1.0000
  O   O19       1.0  0.57277  0.67293  0.99491  1.0000
  O   O20       1.0  0.92723  0.67293  0.00509  1.0000
  O   O21       1.0  0.92723  0.82707  0.50509  1.0000
  O   O22       1.0  0.57277  0.82707  0.49491  1.0000
  O   O23       1.0  0.42723  0.32707  0.00509  1.0000
  O   O24       1.0  0.07277  0.32707  0.99491  1.0000
  O   O25       1.0  0.94364  0.30920  0.45568  1.0000
  O   O26       1.0  0.55636  0.30920  0.54432  1.0000
  O   O27       1.0  0.44364  0.80920  0.95568  1.0000
  O   O28       1.0  0.05636  0.80920  0.04432  1.0000
  O   O29       1.0  0.05636  0.69080  0.54432  1.0000
  O   O30       1.0  0.44364  0.69080  0.45568  1.0000
  O   O31       1.0  0.55636  0.19080  0.04432  1.0000
  O   O32       1.0  0.94364  0.19080  0.95568  1.0000
  O   O33       1.0  0.88022  0.40405  0.03564  1.0000
  O   O34       1.0  0.61978  0.40405  0.96436  1.0000
  O   O35       1.0  0.38022  0.90405  0.53564  1.0000
  O   O36       1.0  0.11978  0.90405  0.46436  1.0000
  O   O37       1.0  0.11978  0.59595  0.96436  1.0000
  O   O38       1.0  0.38022  0.59595  0.03564  1.0000
  O   O39       1.0  0.61978  0.09595  0.46436  1.0000
  O   O40       1.0  0.88022  0.09595  0.53564  1.0000
  H   H1        1.0  0.93810  0.38110  0.02640  1.0000
  H   H2        1.0  0.56190  0.38110  0.97360  1.0000
  H   H3        1.0  0.43810  0.88110  0.52640  1.0000
  H   H4        1.0  0.06190  0.88110  0.47360  1.0000
  H   H5        1.0  0.06190  0.61890  0.97360  1.0000
  H   H6        1.0  0.43810  0.61890  0.02640  1.0000
  H   H7        1.0  0.56190  0.11890  0.47360  1.0000
  H   H8        1.0  0.93810  0.11890  0.52640  1.0000
  H   H9        1.0  0.86440  0.37510  0.06400  1.0000
  H   H10       1.0  0.63560  0.37510  0.93600  1.0000
  H   H11       1.0  0.36440  0.87510  0.56400  1.0000
  H   H12       1.0  0.13560  0.87510  0.43600  1.0000
  H   H13       1.0  0.13560  0.62490  0.93600  1.0000
  H   H14       1.0  0.36440  0.62490  0.06400  1.0000
  H   H15       1.0  0.63560  0.12490  0.43600  1.0000
  H   H16       1.0  0.86440  0.12490  0.56400  1.0000
  N   N1        1.0  0.21254  0.23035  0.42410  1.0000
  N   N2        1.0  0.28746  0.23035  0.57590  1.0000
  N   N3        1.0  0.71254  0.73035  0.92410  1.0000
  N   N4        1.0  0.78746  0.73035  0.07590  1.0000
  N   N5        1.0  0.78746  0.76965  0.57590  1.0000
  N   N6        1.0  0.71254  0.76965  0.42410  1.0000
  N   N7        1.0  0.28746  0.26965  0.07590  1.0000
  N   N8        1.0  0.21254  0.26965  0.92410  1.0000
  C   C1        1.0  0.70659  0.40131  0.11550  1.0000
  C   C2        1.0  0.79341  0.40131  0.88450  1.0000
  C   C3        1.0  0.20659  0.90131  0.61550  1.0000
  C   C4        1.0  0.29341  0.90131  0.38450  1.0000
  C   C5        1.0  0.29341  0.59869  0.88450  1.0000
  C   C6        1.0  0.20659  0.59869  0.11550  1.0000
  C   C7        1.0  0.79341  0.09869  0.38450  1.0000
  C   C8        1.0  0.70659  0.09869  0.61550  1.0000
  C   C9        1.0  0.62654  0.39176  0.15730  1.0000
  C   C10       1.0  0.87346  0.39176  0.84270  1.0000
  C   C11       1.0  0.12654  0.89176  0.65730  1.0000
  C   C12       1.0  0.37346  0.89176  0.34270  1.0000
  C   C13       1.0  0.37346  0.60824  0.84270  1.0000
  C   C14       1.0  0.12654  0.60824  0.15730  1.0000
  C   C15       1.0  0.87346  0.10824  0.34270  1.0000
  C   C16       1.0  0.62654  0.10824  0.65730  1.0000
  C   C17       1.0  0.64659  0.30542  0.19965  1.0000
  C   C18       1.0  0.85341  0.30542  0.80035  1.0000
  C   C19       1.0  0.14659  0.80542  0.69965  1.0000
  C   C20       1.0  0.35341  0.80542  0.30035  1.0000
  C   C21       1.0  0.35341  0.69458  0.80035  1.0000
  C   C22       1.0  0.14659  0.69458  0.19965  1.0000
  C   C23       1.0  0.85341  0.19458  0.30035  1.0000
  C   C24       1.0  0.64659  0.19458  0.69965  1.0000
  H   H17       1.0  0.70900  0.25288  0.20180  1.0000
  H   H18       1.0  0.79100  0.25288  0.79820  1.0000
  H   H19       1.0  0.20900  0.75288  0.70180  1.0000
  H   H20       1.0  0.29100  0.75288  0.29820  1.0000
  H   H21       1.0  0.29100  0.74712  0.79820  1.0000
  H   H22       1.0  0.20900  0.74712  0.20180  1.0000
  H   H23       1.0  0.79100  0.24712  0.29820  1.0000
  H   H24       1.0  0.70900  0.24712  0.70180  1.0000
  C   C25       1.0  0.57438  0.29685  0.23879  1.0000
  C   C26       1.0  0.92562  0.29685  0.76121  1.0000
  C   C27       1.0  0.07438  0.79685  0.73879  1.0000
  C   C28       1.0  0.42562  0.79685  0.26121  1.0000
  C   C29       1.0  0.42562  0.70315  0.76121  1.0000
  C   C30       1.0  0.07438  0.70315  0.23879  1.0000
  C   C31       1.0  0.92562  0.20315  0.26121  1.0000
  C   C32       1.0  0.57438  0.20315  0.73879  1.0000
  H   H25       1.0  0.58911  0.23968  0.26728  1.0000
  H   H26       1.0  0.91089  0.23968  0.73272  1.0000
  H   H27       1.0  0.08911  0.73968  0.76728  1.0000
  H   H28       1.0  0.41089  0.73968  0.23272  1.0000
  H   H29       1.0  0.41089  0.76032  0.73272  1.0000
  H   H30       1.0  0.08911  0.76032  0.26728  1.0000
  H   H31       1.0  0.91089  0.26032  0.23272  1.0000
  H   H32       1.0  0.58911  0.26032  0.76728  1.0000
  C   C33       1.0  0.47950  0.37428  0.23530  1.0000
  C   C34       1.0  0.02050  0.37428  0.76470  1.0000
  C   C35       1.0  0.97950  0.87428  0.73530  1.0000
  C   C36       1.0  0.52050  0.87428  0.26470  1.0000
  C   C37       1.0  0.52050  0.62572  0.76470  1.0000
  C   C38       1.0  0.97950  0.62572  0.23530  1.0000
  C   C39       1.0  0.02050  0.12572  0.26470  1.0000
  C   C40       1.0  0.47950  0.12572  0.73530  1.0000
  C   C41       1.0  0.45858  0.46039  0.19242  1.0000
  C   C42       1.0  0.04142  0.46039  0.80758  1.0000
  C   C43       1.0  0.95858  0.96039  0.69242  1.0000
  C   C44       1.0  0.54142  0.96039  0.30758  1.0000
  C   C45       1.0  0.54142  0.53961  0.80758  1.0000
  C   C46       1.0  0.95858  0.53961  0.19242  1.0000
  C   C47       1.0  0.04142  0.03961  0.30758  1.0000
  C   C48       1.0  0.45858  0.03961  0.69242  1.0000
  H   H33       1.0  0.39541  0.51191  0.18971  1.0000
  H   H34       1.0  0.10459  0.51191  0.81029  1.0000
  H   H35       1.0  0.89541  0.01191  0.68971  1.0000
  H   H36       1.0  0.60459  0.01191  0.31029  1.0000
  H   H37       1.0  0.60459  0.48809  0.81029  1.0000
  H   H38       1.0  0.89541  0.48809  0.18971  1.0000
  H   H39       1.0  0.10459  0.98809  0.31029  1.0000
  H   H40       1.0  0.39541  0.98809  0.68971  1.0000
  C   C49       1.0  0.53209  0.46890  0.15397  1.0000
  C   C50       1.0  0.96791  0.46890  0.84603  1.0000
  C   C51       1.0  0.03209  0.96890  0.65397  1.0000
  C   C52       1.0  0.46791  0.96890  0.34603  1.0000
  C   C53       1.0  0.46791  0.53110  0.84603  1.0000
  C   C54       1.0  0.03209  0.53110  0.15397  1.0000
  C   C55       1.0  0.96791  0.03110  0.34603  1.0000
  C   C56       1.0  0.53209  0.03110  0.65397  1.0000
  H   H41       1.0  0.51815  0.52670  0.12568  1.0000
  H   H42       1.0  0.98185  0.52670  0.87432  1.0000
  H   H43       1.0  0.01815  0.02670  0.62568  1.0000
  H   H44       1.0  0.48185  0.02670  0.37432  1.0000
  H   H45       1.0  0.48185  0.47330  0.87432  1.0000
  H   H46       1.0  0.01815  0.47330  0.12568  1.0000
  H   H47       1.0  0.98185  0.97330  0.37432  1.0000
  H   H48       1.0  0.51815  0.97330  0.62568  1.0000
  C   C57       1.0  0.03470  0.25369  0.45879  1.0000
  C   C58       1.0  0.46530  0.25369  0.54121  1.0000
  C   C59       1.0  0.53470  0.75369  0.95879  1.0000
  C   C60       1.0  0.96530  0.75369  0.04121  1.0000
  C   C61       1.0  0.96530  0.74631  0.54121  1.0000
  C   C62       1.0  0.53470  0.74631  0.45879  1.0000
  C   C63       1.0  0.46530  0.24631  0.04121  1.0000
  C   C64       1.0  0.03470  0.24631  0.95879  1.0000
  C   C65       1.0  0.10990  0.28338  0.41614  1.0000
  C   C66       1.0  0.39010  0.28338  0.58386  1.0000
  C   C67       1.0  0.60990  0.78338  0.91614  1.0000
  C   C68       1.0  0.89010  0.78338  0.08386  1.0000
  C   C69       1.0  0.89010  0.71662  0.58386  1.0000
  C   C70       1.0  0.60990  0.71662  0.41614  1.0000
  C   C71       1.0  0.39010  0.21662  0.08386  1.0000
  C   C72       1.0  0.10990  0.21662  0.91614  1.0000
  C   C73       1.0  0.07456  0.36148  0.37211  1.0000
  C   C74       1.0  0.42544  0.36148  0.62789  1.0000
  C   C75       1.0  0.57456  0.86148  0.87211  1.0000
  C   C76       1.0  0.92544  0.86148  0.12789  1.0000
  C   C77       1.0  0.92544  0.63852  0.62789  1.0000
  C   C78       1.0  0.57456  0.63852  0.37211  1.0000
  C   C79       1.0  0.42544  0.13852  0.12789  1.0000
  C   C80       1.0  0.07456  0.13852  0.87211  1.0000
  H   H49       1.0  0.00288  0.39683  0.36778  1.0000
  H   H50       1.0  0.49712  0.39683  0.63222  1.0000
  H   H51       1.0  0.50288  0.89683  0.86778  1.0000
  H   H52       1.0  0.99712  0.89683  0.13222  1.0000
  H   H53       1.0  0.99712  0.60317  0.63222  1.0000
  H   H54       1.0  0.50288  0.60317  0.36778  1.0000
  H   H55       1.0  0.49712  0.10317  0.13222  1.0000
  H   H56       1.0  0.00288  0.10317  0.86778  1.0000
  C   C81       1.0  0.14782  0.38580  0.33480  1.0000
  C   C82       1.0  0.35218  0.38580  0.66520  1.0000
  C   C83       1.0  0.64782  0.88580  0.83480  1.0000
  C   C84       1.0  0.85218  0.88580  0.16520  1.0000
  C   C85       1.0  0.85218  0.61420  0.66520  1.0000
  C   C86       1.0  0.64782  0.61420  0.33480  1.0000
  C   C87       1.0  0.35218  0.11420  0.16520  1.0000
  C   C88       1.0  0.14782  0.11420  0.83480  1.0000
  H   H57       1.0  0.12580  0.43717  0.30482  1.0000
  H   H58       1.0  0.37420  0.43717  0.69518  1.0000
  H   H59       1.0  0.62580  0.93717  0.80482  1.0000
  H   H60       1.0  0.87420  0.93717  0.19518  1.0000
  H   H61       1.0  0.87420  0.56283  0.69518  1.0000
  H   H62       1.0  0.62580  0.56283  0.30482  1.0000
  H   H63       1.0  0.37420  0.06283  0.19518  1.0000
  H   H64       1.0  0.12580  0.06283  0.80482  1.0000
  C   C89       1.0  0.25541  0.33207  0.34279  1.0000
  C   C90       1.0  0.24459  0.33207  0.65721  1.0000
  C   C91       1.0  0.75541  0.83207  0.84279  1.0000
  C   C92       1.0  0.74459  0.83207  0.15721  1.0000
  C   C93       1.0  0.74459  0.66793  0.65721  1.0000
  C   C94       1.0  0.75541  0.66793  0.34279  1.0000
  C   C95       1.0  0.24459  0.16793  0.15721  1.0000
  C   C96       1.0  0.25541  0.16793  0.84279  1.0000
  C   C97       1.0  0.28361  0.25479  0.38840  1.0000
  C   C98       1.0  0.21639  0.25479  0.61160  1.0000
  C   C99       1.0  0.78361  0.75479  0.88840  1.0000
  C   C100      1.0  0.71639  0.75479  0.11160  1.0000
  C   C101      1.0  0.71639  0.74521  0.61160  1.0000
  C   C102      1.0  0.78361  0.74521  0.38840  1.0000
  C   C103      1.0  0.21639  0.24521  0.11160  1.0000
  C   C104      1.0  0.28361  0.24521  0.88840  1.0000
  H   H65       1.0  0.35504  0.21886  0.39409  1.0000
  H   H66       1.0  0.14496  0.21886  0.60591  1.0000
  H   H67       1.0  0.85504  0.71886  0.89409  1.0000
  H   H68       1.0  0.64496  0.71886  0.10591  1.0000
  H   H69       1.0  0.64496  0.78114  0.60591  1.0000
  H   H70       1.0  0.85504  0.78114  0.39409  1.0000
  H   H71       1.0  0.14496  0.28114  0.10591  1.0000
  H   H72       1.0  0.35504  0.28114  0.89409  1.0000
  C   C105      1.0  0.33526  0.35149  0.30573  1.0000
  C   C106      1.0  0.16474  0.35149  0.69427  1.0000
  C   C107      1.0  0.83526  0.85149  0.80573  1.0000
  C   C108      1.0  0.66474  0.85149  0.19427  1.0000
  C   C109      1.0  0.66474  0.64851  0.69427  1.0000
  C   C110      1.0  0.83526  0.64851  0.30573  1.0000
  C   C111      1.0  0.16474  0.14851  0.19427  1.0000
  C   C112      1.0  0.33526  0.14851  0.80573  1.0000
  C   C113      1.0  0.40197  0.36312  0.27427  1.0000
  C   C114      1.0  0.09803  0.36312  0.72573  1.0000
  C   C115      1.0  0.90197  0.86312  0.77427  1.0000
  C   C116      1.0  0.59803  0.86312  0.22573  1.0000
  C   C117      1.0  0.59803  0.63688  0.72573  1.0000
  C   C118      1.0  0.90197  0.63688  0.27427  1.0000
  C   C119      1.0  0.09803  0.13688  0.22573  1.0000
  C   C120      1.0  0.40197  0.13688  0.77427  1.0000
