data_image0
_chemical_formula_structural       Co16N24H32N16O64C96H16C16H16C16H16C16H16
_chemical_formula_sum              "Co16 N40 H96 O64 C144"
_cell_length_a       24.34
_cell_length_b       24.34
_cell_length_c       14.17
_cell_angle_alpha    90
_cell_angle_beta     90
_cell_angle_gamma    90

_space_group_name_H-M_alt    "P 1"
_space_group_IT_number       1

loop_
  _space_group_symop_operation_xyz
  'x, y, z'

loop_
  _atom_site_type_symbol
  _atom_site_label
  _atom_site_symmetry_multiplicity
  _atom_site_fract_x
  _atom_site_fract_y
  _atom_site_fract_z
  _atom_site_occupancy
  Co  Co1       1.0  0.44555  0.05445  0.50000  1.0000
  Co  Co2       1.0  0.05445  0.44555  0.50000  1.0000
  Co  Co3       1.0  0.44555  0.44555  0.00000  1.0000
  Co  Co4       1.0  0.05445  0.05445  0.00000  1.0000
  Co  Co5       1.0  0.55445  0.94555  0.50000  1.0000
  Co  Co6       1.0  0.94555  0.55445  0.50000  1.0000
  Co  Co7       1.0  0.55445  0.55445  0.00000  1.0000
  Co  Co8       1.0  0.94555  0.94555  0.00000  1.0000
  Co  Co9       1.0  0.50765  0.00765  0.09726  1.0000
  Co  Co10      1.0  0.99235  0.49235  0.09726  1.0000
  Co  Co11      1.0  0.50765  0.49235  0.40274  1.0000
  Co  Co12      1.0  0.99235  0.00765  0.40274  1.0000
  Co  Co13      1.0  0.49235  0.99235  0.90274  1.0000
  Co  Co14      1.0  0.00765  0.50765  0.90274  1.0000
  Co  Co15      1.0  0.00765  0.99235  0.59726  1.0000
  Co  Co16      1.0  0.49235  0.50765  0.59726  1.0000
  N   N1        1.0  0.51469  0.01469  0.23900  1.0000
  N   N2        1.0  0.98531  0.48531  0.23900  1.0000
  N   N3        1.0  0.51469  0.48531  0.26100  1.0000
  N   N4        1.0  0.98531  0.01469  0.26100  1.0000
  N   N5        1.0  0.48531  0.98531  0.76100  1.0000
  N   N6        1.0  0.01469  0.51469  0.76100  1.0000
  N   N7        1.0  0.01469  0.98531  0.73900  1.0000
  N   N8        1.0  0.48531  0.51469  0.73900  1.0000
  N   N9        1.0  0.44746  0.08341  0.26812  1.0000
  N   N10       1.0  0.05254  0.41659  0.26812  1.0000
  N   N11       1.0  0.44746  0.41659  0.23188  1.0000
  N   N12       1.0  0.05254  0.08341  0.23188  1.0000
  N   N13       1.0  0.41659  0.05254  0.73188  1.0000
  N   N14       1.0  0.08341  0.44746  0.73188  1.0000
  N   N15       1.0  0.08341  0.05254  0.76812  1.0000
  N   N16       1.0  0.41659  0.44746  0.76812  1.0000
  N   N17       1.0  0.55254  0.91659  0.73188  1.0000
  N   N18       1.0  0.94746  0.58341  0.73188  1.0000
  N   N19       1.0  0.55254  0.58341  0.76812  1.0000
  N   N20       1.0  0.94746  0.91659  0.76812  1.0000
  N   N21       1.0  0.58341  0.94746  0.26812  1.0000
  N   N22       1.0  0.91659  0.55254  0.26812  1.0000
  N   N23       1.0  0.91659  0.94746  0.23188  1.0000
  N   N24       1.0  0.58341  0.55254  0.23188  1.0000
  H   H1        1.0  0.42780  0.10100  0.30850  1.0000
  H   H2        1.0  0.07220  0.39900  0.30850  1.0000
  H   H3        1.0  0.42780  0.39900  0.19150  1.0000
  H   H4        1.0  0.07220  0.10100  0.19150  1.0000
  H   H5        1.0  0.39900  0.07220  0.69150  1.0000
  H   H6        1.0  0.10100  0.42780  0.69150  1.0000
  H   H7        1.0  0.10100  0.07220  0.80850  1.0000
  H   H8        1.0  0.39900  0.42780  0.80850  1.0000
  H   H9        1.0  0.57220  0.89900  0.69150  1.0000
  H   H10       1.0  0.92780  0.60100  0.69150  1.0000
  H   H11       1.0  0.57220  0.60100  0.80850  1.0000
  H   H12       1.0  0.92780  0.89900  0.80850  1.0000
  H   H13       1.0  0.60100  0.92780  0.30850  1.0000
  H   H14       1.0  0.89900  0.57220  0.30850  1.0000
  H   H15       1.0  0.89900  0.92780  0.19150  1.0000
  H   H16       1.0  0.60100  0.57220  0.19150  1.0000
  H   H17       1.0  0.44630  0.09230  0.20940  1.0000
  H   H18       1.0  0.05370  0.40770  0.20940  1.0000
  H   H19       1.0  0.44630  0.40770  0.29060  1.0000
  H   H20       1.0  0.05370  0.09230  0.29060  1.0000
  H   H21       1.0  0.40770  0.05370  0.79060  1.0000
  H   H22       1.0  0.09230  0.44630  0.79060  1.0000
  H   H23       1.0  0.09230  0.05370  0.70940  1.0000
  H   H24       1.0  0.40770  0.44630  0.70940  1.0000
  H   H25       1.0  0.55370  0.90770  0.79060  1.0000
  H   H26       1.0  0.94630  0.59230  0.79060  1.0000
  H   H27       1.0  0.55370  0.59230  0.70940  1.0000
  H   H28       1.0  0.94630  0.90770  0.70940  1.0000
  H   H29       1.0  0.59230  0.94630  0.20940  1.0000
  H   H30       1.0  0.90770  0.55370  0.20940  1.0000
  H   H31       1.0  0.90770  0.94630  0.29060  1.0000
  H   H32       1.0  0.59230  0.55370  0.29060  1.0000
  N   N25       1.0  0.48428  0.02529  0.38645  1.0000
  N   N26       1.0  0.01572  0.47471  0.38645  1.0000
  N   N27       1.0  0.48428  0.47471  0.11355  1.0000
  N   N28       1.0  0.01572  0.02529  0.11355  1.0000
  N   N29       1.0  0.47471  0.01572  0.61355  1.0000
  N   N30       1.0  0.02529  0.48428  0.61355  1.0000
  N   N31       1.0  0.02529  0.01572  0.88645  1.0000
  N   N32       1.0  0.47471  0.48428  0.88645  1.0000
  N   N33       1.0  0.51572  0.97471  0.61355  1.0000
  N   N34       1.0  0.98428  0.52529  0.61355  1.0000
  N   N35       1.0  0.51572  0.52529  0.88645  1.0000
  N   N36       1.0  0.98428  0.97471  0.88645  1.0000
  N   N37       1.0  0.52529  0.98428  0.38645  1.0000
  N   N38       1.0  0.97471  0.51572  0.38645  1.0000
  N   N39       1.0  0.97471  0.98428  0.11355  1.0000
  N   N40       1.0  0.52529  0.51572  0.11355  1.0000
  O   O1        1.0  0.36826  0.03444  0.50735  1.0000
  O   O2        1.0  0.13174  0.46556  0.50735  1.0000
  O   O3        1.0  0.36826  0.46556  0.99265  1.0000
  O   O4        1.0  0.13174  0.03444  0.99265  1.0000
  O   O5        1.0  0.46556  0.13174  0.49265  1.0000
  O   O6        1.0  0.03444  0.36826  0.49265  1.0000
  O   O7        1.0  0.03444  0.13174  0.00735  1.0000
  O   O8        1.0  0.46556  0.36826  0.00735  1.0000
  O   O9        1.0  0.63174  0.96556  0.49265  1.0000
  O   O10       1.0  0.86826  0.53444  0.49265  1.0000
  O   O11       1.0  0.63174  0.53444  0.00735  1.0000
  O   O12       1.0  0.86826  0.96556  0.00735  1.0000
  O   O13       1.0  0.53444  0.86826  0.50735  1.0000
  O   O14       1.0  0.96556  0.63174  0.50735  1.0000
  O   O15       1.0  0.96556  0.86826  0.99265  1.0000
  O   O16       1.0  0.53444  0.63174  0.99265  1.0000
  O   O17       1.0  0.08821  0.99572  0.56421  1.0000
  O   O18       1.0  0.41179  0.50428  0.56421  1.0000
  O   O19       1.0  0.08821  0.50428  0.93579  1.0000
  O   O20       1.0  0.41179  0.99572  0.93579  1.0000
  O   O21       1.0  0.50428  0.41179  0.43579  1.0000
  O   O22       1.0  0.99572  0.08821  0.43579  1.0000
  O   O23       1.0  0.99572  0.41179  0.06421  1.0000
  O   O24       1.0  0.50428  0.08821  0.06421  1.0000
  O   O25       1.0  0.91179  0.00428  0.43579  1.0000
  O   O26       1.0  0.58821  0.49572  0.43579  1.0000
  O   O27       1.0  0.91179  0.49572  0.06421  1.0000
  O   O28       1.0  0.58821  0.00428  0.06421  1.0000
  O   O29       1.0  0.49572  0.58821  0.56421  1.0000
  O   O30       1.0  0.00428  0.91179  0.56421  1.0000
  O   O31       1.0  0.00428  0.58821  0.93579  1.0000
  O   O32       1.0  0.49572  0.91179  0.93579  1.0000
  O   O33       1.0  0.07570  0.00962  0.41037  1.0000
  O   O34       1.0  0.42430  0.49038  0.41037  1.0000
  O   O35       1.0  0.07570  0.49038  0.08963  1.0000
  O   O36       1.0  0.42430  0.00962  0.08963  1.0000
  O   O37       1.0  0.49038  0.42430  0.58963  1.0000
  O   O38       1.0  0.00962  0.07570  0.58963  1.0000
  O   O39       1.0  0.00962  0.42430  0.91037  1.0000
  O   O40       1.0  0.49038  0.07570  0.91037  1.0000
  O   O41       1.0  0.92430  0.99038  0.58963  1.0000
  O   O42       1.0  0.57570  0.50962  0.58963  1.0000
  O   O43       1.0  0.92430  0.50962  0.91037  1.0000
  O   O44       1.0  0.57570  0.99038  0.91037  1.0000
  O   O45       1.0  0.50962  0.57570  0.41037  1.0000
  O   O46       1.0  0.99038  0.92430  0.41037  1.0000
  O   O47       1.0  0.99038  0.57570  0.08963  1.0000
  O   O48       1.0  0.50962  0.92430  0.08963  1.0000
  O   O49       1.0  0.35172  0.08789  0.38429  1.0000
  O   O50       1.0  0.14828  0.41211  0.38429  1.0000
  O   O51       1.0  0.35172  0.41211  0.11571  1.0000
  O   O52       1.0  0.14828  0.08789  0.11571  1.0000
  O   O53       1.0  0.41211  0.14828  0.61571  1.0000
  O   O54       1.0  0.08789  0.35172  0.61571  1.0000
  O   O55       1.0  0.08789  0.14828  0.88429  1.0000
  O   O56       1.0  0.41211  0.35172  0.88429  1.0000
  O   O57       1.0  0.64828  0.91211  0.61571  1.0000
  O   O58       1.0  0.85172  0.58789  0.61571  1.0000
  O   O59       1.0  0.64828  0.58789  0.88429  1.0000
  O   O60       1.0  0.85172  0.91211  0.88429  1.0000
  O   O61       1.0  0.58789  0.85172  0.38429  1.0000
  O   O62       1.0  0.91211  0.64828  0.38429  1.0000
  O   O63       1.0  0.91211  0.85172  0.11571  1.0000
  O   O64       1.0  0.58789  0.64828  0.11571  1.0000
  C   C1        1.0  0.48032  0.04145  0.29713  1.0000
  C   C2        1.0  0.01968  0.45855  0.29713  1.0000
  C   C3        1.0  0.48032  0.45855  0.20287  1.0000
  C   C4        1.0  0.01968  0.04145  0.20287  1.0000
  C   C5        1.0  0.45855  0.01968  0.70287  1.0000
  C   C6        1.0  0.04145  0.48032  0.70287  1.0000
  C   C7        1.0  0.04145  0.01968  0.79713  1.0000
  C   C8        1.0  0.45855  0.48032  0.79713  1.0000
  C   C9        1.0  0.51968  0.95855  0.70287  1.0000
  C   C10       1.0  0.98032  0.54145  0.70287  1.0000
  C   C11       1.0  0.51968  0.54145  0.79713  1.0000
  C   C12       1.0  0.98032  0.95855  0.79713  1.0000
  C   C13       1.0  0.54145  0.98032  0.29713  1.0000
  C   C14       1.0  0.95855  0.51968  0.29713  1.0000
  C   C15       1.0  0.95855  0.98032  0.20287  1.0000
  C   C16       1.0  0.54145  0.51968  0.20287  1.0000
  C   C17       1.0  0.16527  0.01801  0.47290  1.0000
  C   C18       1.0  0.33473  0.48199  0.47290  1.0000
  C   C19       1.0  0.16527  0.48199  0.02710  1.0000
  C   C20       1.0  0.33473  0.01801  0.02710  1.0000
  C   C21       1.0  0.48199  0.33473  0.52710  1.0000
  C   C22       1.0  0.01801  0.16527  0.52710  1.0000
  C   C23       1.0  0.01801  0.33473  0.97290  1.0000
  C   C24       1.0  0.48199  0.16527  0.97290  1.0000
  C   C25       1.0  0.83473  0.98199  0.52710  1.0000
  C   C26       1.0  0.66527  0.51801  0.52710  1.0000
  C   C27       1.0  0.83473  0.51801  0.97290  1.0000
  C   C28       1.0  0.66527  0.98199  0.97290  1.0000
  C   C29       1.0  0.51801  0.66527  0.47290  1.0000
  C   C30       1.0  0.98199  0.83473  0.47290  1.0000
  C   C31       1.0  0.98199  0.66527  0.02710  1.0000
  C   C32       1.0  0.51801  0.83473  0.02710  1.0000
  C   C33       1.0  0.27665  0.04259  0.45620  1.0000
  C   C34       1.0  0.22335  0.45741  0.45620  1.0000
  C   C35       1.0  0.27665  0.45741  0.04380  1.0000
  C   C36       1.0  0.22335  0.04259  0.04380  1.0000
  C   C37       1.0  0.45741  0.22335  0.54380  1.0000
  C   C38       1.0  0.04259  0.27665  0.54380  1.0000
  C   C39       1.0  0.04259  0.22335  0.95620  1.0000
  C   C40       1.0  0.45741  0.27665  0.95620  1.0000
  C   C41       1.0  0.72335  0.95741  0.54380  1.0000
  C   C42       1.0  0.77665  0.54259  0.54380  1.0000
  C   C43       1.0  0.72335  0.54259  0.95620  1.0000
  C   C44       1.0  0.77665  0.95741  0.95620  1.0000
  C   C45       1.0  0.54259  0.77665  0.45620  1.0000
  C   C46       1.0  0.95741  0.72335  0.45620  1.0000
  C   C47       1.0  0.95741  0.77665  0.04380  1.0000
  C   C48       1.0  0.54259  0.72335  0.04380  1.0000
  C   C49       1.0  0.33620  0.05721  0.44780  1.0000
  C   C50       1.0  0.16380  0.44279  0.44780  1.0000
  C   C51       1.0  0.33620  0.44279  0.05220  1.0000
  C   C52       1.0  0.16380  0.05721  0.05220  1.0000
  C   C53       1.0  0.44279  0.16380  0.55220  1.0000
  C   C54       1.0  0.05721  0.33620  0.55220  1.0000
  C   C55       1.0  0.05721  0.16380  0.94780  1.0000
  C   C56       1.0  0.44279  0.33620  0.94780  1.0000
  C   C57       1.0  0.66380  0.94279  0.55220  1.0000
  C   C58       1.0  0.83620  0.55721  0.55220  1.0000
  C   C59       1.0  0.66380  0.55721  0.94780  1.0000
  C   C60       1.0  0.83620  0.94279  0.94780  1.0000
  C   C61       1.0  0.55721  0.83620  0.44780  1.0000
  C   C62       1.0  0.94279  0.66380  0.44780  1.0000
  C   C63       1.0  0.94279  0.83620  0.05220  1.0000
  C   C64       1.0  0.55721  0.66380  0.05220  1.0000
  C   C65       1.0  0.10553  0.00705  0.48370  1.0000
  C   C66       1.0  0.39447  0.49295  0.48370  1.0000
  C   C67       1.0  0.10553  0.49295  0.01630  1.0000
  C   C68       1.0  0.39447  0.00705  0.01630  1.0000
  C   C69       1.0  0.49295  0.39447  0.51630  1.0000
  C   C70       1.0  0.00705  0.10553  0.51630  1.0000
  C   C71       1.0  0.00705  0.39447  0.98370  1.0000
  C   C72       1.0  0.49295  0.10553  0.98370  1.0000
  C   C73       1.0  0.89447  0.99295  0.51630  1.0000
  C   C74       1.0  0.60553  0.50705  0.51630  1.0000
  C   C75       1.0  0.89447  0.50705  0.98370  1.0000
  C   C76       1.0  0.60553  0.99295  0.98370  1.0000
  C   C77       1.0  0.50705  0.60553  0.48370  1.0000
  C   C78       1.0  0.99295  0.89447  0.48370  1.0000
  C   C79       1.0  0.99295  0.60553  0.01630  1.0000
  C   C80       1.0  0.50705  0.89447  0.01630  1.0000
  C   C81       1.0  0.18629  0.04066  0.39120  1.0000
  C   C82       1.0  0.31371  0.45934  0.39120  1.0000
  C   C83       1.0  0.18629  0.45934  0.10880  1.0000
  C   C84       1.0  0.31371  0.04066  0.10880  1.0000
  C   C85       1.0  0.45934  0.31371  0.60880  1.0000
  C   C86       1.0  0.04066  0.18629  0.60880  1.0000
  C   C87       1.0  0.04066  0.31371  0.89120  1.0000
  C   C88       1.0  0.45934  0.18629  0.89120  1.0000
  C   C89       1.0  0.81371  0.95934  0.60880  1.0000
  C   C90       1.0  0.68629  0.54066  0.60880  1.0000
  C   C91       1.0  0.81371  0.54066  0.89120  1.0000
  C   C92       1.0  0.68629  0.95934  0.89120  1.0000
  C   C93       1.0  0.54066  0.68629  0.39120  1.0000
  C   C94       1.0  0.95934  0.81371  0.39120  1.0000
  C   C95       1.0  0.95934  0.68629  0.10880  1.0000
  C   C96       1.0  0.54066  0.81371  0.10880  1.0000
  H   H33       1.0  0.16300  0.04720  0.34040  1.0000
  H   H34       1.0  0.33700  0.45280  0.34040  1.0000
  H   H35       1.0  0.16300  0.45280  0.15960  1.0000
  H   H36       1.0  0.33700  0.04720  0.15960  1.0000
  H   H37       1.0  0.45280  0.33700  0.65960  1.0000
  H   H38       1.0  0.04720  0.16300  0.65960  1.0000
  H   H39       1.0  0.04720  0.33700  0.84040  1.0000
  H   H40       1.0  0.45280  0.16300  0.84040  1.0000
  H   H41       1.0  0.83700  0.95280  0.65960  1.0000
  H   H42       1.0  0.66300  0.54720  0.65960  1.0000
  H   H43       1.0  0.83700  0.54720  0.84040  1.0000
  H   H44       1.0  0.66300  0.95280  0.84040  1.0000
  H   H45       1.0  0.54720  0.66300  0.34040  1.0000
  H   H46       1.0  0.95280  0.83700  0.34040  1.0000
  H   H47       1.0  0.95280  0.66300  0.15960  1.0000
  H   H48       1.0  0.54720  0.83700  0.15960  1.0000
  C   C97       1.0  0.24076  0.05361  0.38370  1.0000
  C   C98       1.0  0.25924  0.44639  0.38370  1.0000
  C   C99       1.0  0.24076  0.44639  0.11630  1.0000
  C   C100      1.0  0.25924  0.05361  0.11630  1.0000
  C   C101      1.0  0.44639  0.25924  0.61630  1.0000
  C   C102      1.0  0.05361  0.24076  0.61630  1.0000
  C   C103      1.0  0.05361  0.25924  0.88370  1.0000
  C   C104      1.0  0.44639  0.24076  0.88370  1.0000
  C   C105      1.0  0.75924  0.94639  0.61630  1.0000
  C   C106      1.0  0.74076  0.55361  0.61630  1.0000
  C   C107      1.0  0.75924  0.55361  0.88370  1.0000
  C   C108      1.0  0.74076  0.94639  0.88370  1.0000
  C   C109      1.0  0.55361  0.74076  0.38370  1.0000
  C   C110      1.0  0.94639  0.75924  0.38370  1.0000
  C   C111      1.0  0.94639  0.74076  0.11630  1.0000
  C   C112      1.0  0.55361  0.75924  0.11630  1.0000
  H   H49       1.0  0.25370  0.07010  0.32880  1.0000
  H   H50       1.0  0.24630  0.42990  0.32880  1.0000
  H   H51       1.0  0.25370  0.42990  0.17120  1.0000
  H   H52       1.0  0.24630  0.07010  0.17120  1.0000
  H   H53       1.0  0.42990  0.24630  0.67120  1.0000
  H   H54       1.0  0.07010  0.25370  0.67120  1.0000
  H   H55       1.0  0.07010  0.24630  0.82880  1.0000
  H   H56       1.0  0.42990  0.25370  0.82880  1.0000
  H   H57       1.0  0.74630  0.92990  0.67120  1.0000
  H   H58       1.0  0.75370  0.57010  0.67120  1.0000
  H   H59       1.0  0.74630  0.57010  0.82880  1.0000
  H   H60       1.0  0.75370  0.92990  0.82880  1.0000
  H   H61       1.0  0.57010  0.75370  0.32880  1.0000
  H   H62       1.0  0.92990  0.74630  0.32880  1.0000
  H   H63       1.0  0.92990  0.75370  0.17120  1.0000
  H   H64       1.0  0.57010  0.74630  0.17120  1.0000
  C   C113      1.0  0.25596  0.01999  0.53860  1.0000
  C   C114      1.0  0.24404  0.48001  0.53860  1.0000
  C   C115      1.0  0.25596  0.48001  0.96140  1.0000
  C   C116      1.0  0.24404  0.01999  0.96140  1.0000
  C   C117      1.0  0.48001  0.24404  0.46140  1.0000
  C   C118      1.0  0.01999  0.25596  0.46140  1.0000
  C   C119      1.0  0.01999  0.24404  0.03860  1.0000
  C   C120      1.0  0.48001  0.25596  0.03860  1.0000
  C   C121      1.0  0.74404  0.98001  0.46140  1.0000
  C   C122      1.0  0.75596  0.51999  0.46140  1.0000
  C   C123      1.0  0.74404  0.51999  0.03860  1.0000
  C   C124      1.0  0.75596  0.98001  0.03860  1.0000
  C   C125      1.0  0.51999  0.75596  0.53860  1.0000
  C   C126      1.0  0.98001  0.74404  0.53860  1.0000
  C   C127      1.0  0.98001  0.75596  0.96140  1.0000
  C   C128      1.0  0.51999  0.74404  0.96140  1.0000
  H   H65       1.0  0.27940  0.01270  0.58890  1.0000
  H   H66       1.0  0.22060  0.48730  0.58890  1.0000
  H   H67       1.0  0.27940  0.48730  0.91110  1.0000
  H   H68       1.0  0.22060  0.01270  0.91110  1.0000
  H   H69       1.0  0.48730  0.22060  0.41110  1.0000
  H   H70       1.0  0.01270  0.27940  0.41110  1.0000
  H   H71       1.0  0.01270  0.22060  0.08890  1.0000
  H   H72       1.0  0.48730  0.27940  0.08890  1.0000
  H   H73       1.0  0.72060  0.98730  0.41110  1.0000
  H   H74       1.0  0.77940  0.51270  0.41110  1.0000
  H   H75       1.0  0.72060  0.51270  0.08890  1.0000
  H   H76       1.0  0.77940  0.98730  0.08890  1.0000
  H   H77       1.0  0.51270  0.77940  0.58890  1.0000
  H   H78       1.0  0.98730  0.72060  0.58890  1.0000
  H   H79       1.0  0.98730  0.77940  0.91110  1.0000
  H   H80       1.0  0.51270  0.72060  0.91110  1.0000
  C   C129      1.0  0.20059  0.00820  0.54640  1.0000
  C   C130      1.0  0.29941  0.49180  0.54640  1.0000
  C   C131      1.0  0.20059  0.49180  0.95360  1.0000
  C   C132      1.0  0.29941  0.00820  0.95360  1.0000
  C   C133      1.0  0.49180  0.29941  0.45360  1.0000
  C   C134      1.0  0.00820  0.20059  0.45360  1.0000
  C   C135      1.0  0.00820  0.29941  0.04640  1.0000
  C   C136      1.0  0.49180  0.20059  0.04640  1.0000
  C   C137      1.0  0.79941  0.99180  0.45360  1.0000
  C   C138      1.0  0.70059  0.50820  0.45360  1.0000
  C   C139      1.0  0.79941  0.50820  0.04640  1.0000
  C   C140      1.0  0.70059  0.99180  0.04640  1.0000
  C   C141      1.0  0.50820  0.70059  0.54640  1.0000
  C   C142      1.0  0.99180  0.79941  0.54640  1.0000
  C   C143      1.0  0.99180  0.70059  0.95360  1.0000
  C   C144      1.0  0.50820  0.79941  0.95360  1.0000
  H   H81       1.0  0.18710  0.99340  0.60230  1.0000
  H   H82       1.0  0.31290  0.50660  0.60230  1.0000
  H   H83       1.0  0.18710  0.50660  0.89770  1.0000
  H   H84       1.0  0.31290  0.99340  0.89770  1.0000
  H   H85       1.0  0.50660  0.31290  0.39770  1.0000
  H   H86       1.0  0.99340  0.18710  0.39770  1.0000
  H   H87       1.0  0.99340  0.31290  0.10230  1.0000
  H   H88       1.0  0.50660  0.18710  0.10230  1.0000
  H   H89       1.0  0.81290  0.00660  0.39770  1.0000
  H   H90       1.0  0.68710  0.49340  0.39770  1.0000
  H   H91       1.0  0.81290  0.49340  0.10230  1.0000
  H   H92       1.0  0.68710  0.00660  0.10230  1.0000
  H   H93       1.0  0.49340  0.68710  0.60230  1.0000
  H   H94       1.0  0.00660  0.81290  0.60230  1.0000
  H   H95       1.0  0.00660  0.68710  0.89770  1.0000
  H   H96       1.0  0.49340  0.81290  0.89770  1.0000
