data_image0
_chemical_formula_structural       Co16N16H32N24O16C48O32C16O16C32H16C32H16C16H16N16H32
_chemical_formula_sum              "Co16 N56 H112 O64 C144"
_cell_length_a       24.409
_cell_length_b       24.409
_cell_length_c       14.139
_cell_angle_alpha    90
_cell_angle_beta     90
_cell_angle_gamma    90

_space_group_name_H-M_alt    "P 1"
_space_group_IT_number       1

loop_
  _space_group_symop_operation_xyz
  'x, y, z'

loop_
  _atom_site_type_symbol
  _atom_site_label
  _atom_site_symmetry_multiplicity
  _atom_site_fract_x
  _atom_site_fract_y
  _atom_site_fract_z
  _atom_site_occupancy
  Co  Co1       1.0  0.44563  0.44563  0.00000  1.0000
  Co  Co2       1.0  0.05437  0.05437  0.00000  1.0000
  Co  Co3       1.0  0.44563  0.05437  0.50000  1.0000
  Co  Co4       1.0  0.05437  0.44563  0.50000  1.0000
  Co  Co5       1.0  0.55437  0.55437  0.00000  1.0000
  Co  Co6       1.0  0.94563  0.94563  0.00000  1.0000
  Co  Co7       1.0  0.55437  0.94563  0.50000  1.0000
  Co  Co8       1.0  0.94563  0.55437  0.50000  1.0000
  Co  Co9       1.0  0.50672  0.49328  0.40372  1.0000
  Co  Co10      1.0  0.99328  0.00672  0.40372  1.0000
  Co  Co11      1.0  0.50672  0.00672  0.09628  1.0000
  Co  Co12      1.0  0.99328  0.49328  0.09628  1.0000
  Co  Co13      1.0  0.00672  0.99328  0.59628  1.0000
  Co  Co14      1.0  0.49328  0.50672  0.59628  1.0000
  Co  Co15      1.0  0.49328  0.99328  0.90372  1.0000
  Co  Co16      1.0  0.00672  0.50672  0.90372  1.0000
  N   N1        1.0  0.44717  0.41660  0.23174  1.0000
  N   N2        1.0  0.05283  0.08340  0.23174  1.0000
  N   N3        1.0  0.44717  0.08340  0.26826  1.0000
  N   N4        1.0  0.05283  0.41660  0.26826  1.0000
  N   N5        1.0  0.08340  0.05283  0.76826  1.0000
  N   N6        1.0  0.41660  0.44717  0.76826  1.0000
  N   N7        1.0  0.41660  0.05283  0.73174  1.0000
  N   N8        1.0  0.08340  0.44717  0.73174  1.0000
  N   N9        1.0  0.55283  0.58340  0.76826  1.0000
  N   N10       1.0  0.94717  0.91660  0.76826  1.0000
  N   N11       1.0  0.55283  0.91660  0.73174  1.0000
  N   N12       1.0  0.94717  0.58340  0.73174  1.0000
  N   N13       1.0  0.91660  0.94717  0.23174  1.0000
  N   N14       1.0  0.58340  0.55283  0.23174  1.0000
  N   N15       1.0  0.58340  0.94717  0.26826  1.0000
  N   N16       1.0  0.91660  0.55283  0.26826  1.0000
  H   H1        1.0  0.42750  0.39910  0.19130  1.0000
  H   H2        1.0  0.07250  0.10090  0.19130  1.0000
  H   H3        1.0  0.42750  0.10090  0.30870  1.0000
  H   H4        1.0  0.07250  0.39910  0.30870  1.0000
  H   H5        1.0  0.10090  0.07250  0.80870  1.0000
  H   H6        1.0  0.39910  0.42750  0.80870  1.0000
  H   H7        1.0  0.39910  0.07250  0.69130  1.0000
  H   H8        1.0  0.10090  0.42750  0.69130  1.0000
  H   H9        1.0  0.57250  0.60090  0.80870  1.0000
  H   H10       1.0  0.92750  0.89910  0.80870  1.0000
  H   H11       1.0  0.57250  0.89910  0.69130  1.0000
  H   H12       1.0  0.92750  0.60090  0.69130  1.0000
  H   H13       1.0  0.89910  0.92750  0.19130  1.0000
  H   H14       1.0  0.60090  0.57250  0.19130  1.0000
  H   H15       1.0  0.60090  0.92750  0.30870  1.0000
  H   H16       1.0  0.89910  0.57250  0.30870  1.0000
  H   H17       1.0  0.44620  0.40750  0.29050  1.0000
  H   H18       1.0  0.05380  0.09250  0.29050  1.0000
  H   H19       1.0  0.44620  0.09250  0.20950  1.0000
  H   H20       1.0  0.05380  0.40750  0.20950  1.0000
  H   H21       1.0  0.09250  0.05380  0.70950  1.0000
  H   H22       1.0  0.40750  0.44620  0.70950  1.0000
  H   H23       1.0  0.40750  0.05380  0.79050  1.0000
  H   H24       1.0  0.09250  0.44620  0.79050  1.0000
  H   H25       1.0  0.55380  0.59250  0.70950  1.0000
  H   H26       1.0  0.94620  0.90750  0.70950  1.0000
  H   H27       1.0  0.55380  0.90750  0.79050  1.0000
  H   H28       1.0  0.94620  0.59250  0.79050  1.0000
  H   H29       1.0  0.90750  0.94620  0.29050  1.0000
  H   H30       1.0  0.59250  0.55380  0.29050  1.0000
  H   H31       1.0  0.59250  0.94620  0.20950  1.0000
  H   H32       1.0  0.90750  0.55380  0.20950  1.0000
  N   N17       1.0  0.51429  0.48571  0.26189  1.0000
  N   N18       1.0  0.98571  0.01429  0.26189  1.0000
  N   N19       1.0  0.51429  0.01429  0.23811  1.0000
  N   N20       1.0  0.98571  0.48571  0.23811  1.0000
  N   N21       1.0  0.01429  0.98571  0.73811  1.0000
  N   N22       1.0  0.48571  0.51429  0.73811  1.0000
  N   N23       1.0  0.48571  0.98571  0.76189  1.0000
  N   N24       1.0  0.01429  0.51429  0.76189  1.0000
  N   N25       1.0  0.48379  0.47527  0.11371  1.0000
  N   N26       1.0  0.01621  0.02473  0.11371  1.0000
  N   N27       1.0  0.48379  0.02473  0.38629  1.0000
  N   N28       1.0  0.01621  0.47527  0.38629  1.0000
  N   N29       1.0  0.02473  0.01621  0.88629  1.0000
  N   N30       1.0  0.47527  0.48379  0.88629  1.0000
  N   N31       1.0  0.47527  0.01621  0.61371  1.0000
  N   N32       1.0  0.02473  0.48379  0.61371  1.0000
  N   N33       1.0  0.51621  0.52473  0.88629  1.0000
  N   N34       1.0  0.98379  0.97527  0.88629  1.0000
  N   N35       1.0  0.51621  0.97527  0.61371  1.0000
  N   N36       1.0  0.98379  0.52473  0.61371  1.0000
  N   N37       1.0  0.97527  0.98379  0.11371  1.0000
  N   N38       1.0  0.52473  0.51621  0.11371  1.0000
  N   N39       1.0  0.52473  0.98379  0.38629  1.0000
  N   N40       1.0  0.97527  0.51621  0.38629  1.0000
  O   O1        1.0  0.36878  0.46485  0.98986  1.0000
  O   O2        1.0  0.13122  0.03515  0.98986  1.0000
  O   O3        1.0  0.36878  0.03515  0.51014  1.0000
  O   O4        1.0  0.13122  0.46485  0.51014  1.0000
  O   O5        1.0  0.03515  0.13122  0.01014  1.0000
  O   O6        1.0  0.46485  0.36878  0.01014  1.0000
  O   O7        1.0  0.46485  0.13122  0.48986  1.0000
  O   O8        1.0  0.03515  0.36878  0.48986  1.0000
  O   O9        1.0  0.63122  0.53515  0.01014  1.0000
  O   O10       1.0  0.86878  0.96485  0.01014  1.0000
  O   O11       1.0  0.63122  0.96485  0.48986  1.0000
  O   O12       1.0  0.86878  0.53515  0.48986  1.0000
  O   O13       1.0  0.96485  0.86878  0.98986  1.0000
  O   O14       1.0  0.53515  0.63122  0.98986  1.0000
  O   O15       1.0  0.53515  0.86878  0.51014  1.0000
  O   O16       1.0  0.96485  0.63122  0.51014  1.0000
  C   C1        1.0  0.16512  0.48290  0.02615  1.0000
  C   C2        1.0  0.33488  0.01710  0.02615  1.0000
  C   C3        1.0  0.16512  0.01710  0.47385  1.0000
  C   C4        1.0  0.33488  0.48290  0.47385  1.0000
  C   C5        1.0  0.01710  0.33488  0.97385  1.0000
  C   C6        1.0  0.48290  0.16512  0.97385  1.0000
  C   C7        1.0  0.48290  0.33488  0.52615  1.0000
  C   C8        1.0  0.01710  0.16512  0.52615  1.0000
  C   C9        1.0  0.83488  0.51710  0.97385  1.0000
  C   C10       1.0  0.66512  0.98290  0.97385  1.0000
  C   C11       1.0  0.83488  0.98290  0.52615  1.0000
  C   C12       1.0  0.66512  0.51710  0.52615  1.0000
  C   C13       1.0  0.98290  0.66512  0.02615  1.0000
  C   C14       1.0  0.51710  0.83488  0.02615  1.0000
  C   C15       1.0  0.51710  0.66512  0.47385  1.0000
  C   C16       1.0  0.98290  0.83488  0.47385  1.0000
  C   C17       1.0  0.27671  0.45886  0.03970  1.0000
  C   C18       1.0  0.22329  0.04114  0.03970  1.0000
  C   C19       1.0  0.27671  0.04114  0.46030  1.0000
  C   C20       1.0  0.22329  0.45886  0.46030  1.0000
  C   C21       1.0  0.04114  0.22329  0.96030  1.0000
  C   C22       1.0  0.45886  0.27671  0.96030  1.0000
  C   C23       1.0  0.45886  0.22329  0.53970  1.0000
  C   C24       1.0  0.04114  0.27671  0.53970  1.0000
  C   C25       1.0  0.72329  0.54114  0.96030  1.0000
  C   C26       1.0  0.77671  0.95886  0.96030  1.0000
  C   C27       1.0  0.72329  0.95886  0.53970  1.0000
  C   C28       1.0  0.77671  0.54114  0.53970  1.0000
  C   C29       1.0  0.95886  0.77671  0.03970  1.0000
  C   C30       1.0  0.54114  0.72329  0.03970  1.0000
  C   C31       1.0  0.54114  0.77671  0.46030  1.0000
  C   C32       1.0  0.95886  0.72329  0.46030  1.0000
  C   C33       1.0  0.47987  0.45866  0.20277  1.0000
  C   C34       1.0  0.02013  0.04134  0.20277  1.0000
  C   C35       1.0  0.47987  0.04134  0.29723  1.0000
  C   C36       1.0  0.02013  0.45866  0.29723  1.0000
  C   C37       1.0  0.04134  0.02013  0.79723  1.0000
  C   C38       1.0  0.45866  0.47987  0.79723  1.0000
  C   C39       1.0  0.45866  0.02013  0.70277  1.0000
  C   C40       1.0  0.04134  0.47987  0.70277  1.0000
  C   C41       1.0  0.52013  0.54134  0.79723  1.0000
  C   C42       1.0  0.97987  0.95866  0.79723  1.0000
  C   C43       1.0  0.52013  0.95866  0.70277  1.0000
  C   C44       1.0  0.97987  0.54134  0.70277  1.0000
  C   C45       1.0  0.95866  0.97987  0.20277  1.0000
  C   C46       1.0  0.54134  0.52013  0.20277  1.0000
  C   C47       1.0  0.54134  0.97987  0.29723  1.0000
  C   C48       1.0  0.95866  0.52013  0.29723  1.0000
  O   O17       1.0  0.07641  0.49130  0.09070  1.0000
  O   O18       1.0  0.42359  0.00870  0.09070  1.0000
  O   O19       1.0  0.07641  0.00870  0.40930  1.0000
  O   O20       1.0  0.42359  0.49130  0.40930  1.0000
  O   O21       1.0  0.00870  0.42359  0.90930  1.0000
  O   O22       1.0  0.49130  0.07641  0.90930  1.0000
  O   O23       1.0  0.49130  0.42359  0.59070  1.0000
  O   O24       1.0  0.00870  0.07641  0.59070  1.0000
  O   O25       1.0  0.92359  0.50870  0.90930  1.0000
  O   O26       1.0  0.57641  0.99130  0.90930  1.0000
  O   O27       1.0  0.92359  0.99130  0.59070  1.0000
  O   O28       1.0  0.57641  0.50870  0.59070  1.0000
  O   O29       1.0  0.99130  0.57641  0.09070  1.0000
  O   O30       1.0  0.50870  0.92359  0.09070  1.0000
  O   O31       1.0  0.50870  0.57641  0.40930  1.0000
  O   O32       1.0  0.99130  0.92359  0.40930  1.0000
  O   O33       1.0  0.08739  0.50374  0.93607  1.0000
  O   O34       1.0  0.41261  0.99626  0.93607  1.0000
  O   O35       1.0  0.08739  0.99626  0.56393  1.0000
  O   O36       1.0  0.41261  0.50374  0.56393  1.0000
  O   O37       1.0  0.99626  0.41261  0.06393  1.0000
  O   O38       1.0  0.50374  0.08739  0.06393  1.0000
  O   O39       1.0  0.50374  0.41261  0.43607  1.0000
  O   O40       1.0  0.99626  0.08739  0.43607  1.0000
  O   O41       1.0  0.91261  0.49626  0.06393  1.0000
  O   O42       1.0  0.58739  0.00374  0.06393  1.0000
  O   O43       1.0  0.91261  0.00374  0.43607  1.0000
  O   O44       1.0  0.58739  0.49626  0.43607  1.0000
  O   O45       1.0  0.00374  0.58739  0.93607  1.0000
  O   O46       1.0  0.49626  0.91261  0.93607  1.0000
  O   O47       1.0  0.49626  0.58739  0.56393  1.0000
  O   O48       1.0  0.00374  0.91261  0.56393  1.0000
  C   C49       1.0  0.10536  0.49362  0.01751  1.0000
  C   C50       1.0  0.39464  0.00638  0.01751  1.0000
  C   C51       1.0  0.10536  0.00638  0.48249  1.0000
  C   C52       1.0  0.39464  0.49362  0.48249  1.0000
  C   C53       1.0  0.00638  0.39464  0.98249  1.0000
  C   C54       1.0  0.49362  0.10536  0.98249  1.0000
  C   C55       1.0  0.49362  0.39464  0.51751  1.0000
  C   C56       1.0  0.00638  0.10536  0.51751  1.0000
  C   C57       1.0  0.89464  0.50638  0.98249  1.0000
  C   C58       1.0  0.60536  0.99362  0.98249  1.0000
  C   C59       1.0  0.89464  0.99362  0.51751  1.0000
  C   C60       1.0  0.60536  0.50638  0.51751  1.0000
  C   C61       1.0  0.99362  0.60536  0.01751  1.0000
  C   C62       1.0  0.50638  0.89464  0.01751  1.0000
  C   C63       1.0  0.50638  0.60536  0.48249  1.0000
  C   C64       1.0  0.99362  0.89464  0.48249  1.0000
  O   O49       1.0  0.35116  0.41562  0.11828  1.0000
  O   O50       1.0  0.14884  0.08438  0.11828  1.0000
  O   O51       1.0  0.35116  0.08438  0.38172  1.0000
  O   O52       1.0  0.14884  0.41562  0.38172  1.0000
  O   O53       1.0  0.08438  0.14884  0.88172  1.0000
  O   O54       1.0  0.41562  0.35116  0.88172  1.0000
  O   O55       1.0  0.41562  0.14884  0.61828  1.0000
  O   O56       1.0  0.08438  0.35116  0.61828  1.0000
  O   O57       1.0  0.64884  0.58438  0.88172  1.0000
  O   O58       1.0  0.85116  0.91562  0.88172  1.0000
  O   O59       1.0  0.64884  0.91562  0.61828  1.0000
  O   O60       1.0  0.85116  0.58438  0.61828  1.0000
  O   O61       1.0  0.91562  0.85116  0.11828  1.0000
  O   O62       1.0  0.58438  0.64884  0.11828  1.0000
  O   O63       1.0  0.58438  0.85116  0.38172  1.0000
  O   O64       1.0  0.91562  0.64884  0.38172  1.0000
  C   C65       1.0  0.33608  0.44471  0.05160  1.0000
  C   C66       1.0  0.16392  0.05529  0.05160  1.0000
  C   C67       1.0  0.33608  0.05529  0.44840  1.0000
  C   C68       1.0  0.16392  0.44471  0.44840  1.0000
  C   C69       1.0  0.05529  0.16392  0.94840  1.0000
  C   C70       1.0  0.44471  0.33608  0.94840  1.0000
  C   C71       1.0  0.44471  0.16392  0.55160  1.0000
  C   C72       1.0  0.05529  0.33608  0.55160  1.0000
  C   C73       1.0  0.66392  0.55529  0.94840  1.0000
  C   C74       1.0  0.83608  0.94471  0.94840  1.0000
  C   C75       1.0  0.66392  0.94471  0.55160  1.0000
  C   C76       1.0  0.83608  0.55529  0.55160  1.0000
  C   C77       1.0  0.94471  0.83608  0.05160  1.0000
  C   C78       1.0  0.55529  0.66392  0.05160  1.0000
  C   C79       1.0  0.55529  0.83608  0.44840  1.0000
  C   C80       1.0  0.94471  0.66392  0.44840  1.0000
  C   C81       1.0  0.18643  0.46083  0.10900  1.0000
  C   C82       1.0  0.31357  0.03917  0.10900  1.0000
  C   C83       1.0  0.18643  0.03917  0.39100  1.0000
  C   C84       1.0  0.31357  0.46083  0.39100  1.0000
  C   C85       1.0  0.03917  0.31357  0.89100  1.0000
  C   C86       1.0  0.46083  0.18643  0.89100  1.0000
  C   C87       1.0  0.46083  0.31357  0.60900  1.0000
  C   C88       1.0  0.03917  0.18643  0.60900  1.0000
  C   C89       1.0  0.81357  0.53917  0.89100  1.0000
  C   C90       1.0  0.68643  0.96083  0.89100  1.0000
  C   C91       1.0  0.81357  0.96083  0.60900  1.0000
  C   C92       1.0  0.68643  0.53917  0.60900  1.0000
  C   C93       1.0  0.96083  0.68643  0.10900  1.0000
  C   C94       1.0  0.53917  0.81357  0.10900  1.0000
  C   C95       1.0  0.53917  0.68643  0.39100  1.0000
  C   C96       1.0  0.96083  0.81357  0.39100  1.0000
  H   H33       1.0  0.16370  0.45460  0.16060  1.0000
  H   H34       1.0  0.33630  0.04540  0.16060  1.0000
  H   H35       1.0  0.16370  0.04540  0.33940  1.0000
  H   H36       1.0  0.33630  0.45460  0.33940  1.0000
  H   H37       1.0  0.04540  0.33630  0.83940  1.0000
  H   H38       1.0  0.45460  0.16370  0.83940  1.0000
  H   H39       1.0  0.45460  0.33630  0.66060  1.0000
  H   H40       1.0  0.04540  0.16370  0.66060  1.0000
  H   H41       1.0  0.83630  0.54540  0.83940  1.0000
  H   H42       1.0  0.66370  0.95460  0.83940  1.0000
  H   H43       1.0  0.83630  0.95460  0.66060  1.0000
  H   H44       1.0  0.66370  0.54540  0.66060  1.0000
  H   H45       1.0  0.95460  0.66370  0.16060  1.0000
  H   H46       1.0  0.54540  0.83630  0.16060  1.0000
  H   H47       1.0  0.54540  0.66370  0.33940  1.0000
  H   H48       1.0  0.95460  0.83630  0.33940  1.0000
  C   C97       1.0  0.25591  0.48160  0.95780  1.0000
  C   C98       1.0  0.24409  0.01840  0.95780  1.0000
  C   C99       1.0  0.25591  0.01840  0.54220  1.0000
  C   C100      1.0  0.24409  0.48160  0.54220  1.0000
  C   C101      1.0  0.01840  0.24409  0.04220  1.0000
  C   C102      1.0  0.48160  0.25591  0.04220  1.0000
  C   C103      1.0  0.48160  0.24409  0.45780  1.0000
  C   C104      1.0  0.01840  0.25591  0.45780  1.0000
  C   C105      1.0  0.74409  0.51840  0.04220  1.0000
  C   C106      1.0  0.75591  0.98160  0.04220  1.0000
  C   C107      1.0  0.74409  0.98160  0.45780  1.0000
  C   C108      1.0  0.75591  0.51840  0.45780  1.0000
  C   C109      1.0  0.98160  0.75591  0.95780  1.0000
  C   C110      1.0  0.51840  0.74409  0.95780  1.0000
  C   C111      1.0  0.51840  0.75591  0.54220  1.0000
  C   C112      1.0  0.98160  0.74409  0.54220  1.0000
  C   C113      1.0  0.19970  0.49260  0.95130  1.0000
  C   C114      1.0  0.30030  0.00740  0.95130  1.0000
  C   C115      1.0  0.19970  0.00740  0.54870  1.0000
  C   C116      1.0  0.30030  0.49260  0.54870  1.0000
  C   C117      1.0  0.00740  0.30030  0.04870  1.0000
  C   C118      1.0  0.49260  0.19970  0.04870  1.0000
  C   C119      1.0  0.49260  0.30030  0.45130  1.0000
  C   C120      1.0  0.00740  0.19970  0.45130  1.0000
  C   C121      1.0  0.80030  0.50740  0.04870  1.0000
  C   C122      1.0  0.69970  0.99260  0.04870  1.0000
  C   C123      1.0  0.80030  0.99260  0.45130  1.0000
  C   C124      1.0  0.69970  0.50740  0.45130  1.0000
  C   C125      1.0  0.99260  0.69970  0.95130  1.0000
  C   C126      1.0  0.50740  0.80030  0.95130  1.0000
  C   C127      1.0  0.50740  0.69970  0.54870  1.0000
  C   C128      1.0  0.99260  0.80030  0.54870  1.0000
  H   H49       1.0  0.18550  0.50670  0.89530  1.0000
  H   H50       1.0  0.31450  0.99330  0.89530  1.0000
  H   H51       1.0  0.18550  0.99330  0.60470  1.0000
  H   H52       1.0  0.31450  0.50670  0.60470  1.0000
  H   H53       1.0  0.99330  0.31450  0.10470  1.0000
  H   H54       1.0  0.50670  0.18550  0.10470  1.0000
  H   H55       1.0  0.50670  0.31450  0.39530  1.0000
  H   H56       1.0  0.99330  0.18550  0.39530  1.0000
  H   H57       1.0  0.81450  0.49330  0.10470  1.0000
  H   H58       1.0  0.68550  0.00670  0.10470  1.0000
  H   H59       1.0  0.81450  0.00670  0.39530  1.0000
  H   H60       1.0  0.68550  0.49330  0.39530  1.0000
  H   H61       1.0  0.00670  0.68550  0.89530  1.0000
  H   H62       1.0  0.49330  0.81450  0.89530  1.0000
  H   H63       1.0  0.49330  0.68550  0.60470  1.0000
  H   H64       1.0  0.00670  0.81450  0.60470  1.0000
  C   C129      1.0  0.24161  0.44820  0.11460  1.0000
  C   C130      1.0  0.25839  0.05180  0.11460  1.0000
  C   C131      1.0  0.24161  0.05180  0.38540  1.0000
  C   C132      1.0  0.25839  0.44820  0.38540  1.0000
  C   C133      1.0  0.05180  0.25839  0.88540  1.0000
  C   C134      1.0  0.44820  0.24161  0.88540  1.0000
  C   C135      1.0  0.44820  0.25839  0.61460  1.0000
  C   C136      1.0  0.05180  0.24161  0.61460  1.0000
  C   C137      1.0  0.75839  0.55180  0.88540  1.0000
  C   C138      1.0  0.74161  0.94820  0.88540  1.0000
  C   C139      1.0  0.75839  0.94820  0.61460  1.0000
  C   C140      1.0  0.74161  0.55180  0.61460  1.0000
  C   C141      1.0  0.94820  0.74161  0.11460  1.0000
  C   C142      1.0  0.55180  0.75839  0.11460  1.0000
  C   C143      1.0  0.55180  0.74161  0.38540  1.0000
  C   C144      1.0  0.94820  0.75839  0.38540  1.0000
  H   H65       1.0  0.25540  0.43230  0.16940  1.0000
  H   H66       1.0  0.24460  0.06770  0.16940  1.0000
  H   H67       1.0  0.25540  0.06770  0.33060  1.0000
  H   H68       1.0  0.24460  0.43230  0.33060  1.0000
  H   H69       1.0  0.06770  0.24460  0.83060  1.0000
  H   H70       1.0  0.43230  0.25540  0.83060  1.0000
  H   H71       1.0  0.43230  0.24460  0.66940  1.0000
  H   H72       1.0  0.06770  0.25540  0.66940  1.0000
  H   H73       1.0  0.74460  0.56770  0.83060  1.0000
  H   H74       1.0  0.75540  0.93230  0.83060  1.0000
  H   H75       1.0  0.74460  0.93230  0.66940  1.0000
  H   H76       1.0  0.75540  0.56770  0.66940  1.0000
  H   H77       1.0  0.93230  0.75540  0.16940  1.0000
  H   H78       1.0  0.56770  0.74460  0.16940  1.0000
  H   H79       1.0  0.56770  0.75540  0.33060  1.0000
  H   H80       1.0  0.93230  0.74460  0.33060  1.0000
  N   N41       1.0  0.28680  0.48860  0.87480  1.0000
  N   N42       1.0  0.21320  0.01140  0.87480  1.0000
  N   N43       1.0  0.28680  0.01140  0.62520  1.0000
  N   N44       1.0  0.21320  0.48860  0.62520  1.0000
  N   N45       1.0  0.01140  0.21320  0.12520  1.0000
  N   N46       1.0  0.48860  0.28680  0.12520  1.0000
  N   N47       1.0  0.48860  0.21320  0.37480  1.0000
  N   N48       1.0  0.01140  0.28680  0.37480  1.0000
  N   N49       1.0  0.71320  0.51140  0.12520  1.0000
  N   N50       1.0  0.78680  0.98860  0.12520  1.0000
  N   N51       1.0  0.71320  0.98860  0.37480  1.0000
  N   N52       1.0  0.78680  0.51140  0.37480  1.0000
  N   N53       1.0  0.98860  0.78680  0.87480  1.0000
  N   N54       1.0  0.51140  0.71320  0.87480  1.0000
  N   N55       1.0  0.51140  0.78680  0.62520  1.0000
  N   N56       1.0  0.98860  0.71320  0.62520  1.0000
  H   H81       1.0  0.32050  0.47850  0.87320  1.0000
  H   H82       1.0  0.17950  0.02150  0.87320  1.0000
  H   H83       1.0  0.32050  0.02150  0.62680  1.0000
  H   H84       1.0  0.17950  0.47850  0.62680  1.0000
  H   H85       1.0  0.02150  0.17950  0.12680  1.0000
  H   H86       1.0  0.47850  0.32050  0.12680  1.0000
  H   H87       1.0  0.47850  0.17950  0.37320  1.0000
  H   H88       1.0  0.02150  0.32050  0.37320  1.0000
  H   H89       1.0  0.67950  0.52150  0.12680  1.0000
  H   H90       1.0  0.82050  0.97850  0.12680  1.0000
  H   H91       1.0  0.67950  0.97850  0.37320  1.0000
  H   H92       1.0  0.82050  0.52150  0.37320  1.0000
  H   H93       1.0  0.97850  0.82050  0.87320  1.0000
  H   H94       1.0  0.52150  0.67950  0.87320  1.0000
  H   H95       1.0  0.52150  0.82050  0.62680  1.0000
  H   H96       1.0  0.97850  0.67950  0.62680  1.0000
  H   H97       1.0  0.27190  0.50310  0.82560  1.0000
  H   H98       1.0  0.22810  0.99690  0.82560  1.0000
  H   H99       1.0  0.27190  0.99690  0.67440  1.0000
  H   H100      1.0  0.22810  0.50310  0.67440  1.0000
  H   H101      1.0  0.99690  0.22810  0.17440  1.0000
  H   H102      1.0  0.50310  0.27190  0.17440  1.0000
  H   H103      1.0  0.50310  0.22810  0.32560  1.0000
  H   H104      1.0  0.99690  0.27190  0.32560  1.0000
  H   H105      1.0  0.72810  0.49690  0.17440  1.0000
  H   H106      1.0  0.77190  0.00310  0.17440  1.0000
  H   H107      1.0  0.72810  0.00310  0.32560  1.0000
  H   H108      1.0  0.77190  0.49690  0.32560  1.0000
  H   H109      1.0  0.00310  0.77190  0.82560  1.0000
  H   H110      1.0  0.49690  0.72810  0.82560  1.0000
  H   H111      1.0  0.49690  0.77190  0.67440  1.0000
  H   H112      1.0  0.00310  0.72810  0.67440  1.0000
