data_image0
_chemical_formula_structural       In4C4O8C12N4H4N4H4C4H4C8H4C4O4C4H4O4C8H4C8H4C4O8C12H4C4O16
_chemical_formula_sum              "In4 C72 O40 N8 H32"
_cell_length_a       9.9779
_cell_length_b       17.5209
_cell_length_c       15.4918
_cell_angle_alpha    90
_cell_angle_beta     105.293
_cell_angle_gamma    90

_space_group_name_H-M_alt    "P 1"
_space_group_IT_number       1

loop_
  _space_group_symop_operation_xyz
  'x, y, z'

loop_
  _atom_site_type_symbol
  _atom_site_label
  _atom_site_symmetry_multiplicity
  _atom_site_fract_x
  _atom_site_fract_y
  _atom_site_fract_z
  _atom_site_occupancy
  In  In1       1.0  0.83358  0.16365  0.35911  1.0000
  In  In2       1.0  0.66642  0.66365  0.14089  1.0000
  In  In3       1.0  0.16642  0.83635  0.64089  1.0000
  In  In4       1.0  0.33358  0.33635  0.85911  1.0000
  C   C1        1.0  0.77050  0.52090  0.35980  1.0000
  C   C2        1.0  0.72950  0.02090  0.14020  1.0000
  C   C3        1.0  0.22950  0.47910  0.64020  1.0000
  C   C4        1.0  0.27050  0.97910  0.85980  1.0000
  O   O1        1.0  0.81370  0.28510  0.31910  1.0000
  O   O2        1.0  0.68630  0.78510  0.18090  1.0000
  O   O3        1.0  0.18630  0.71490  0.68090  1.0000
  O   O4        1.0  0.31370  0.21490  0.81910  1.0000
  O   O5        1.0  0.87370  0.26340  0.46260  1.0000
  O   O6        1.0  0.62630  0.76340  0.03740  1.0000
  O   O7        1.0  0.12630  0.73660  0.53740  1.0000
  O   O8        1.0  0.37370  0.23660  0.96260  1.0000
  C   C5        1.0  0.83900  0.31000  0.39890  1.0000
  C   C6        1.0  0.66100  0.81000  0.10110  1.0000
  C   C7        1.0  0.16100  0.69000  0.60110  1.0000
  C   C8        1.0  0.33900  0.19000  0.89890  1.0000
  C   C9        1.0  0.83290  0.49700  0.51740  1.0000
  C   C10       1.0  0.66710  0.99700  0.98260  1.0000
  C   C11       1.0  0.16710  0.50300  0.48260  1.0000
  C   C12       1.0  0.33290  0.00300  0.01740  1.0000
  C   C13       1.0  0.91780  0.49210  0.68340  1.0000
  C   C14       1.0  0.58220  0.99210  0.81660  1.0000
  C   C15       1.0  0.08220  0.50790  0.31660  1.0000
  C   C16       1.0  0.41780  0.00790  0.18340  1.0000
  N   N1        1.0  0.85420  0.52730  0.60540  1.0000
  N   N2        1.0  0.64580  0.02730  0.89460  1.0000
  N   N3        1.0  0.14580  0.47270  0.39460  1.0000
  N   N4        1.0  0.35420  0.97270  0.10540  1.0000
  H   H1        1.0  0.82270  0.57370  0.60960  1.0000
  H   H2        1.0  0.67730  0.07370  0.89040  1.0000
  H   H3        1.0  0.17730  0.42630  0.39040  1.0000
  H   H4        1.0  0.32270  0.92630  0.10960  1.0000
  N   N5        1.0  0.03960  0.52850  0.83240  1.0000
  N   N6        1.0  0.46040  0.02850  0.66760  1.0000
  N   N7        1.0  0.96040  0.47150  0.16760  1.0000
  N   N8        1.0  0.53960  0.97150  0.33240  1.0000
  H   H5        1.0  0.09740  0.49340  0.82320  1.0000
  H   H6        1.0  0.40260  0.99340  0.67680  1.0000
  H   H7        1.0  0.90260  0.50660  0.17680  1.0000
  H   H8        1.0  0.59740  0.00660  0.32320  1.0000
  C   C17       1.0  0.78880  0.44290  0.34420  1.0000
  C   C18       1.0  0.71120  0.94290  0.15580  1.0000
  C   C19       1.0  0.21120  0.55710  0.65580  1.0000
  C   C20       1.0  0.28880  0.05710  0.84420  1.0000
  H   H9        1.0  0.77380  0.42490  0.28450  1.0000
  H   H10       1.0  0.72620  0.92490  0.21550  1.0000
  H   H11       1.0  0.22620  0.57510  0.71550  1.0000
  H   H12       1.0  0.27380  0.07510  0.78450  1.0000
  C   C21       1.0  0.82860  0.39190  0.41530  1.0000
  C   C22       1.0  0.67140  0.89190  0.08470  1.0000
  C   C23       1.0  0.17140  0.60810  0.58470  1.0000
  C   C24       1.0  0.32860  0.10810  0.91530  1.0000
  C   C25       1.0  0.85050  0.41930  0.50360  1.0000
  C   C26       1.0  0.64950  0.91930  0.99640  1.0000
  C   C27       1.0  0.14950  0.58070  0.49640  1.0000
  C   C28       1.0  0.35050  0.08070  0.00360  1.0000
  H   H13       1.0  0.87680  0.38530  0.55300  1.0000
  H   H14       1.0  0.62320  0.88530  0.94700  1.0000
  H   H15       1.0  0.12320  0.61470  0.44700  1.0000
  H   H16       1.0  0.37680  0.11470  0.05300  1.0000
  C   C29       1.0  0.92590  0.54250  0.76550  1.0000
  C   C30       1.0  0.57410  0.04250  0.73450  1.0000
  C   C31       1.0  0.07410  0.45750  0.23450  1.0000
  C   C32       1.0  0.42590  0.95750  0.26550  1.0000
  O   O9        1.0  0.83110  0.58580  0.76790  1.0000
  O   O10       1.0  0.66890  0.08580  0.73210  1.0000
  O   O11       1.0  0.16890  0.41420  0.23210  1.0000
  O   O12       1.0  0.33110  0.91420  0.26790  1.0000
  C   C33       1.0  0.79460  0.54630  0.44550  1.0000
  C   C34       1.0  0.70540  0.04630  0.05450  1.0000
  C   C35       1.0  0.20540  0.45370  0.55450  1.0000
  C   C36       1.0  0.29460  0.95370  0.94550  1.0000
  H   H17       1.0  0.78500  0.59920  0.45610  1.0000
  H   H18       1.0  0.71500  0.09920  0.04390  1.0000
  H   H19       1.0  0.21500  0.40080  0.54390  1.0000
  H   H20       1.0  0.28500  0.90080  0.95610  1.0000
  O   O13       1.0  0.71610  0.54700  0.20310  1.0000
  O   O14       1.0  0.78390  0.04700  0.29690  1.0000
  O   O15       1.0  0.28390  0.45300  0.79690  1.0000
  O   O16       1.0  0.21610  0.95300  0.70310  1.0000
  C   C37       1.0  0.73550  0.57300  0.28210  1.0000
  C   C38       1.0  0.76450  0.07300  0.21790  1.0000
  C   C39       1.0  0.26450  0.42700  0.71790  1.0000
  C   C40       1.0  0.23550  0.92700  0.78210  1.0000
  C   C41       1.0  0.97120  0.58630  0.95790  1.0000
  C   C42       1.0  0.52880  0.08630  0.54210  1.0000
  C   C43       1.0  0.02880  0.41370  0.04210  1.0000
  C   C44       1.0  0.47120  0.91370  0.45790  1.0000
  H   H21       1.0  0.87630  0.57610  0.92920  1.0000
  H   H22       1.0  0.62370  0.07610  0.57080  1.0000
  H   H23       1.0  0.12370  0.42390  0.07080  1.0000
  H   H24       1.0  0.37630  0.92390  0.42920  1.0000
  C   C45       1.0  0.07390  0.56530  0.91550  1.0000
  C   C46       1.0  0.42610  0.06530  0.58450  1.0000
  C   C47       1.0  0.92610  0.43470  0.08450  1.0000
  C   C48       1.0  0.57390  0.93470  0.41550  1.0000
  C   C49       1.0  0.21140  0.57780  0.95990  1.0000
  C   C50       1.0  0.28860  0.07780  0.54010  1.0000
  C   C51       1.0  0.78860  0.42220  0.04010  1.0000
  C   C52       1.0  0.71140  0.92220  0.45990  1.0000
  H   H25       1.0  0.28270  0.56180  0.93360  1.0000
  H   H26       1.0  0.21730  0.06180  0.56640  1.0000
  H   H27       1.0  0.71730  0.43820  0.06640  1.0000
  H   H28       1.0  0.78270  0.93820  0.43360  1.0000
  C   C53       1.0  0.24580  0.61360  0.04270  1.0000
  C   C54       1.0  0.25420  0.11360  0.45730  1.0000
  C   C55       1.0  0.75420  0.38640  0.95730  1.0000
  C   C56       1.0  0.74580  0.88640  0.54270  1.0000
  O   O17       1.0  0.43580  0.67070  0.15450  1.0000
  O   O18       1.0  0.06420  0.17070  0.34550  1.0000
  O   O19       1.0  0.56420  0.32930  0.84550  1.0000
  O   O20       1.0  0.93580  0.82930  0.65450  1.0000
  O   O21       1.0  0.72200  0.64400  0.29260  1.0000
  O   O22       1.0  0.77800  0.14400  0.20740  1.0000
  O   O23       1.0  0.27800  0.35600  0.70740  1.0000
  O   O24       1.0  0.22200  0.85600  0.79260  1.0000
  C   C57       1.0  0.89210  0.64120  0.08090  1.0000
  C   C58       1.0  0.60790  0.14120  0.41910  1.0000
  C   C59       1.0  0.10790  0.35880  0.91910  1.0000
  C   C60       1.0  0.39210  0.85880  0.58090  1.0000
  C   C61       1.0  0.00600  0.62130  0.04020  1.0000
  C   C62       1.0  0.49400  0.12130  0.45980  1.0000
  C   C63       1.0  0.99400  0.37870  0.95980  1.0000
  C   C64       1.0  0.50600  0.87870  0.54020  1.0000
  C   C65       1.0  0.14610  0.63540  0.08390  1.0000
  C   C66       1.0  0.35390  0.13540  0.41610  1.0000
  C   C67       1.0  0.85390  0.36460  0.91610  1.0000
  C   C68       1.0  0.64610  0.86460  0.58390  1.0000
  H   H29       1.0  0.17120  0.65950  0.14080  1.0000
  H   H30       1.0  0.32880  0.15950  0.35920  1.0000
  H   H31       1.0  0.82880  0.34050  0.85920  1.0000
  H   H32       1.0  0.67120  0.84050  0.64080  1.0000
  C   C69       1.0  0.39660  0.63170  0.08480  1.0000
  C   C70       1.0  0.10340  0.13170  0.41520  1.0000
  C   C71       1.0  0.60340  0.36830  0.91520  1.0000
  C   C72       1.0  0.89660  0.86830  0.58480  1.0000
  O   O25       1.0  0.77020  0.61710  0.04140  1.0000
  O   O26       1.0  0.72980  0.11710  0.45860  1.0000
  O   O27       1.0  0.22980  0.38290  0.95860  1.0000
  O   O28       1.0  0.27020  0.88290  0.54140  1.0000
  O   O29       1.0  0.90780  0.67950  0.15070  1.0000
  O   O30       1.0  0.59220  0.17950  0.34930  1.0000
  O   O31       1.0  0.09220  0.32050  0.84930  1.0000
  O   O32       1.0  0.40780  0.82050  0.65070  1.0000
  O   O33       1.0  0.48680  0.60650  0.04610  1.0000
  O   O34       1.0  0.01320  0.10650  0.45390  1.0000
  O   O35       1.0  0.51320  0.39350  0.95390  1.0000
  O   O36       1.0  0.98680  0.89350  0.54610  1.0000
  O   O37       1.0  0.96440  0.42800  0.69290  1.0000
  O   O38       1.0  0.53560  0.92800  0.80710  1.0000
  O   O39       1.0  0.03560  0.57200  0.30710  1.0000
  O   O40       1.0  0.46440  0.07200  0.19290  1.0000
