data_image0
_chemical_formula_structural       C36O72Cr6Na6
_chemical_formula_sum              "C36 O72 Cr6 Na6"
_cell_length_a       16.9635
_cell_length_b       16.9635
_cell_length_c       12.5247
_cell_angle_alpha    90
_cell_angle_beta     90
_cell_angle_gamma    120

_space_group_name_H-M_alt    "P 1"
_space_group_IT_number       1

loop_
  _space_group_symop_operation_xyz
  'x, y, z'

loop_
  _atom_site_type_symbol
  _atom_site_label
  _atom_site_symmetry_multiplicity
  _atom_site_fract_x
  _atom_site_fract_y
  _atom_site_fract_z
  _atom_site_occupancy
  C   C1        1.0  0.17080  0.36330  0.82470  1.0000
  C   C2        1.0  0.63670  0.80750  0.82470  1.0000
  C   C3        1.0  0.19250  0.82920  0.82470  1.0000
  C   C4        1.0  0.63670  0.82920  0.32470  1.0000
  C   C5        1.0  0.19250  0.36330  0.32470  1.0000
  C   C6        1.0  0.17080  0.80750  0.32470  1.0000
  C   C7        1.0  0.14340  0.30480  0.92870  1.0000
  C   C8        1.0  0.69520  0.83860  0.92870  1.0000
  C   C9        1.0  0.16140  0.85660  0.92870  1.0000
  C   C10       1.0  0.69520  0.85660  0.42870  1.0000
  C   C11       1.0  0.16140  0.30480  0.42870  1.0000
  C   C12       1.0  0.14340  0.83860  0.42870  1.0000
  C   C13       1.0  0.82330  0.18640  0.92730  1.0000
  C   C14       1.0  0.81360  0.63690  0.92730  1.0000
  C   C15       1.0  0.36310  0.17670  0.92730  1.0000
  C   C16       1.0  0.81360  0.17670  0.42730  1.0000
  C   C17       1.0  0.36310  0.18640  0.42730  1.0000
  C   C18       1.0  0.82330  0.63690  0.42730  1.0000
  C   C19       1.0  0.85160  0.15370  0.82800  1.0000
  C   C20       1.0  0.84630  0.69790  0.82800  1.0000
  C   C21       1.0  0.30210  0.14840  0.82800  1.0000
  C   C22       1.0  0.84630  0.14840  0.32800  1.0000
  C   C23       1.0  0.30210  0.15370  0.32800  1.0000
  C   C24       1.0  0.85160  0.69790  0.32800  1.0000
  C   C25       1.0  0.02800  0.49670  0.92710  1.0000
  C   C26       1.0  0.50330  0.53130  0.92710  1.0000
  C   C27       1.0  0.46870  0.97200  0.92710  1.0000
  C   C28       1.0  0.50330  0.97200  0.42710  1.0000
  C   C29       1.0  0.46870  0.49670  0.42710  1.0000
  C   C30       1.0  0.02800  0.53130  0.42710  1.0000
  C   C31       1.0  0.97120  0.46980  0.82360  1.0000
  C   C32       1.0  0.53020  0.50140  0.82360  1.0000
  C   C33       1.0  0.49860  0.02880  0.82360  1.0000
  C   C34       1.0  0.53020  0.02880  0.32360  1.0000
  C   C35       1.0  0.49860  0.46980  0.32360  1.0000
  C   C36       1.0  0.97120  0.50140  0.32360  1.0000
  O   O1        1.0  0.10780  0.37550  0.78340  1.0000
  O   O2        1.0  0.62450  0.73230  0.78340  1.0000
  O   O3        1.0  0.26770  0.89220  0.78340  1.0000
  O   O4        1.0  0.62450  0.89220  0.28340  1.0000
  O   O5        1.0  0.26770  0.37550  0.28340  1.0000
  O   O6        1.0  0.10780  0.73230  0.28340  1.0000
  O   O7        1.0  0.06140  0.27520  0.95380  1.0000
  O   O8        1.0  0.72480  0.78620  0.95380  1.0000
  O   O9        1.0  0.21380  0.93860  0.95380  1.0000
  O   O10       1.0  0.72480  0.93860  0.45380  1.0000
  O   O11       1.0  0.21380  0.27520  0.45380  1.0000
  O   O12       1.0  0.06140  0.78620  0.45380  1.0000
  O   O13       1.0  0.24810  0.39530  0.78640  1.0000
  O   O14       1.0  0.60470  0.85280  0.78640  1.0000
  O   O15       1.0  0.14720  0.75190  0.78640  1.0000
  O   O16       1.0  0.60470  0.75190  0.28640  1.0000
  O   O17       1.0  0.14720  0.39530  0.28640  1.0000
  O   O18       1.0  0.24810  0.85280  0.28640  1.0000
  O   O19       1.0  0.19980  0.29090  0.96890  1.0000
  O   O20       1.0  0.70910  0.90890  0.96890  1.0000
  O   O21       1.0  0.09110  0.80020  0.96890  1.0000
  O   O22       1.0  0.70910  0.80020  0.46890  1.0000
  O   O23       1.0  0.09110  0.29090  0.46890  1.0000
  O   O24       1.0  0.19980  0.90890  0.46890  1.0000
  O   O25       1.0  0.88550  0.26270  0.96040  1.0000
  O   O26       1.0  0.73730  0.62280  0.96040  1.0000
  O   O27       1.0  0.37720  0.11450  0.96040  1.0000
  O   O28       1.0  0.73730  0.11450  0.46040  1.0000
  O   O29       1.0  0.37720  0.26270  0.46040  1.0000
  O   O30       1.0  0.88550  0.62280  0.46040  1.0000
  O   O31       1.0  0.93120  0.21270  0.78680  1.0000
  O   O32       1.0  0.78730  0.71850  0.78680  1.0000
  O   O33       1.0  0.28150  0.06880  0.78680  1.0000
  O   O34       1.0  0.78730  0.06880  0.28680  1.0000
  O   O35       1.0  0.28150  0.21270  0.28680  1.0000
  O   O36       1.0  0.93120  0.71850  0.28680  1.0000
  O   O37       1.0  0.74690  0.13970  0.96120  1.0000
  O   O38       1.0  0.86030  0.60720  0.96120  1.0000
  O   O39       1.0  0.39280  0.25310  0.96120  1.0000
  O   O40       1.0  0.86030  0.25310  0.46120  1.0000
  O   O41       1.0  0.39280  0.13970  0.46120  1.0000
  O   O42       1.0  0.74690  0.60720  0.46120  1.0000
  O   O43       1.0  0.80330  0.07850  0.78750  1.0000
  O   O44       1.0  0.92150  0.72480  0.78750  1.0000
  O   O45       1.0  0.27520  0.19670  0.78750  1.0000
  O   O46       1.0  0.92150  0.19670  0.28750  1.0000
  O   O47       1.0  0.27520  0.07850  0.28750  1.0000
  O   O48       1.0  0.80330  0.72480  0.28750  1.0000
  O   O49       1.0  0.05010  0.43860  0.95740  1.0000
  O   O50       1.0  0.56140  0.61150  0.95740  1.0000
  O   O51       1.0  0.38850  0.94990  0.95740  1.0000
  O   O52       1.0  0.56140  0.94990  0.45740  1.0000
  O   O53       1.0  0.38850  0.43860  0.45740  1.0000
  O   O54       1.0  0.05010  0.61150  0.45740  1.0000
  O   O55       1.0  0.94500  0.38800  0.78880  1.0000
  O   O56       1.0  0.61200  0.55700  0.78880  1.0000
  O   O57       1.0  0.44300  0.05500  0.78880  1.0000
  O   O58       1.0  0.61200  0.05500  0.28880  1.0000
  O   O59       1.0  0.44300  0.38800  0.28880  1.0000
  O   O60       1.0  0.94500  0.55700  0.28880  1.0000
  O   O61       1.0  0.04800  0.56870  0.96760  1.0000
  O   O62       1.0  0.43130  0.47930  0.96760  1.0000
  O   O63       1.0  0.52070  0.95200  0.96760  1.0000
  O   O64       1.0  0.43130  0.95200  0.46760  1.0000
  O   O65       1.0  0.52070  0.56870  0.46760  1.0000
  O   O66       1.0  0.04800  0.47930  0.46760  1.0000
  O   O67       1.0  0.95290  0.52300  0.77970  1.0000
  O   O68       1.0  0.47700  0.42990  0.77970  1.0000
  O   O69       1.0  0.57010  0.04710  0.77970  1.0000
  O   O70       1.0  0.47700  0.04710  0.27970  1.0000
  O   O71       1.0  0.57010  0.52300  0.27970  1.0000
  O   O72       1.0  0.95290  0.42990  0.27970  1.0000
  Cr  Cr1       1.0  0.99645  0.32533  0.87126  1.0000
  Cr  Cr2       1.0  0.67467  0.67112  0.87126  1.0000
  Cr  Cr3       1.0  0.32888  0.00355  0.87126  1.0000
  Cr  Cr4       1.0  0.67467  0.00355  0.37126  1.0000
  Cr  Cr5       1.0  0.32888  0.32533  0.37126  1.0000
  Cr  Cr6       1.0  0.99645  0.67112  0.37126  1.0000
  Na  Na1       1.0  0.00410  0.66255  0.87430  1.0000
  Na  Na2       1.0  0.33745  0.34155  0.87430  1.0000
  Na  Na3       1.0  0.65845  0.99590  0.87430  1.0000
  Na  Na4       1.0  0.33745  0.99590  0.37430  1.0000
  Na  Na5       1.0  0.65845  0.66255  0.37430  1.0000
  Na  Na6       1.0  0.00410  0.34155  0.37430  1.0000
