data_image0
_chemical_formula_structural       Cd4Mo24Mg2Cl4N2H4N2H6O32H2O2H2O4H2O4H2O24H2O8H2O14H2O6H2O8H2O4H2O16H4P16C2H4C2H4
_chemical_formula_sum              "Cd4 Mo24 Mg2 Cl4 N4 H42 O122 P16 C4"
_cell_length_a       12.0014
_cell_length_b       14.686
_cell_length_c       21.176
_cell_angle_alpha    81.093
_cell_angle_beta     83.08
_cell_angle_gamma    76.571

_space_group_name_H-M_alt    "P 1"
_space_group_IT_number       1

loop_
  _space_group_symop_operation_xyz
  'x, y, z'

loop_
  _atom_site_type_symbol
  _atom_site_label
  _atom_site_symmetry_multiplicity
  _atom_site_fract_x
  _atom_site_fract_y
  _atom_site_fract_z
  _atom_site_occupancy
  Cd  Cd1       1.0  0.00000  0.00000  0.00000  1.0000
  Cd  Cd2       1.0  0.50000  0.50000  0.50000  1.0000
  Cd  Cd3       1.0  0.00986  0.37902  0.12832  1.0000
  Cd  Cd4       1.0  0.99014  0.62098  0.87168  1.0000
  Mo  Mo1       1.0  0.05147  0.01909  0.17163  1.0000
  Mo  Mo2       1.0  0.94853  0.98091  0.82837  1.0000
  Mo  Mo3       1.0  0.80525  0.85104  0.95142  1.0000
  Mo  Mo4       1.0  0.19475  0.14896  0.04858  1.0000
  Mo  Mo5       1.0  0.91929  0.75503  0.04553  1.0000
  Mo  Mo6       1.0  0.08071  0.24497  0.95447  1.0000
  Mo  Mo7       1.0  0.20848  0.76408  0.05561  1.0000
  Mo  Mo8       1.0  0.79152  0.23592  0.94439  1.0000
  Mo  Mo9       1.0  0.31281  0.86159  0.96360  1.0000
  Mo  Mo10      1.0  0.68719  0.13841  0.03640  1.0000
  Mo  Mo11      1.0  0.83656  0.01124  0.16885  1.0000
  Mo  Mo12      1.0  0.16344  0.98876  0.83115  1.0000
  Mo  Mo13      1.0  0.80225  0.47974  0.41187  1.0000
  Mo  Mo14      1.0  0.19775  0.52026  0.58813  1.0000
  Mo  Mo15      1.0  0.56770  0.52111  0.31719  1.0000
  Mo  Mo16      1.0  0.43230  0.47889  0.68281  1.0000
  Mo  Mo17      1.0  0.38269  0.64771  0.34343  1.0000
  Mo  Mo18      1.0  0.61731  0.35229  0.65657  1.0000
  Mo  Mo19      1.0  0.36503  0.77069  0.47367  1.0000
  Mo  Mo20      1.0  0.63497  0.22931  0.52633  1.0000
  Mo  Mo21      1.0  0.53904  0.73857  0.54229  1.0000
  Mo  Mo22      1.0  0.46096  0.26143  0.45771  1.0000
  Mo  Mo23      1.0  0.78999  0.56863  0.51033  1.0000
  Mo  Mo24      1.0  0.21001  0.43137  0.48967  1.0000
  Mg  Mg1       1.0  0.26170  0.07630  0.34020  1.0000
  Mg  Mg2       1.0  0.73830  0.92370  0.65980  1.0000
  Cl  Cl1       1.0  0.83400  0.90490  0.21080  1.0000
  Cl  Cl2       1.0  0.16600  0.09510  0.78920  1.0000
  Cl  Cl3       1.0  0.10250  0.91420  0.21340  1.0000
  Cl  Cl4       1.0  0.89750  0.08580  0.78660  1.0000
  N   N1        1.0  0.41480  0.03800  0.37860  1.0000
  N   N2        1.0  0.58520  0.96200  0.62140  1.0000
  H   H1        1.0  0.40930  0.98470  0.40500  1.0000
  H   H2        1.0  0.59070  0.01530  0.59500  1.0000
  H   H3        1.0  0.40960  0.08200  0.40470  1.0000
  H   H4        1.0  0.59040  0.91800  0.59530  1.0000
  N   N3        1.0  0.71140  0.92520  0.39830  1.0000
  N   N4        1.0  0.28860  0.07480  0.60170  1.0000
  H   H5        1.0  0.76470  0.94710  0.37130  1.0000
  H   H6        1.0  0.23530  0.05290  0.62870  1.0000
  H   H7        1.0  0.73940  0.90270  0.43610  1.0000
  H   H8        1.0  0.26060  0.09730  0.56390  1.0000
  H   H9        1.0  0.69140  0.87910  0.38250  1.0000
  H   H10       1.0  0.30860  0.12090  0.61750  1.0000
  O   O1        1.0  0.02210  0.15460  0.10790  1.0000
  O   O2        1.0  0.97790  0.84540  0.89210  1.0000
  O   O3        1.0  0.91220  0.24990  0.01810  1.0000
  O   O4        1.0  0.08780  0.75010  0.98190  1.0000
  O   O5        1.0  0.81460  0.15240  0.10450  1.0000
  O   O6        1.0  0.18540  0.84760  0.89550  1.0000
  O   O7        1.0  0.87010  0.29720  0.13050  1.0000
  O   O8        1.0  0.12990  0.70280  0.86950  1.0000
  O   O9        1.0  0.13290  0.09450  0.22040  1.0000
  O   O10       1.0  0.86710  0.90550  0.77960  1.0000
  O   O11       1.0  0.24560  0.17730  0.13060  1.0000
  O   O12       1.0  0.75440  0.82270  0.86940  1.0000
  O   O13       1.0  0.10150  0.27340  0.20340  1.0000
  O   O14       1.0  0.89850  0.72660  0.79660  1.0000
  O   O15       1.0  0.28260  0.17230  0.24460  1.0000
  O   O16       1.0  0.71740  0.82770  0.75540  1.0000
  O   O17       1.0  0.00270  0.61730  0.06680  1.0000
  O   O18       1.0  0.99730  0.38270  0.93320  1.0000
  O   O19       1.0  0.20650  0.62210  0.07940  1.0000
  O   O20       1.0  0.79350  0.37790  0.92060  1.0000
  O   O21       1.0  0.13890  0.47100  0.10840  1.0000
  O   O22       1.0  0.86110  0.52900  0.89160  1.0000
  O   O23       1.0  0.06730  0.60250  0.17820  1.0000
  O   O24       1.0  0.93270  0.39750  0.82180  1.0000
  O   O25       1.0  0.42260  0.82790  0.88590  1.0000
  O   O26       1.0  0.57740  0.17210  0.11410  1.0000
  O   O27       1.0  0.31460  0.91800  0.79070  1.0000
  O   O28       1.0  0.68540  0.08200  0.20930  1.0000
  O   O29       1.0  0.45450  0.76290  0.78100  1.0000
  O   O30       1.0  0.54550  0.23710  0.21900  1.0000
  O   O31       1.0  0.52250  0.91030  0.79160  1.0000
  O   O32       1.0  0.47750  0.08970  0.20840  1.0000
  H   H11       1.0  0.58620  0.87520  0.78000  1.0000
  H   H12       1.0  0.41380  0.12480  0.22000  1.0000
  O   O33       1.0  0.19590  0.01600  0.10230  1.0000
  O   O34       1.0  0.80410  0.98400  0.89770  1.0000
  H   H13       1.0  0.19560  0.97630  0.07710  1.0000
  H   H14       1.0  0.80440  0.02370  0.92290  1.0000
  O   O35       1.0  0.87120  0.71580  0.97030  1.0000
  O   O36       1.0  0.12880  0.28420  0.02970  1.0000
  O   O37       1.0  0.03870  0.78680  0.09860  1.0000
  O   O38       1.0  0.96130  0.21320  0.90140  1.0000
  H   H15       1.0  0.01730  0.84440  0.10460  1.0000
  H   H16       1.0  0.98270  0.15560  0.89540  1.0000
  O   O39       1.0  0.32820  0.72670  0.98890  1.0000
  O   O40       1.0  0.67180  0.27330  0.01110  1.0000
  O   O41       1.0  0.26270  0.99450  0.90550  1.0000
  O   O42       1.0  0.73730  0.00550  0.09450  1.0000
  H   H17       1.0  0.22430  0.03460  0.92920  1.0000
  H   H18       1.0  0.77570  0.96540  0.07080  1.0000
  O   O43       1.0  0.91130  0.07460  0.22020  1.0000
  O   O44       1.0  0.08870  0.92540  0.77980  1.0000
  O   O45       1.0  0.89070  0.88990  0.01180  1.0000
  O   O46       1.0  0.10930  0.11010  0.98820  1.0000
  O   O47       1.0  0.16890  0.89740  0.01710  1.0000
  O   O48       1.0  0.83110  0.10260  0.98290  1.0000
  O   O49       1.0  0.97190  0.98090  0.10690  1.0000
  O   O50       1.0  0.02810  0.01910  0.89310  1.0000
  O   O51       1.0  0.67000  0.60090  0.36430  1.0000
  O   O52       1.0  0.33000  0.39910  0.63570  1.0000
  O   O53       1.0  0.49200  0.71910  0.39060  1.0000
  O   O54       1.0  0.50800  0.28090  0.60940  1.0000
  O   O55       1.0  0.65800  0.69040  0.45780  1.0000
  O   O56       1.0  0.34200  0.30960  0.54220  1.0000
  O   O57       1.0  0.67300  0.77480  0.34470  1.0000
  O   O58       1.0  0.32700  0.22520  0.65530  1.0000
  O   O59       1.0  0.87630  0.49630  0.31830  1.0000
  O   O60       1.0  0.12370  0.50370  0.68170  1.0000
  O   O61       1.0  0.70840  0.51720  0.25140  1.0000
  O   O62       1.0  0.29160  0.48280  0.74860  1.0000
  O   O63       1.0  0.90700  0.43570  0.21400  1.0000
  O   O64       1.0  0.09300  0.56430  0.78600  1.0000
  O   O65       1.0  0.85460  0.61160  0.21730  1.0000
  O   O66       1.0  0.14540  0.38840  0.78270  1.0000
  H   H19       1.0  0.92510  0.60850  0.20440  1.0000
  H   H20       1.0  0.07490  0.39150  0.79560  1.0000
  O   O67       1.0  0.32070  0.78600  0.30600  1.0000
  O   O68       1.0  0.67930  0.21400  0.69400  1.0000
  O   O69       1.0  0.31440  0.87520  0.40030  1.0000
  O   O70       1.0  0.68560  0.12480  0.59970  1.0000
  O   O71       1.0  0.27920  0.96040  0.29420  1.0000
  O   O72       1.0  0.72080  0.03960  0.70580  1.0000
  O   O73       1.0  0.13030  0.87230  0.35490  1.0000
  O   O74       1.0  0.86970  0.12770  0.64510  1.0000
  H   H21       1.0  0.10580  0.90630  0.38490  1.0000
  H   H22       1.0  0.89420  0.09370  0.61510  1.0000
  O   O75       1.0  0.66840  0.80880  0.54720  1.0000
  O   O76       1.0  0.33160  0.19120  0.45280  1.0000
  O   O77       1.0  0.84670  0.68160  0.52640  1.0000
  O   O78       1.0  0.15330  0.31840  0.47360  1.0000
  O   O79       1.0  0.85130  0.85010  0.49470  1.0000
  O   O80       1.0  0.14870  0.14990  0.50530  1.0000
  O   O81       1.0  0.16350  0.21390  0.38840  1.0000
  O   O82       1.0  0.83650  0.78610  0.61160  1.0000
  O   O83       1.0  0.46490  0.53520  0.39570  1.0000
  O   O84       1.0  0.53510  0.46480  0.60430  1.0000
  O   O85       1.0  0.44950  0.65330  0.52020  1.0000
  O   O86       1.0  0.55050  0.34670  0.47980  1.0000
  O   O87       1.0  0.68370  0.42030  0.37250  1.0000
  O   O88       1.0  0.31630  0.57970  0.62750  1.0000
  H   H23       1.0  0.64600  0.39240  0.40300  1.0000
  H   H24       1.0  0.35400  0.60760  0.59700  1.0000
  O   O89       1.0  0.50390  0.64530  0.27310  1.0000
  O   O90       1.0  0.49610  0.35470  0.72690  1.0000
  O   O91       1.0  0.67190  0.87140  0.98790  1.0000
  O   O92       1.0  0.32810  0.12860  0.01210  1.0000
  O   O93       1.0  0.29120  0.68670  0.42790  1.0000
  O   O94       1.0  0.70880  0.31330  0.57210  1.0000
  H   H25       1.0  0.28520  0.63700  0.45340  1.0000
  H   H26       1.0  0.71480  0.36300  0.54660  1.0000
  O   O95       1.0  0.80920  0.75400  0.10230  1.0000
  O   O96       1.0  0.19080  0.24600  0.89770  1.0000
  O   O97       1.0  0.47480  0.84570  0.48170  1.0000
  O   O98       1.0  0.52520  0.15430  0.51830  1.0000
  O   O99       1.0  0.27600  0.77230  0.11870  1.0000
  O   O100      1.0  0.72400  0.22770  0.88130  1.0000
  O   O101      1.0  0.65490  0.61630  0.57830  1.0000
  O   O102      1.0  0.34510  0.38370  0.42170  1.0000
  H   H27       1.0  0.61850  0.57270  0.59110  1.0000
  H   H28       1.0  0.38150  0.42730  0.40890  1.0000
  O   O103      1.0  0.40590  0.89510  0.00360  1.0000
  O   O104      1.0  0.59410  0.10490  0.99640  1.0000
  O   O105      1.0  0.87530  0.57780  0.42740  1.0000
  O   O106      1.0  0.12470  0.42220  0.57260  1.0000
  H   H29       1.0  0.94780  0.56110  0.42820  1.0000
  H   H30       1.0  0.05220  0.43890  0.57180  1.0000
  O   O107      1.0  0.89130  0.37510  0.43350  1.0000
  O   O108      1.0  0.10870  0.62490  0.56650  1.0000
  O   O109      1.0  0.51540  0.44410  0.28470  1.0000
  O   O110      1.0  0.48460  0.55590  0.71530  1.0000
  O   O111      1.0  0.28220  0.60370  0.31690  1.0000
  O   O112      1.0  0.71780  0.39630  0.68310  1.0000
  O   O113      1.0  0.25440  0.80350  0.52800  1.0000
  O   O114      1.0  0.74560  0.19650  0.47200  1.0000
  O   O115      1.0  0.47360  0.76460  0.61390  1.0000
  O   O116      1.0  0.52640  0.23540  0.38610  1.0000
  O   O117      1.0  0.87270  0.48600  0.55930  1.0000
  O   O118      1.0  0.12730  0.51400  0.44070  1.0000
  O   O119      1.0  0.68880  0.49380  0.48620  1.0000
  O   O120      1.0  0.31120  0.50620  0.51380  1.0000
  O   O121      1.0  0.89430  0.47280  0.05120  1.0000
  O   O122      1.0  0.10570  0.52720  0.94880  1.0000
  H   H31       1.0  0.92450  0.44820  0.01760  1.0000
  H   H32       1.0  0.07550  0.55180  0.98240  1.0000
  H   H33       1.0  0.92810  0.51620  0.05510  1.0000
  H   H34       1.0  0.07190  0.48380  0.94490  1.0000
  P   P1        1.0  0.90224  0.21631  0.09088  1.0000
  P   P2        1.0  0.09776  0.78369  0.90912  1.0000
  P   P3        1.0  0.18840  0.18099  0.19937  1.0000
  P   P4        1.0  0.81160  0.81901  0.80063  1.0000
  P   P5        1.0  0.42756  0.85262  0.81240  1.0000
  P   P6        1.0  0.57244  0.14738  0.18760  1.0000
  P   P7        1.0  0.10445  0.57700  0.11082  1.0000
  P   P8        1.0  0.89555  0.42300  0.88918  1.0000
  P   P9        1.0  0.62495  0.69923  0.38813  1.0000
  P   P10       1.0  0.37505  0.30077  0.61187  1.0000
  P   P11       1.0  0.83717  0.51234  0.25012  1.0000
  P   P12       1.0  0.16283  0.48766  0.74988  1.0000
  P   P13       1.0  0.25533  0.87075  0.33985  1.0000
  P   P14       1.0  0.74467  0.12925  0.66015  1.0000
  P   P15       1.0  0.80208  0.78197  0.54565  1.0000
  P   P16       1.0  0.19792  0.21803  0.45435  1.0000
  C   C1        1.0  0.53550  0.02070  0.35440  1.0000
  C   C2        1.0  0.46450  0.97930  0.64560  1.0000
  H   H35       1.0  0.55140  0.96910  0.32870  1.0000
  H   H36       1.0  0.44860  0.03090  0.67130  1.0000
  H   H37       1.0  0.55000  0.07650  0.32650  1.0000
  H   H38       1.0  0.45000  0.92350  0.67350  1.0000
  C   C3        1.0  0.61650  0.99690  0.40630  1.0000
  C   C4        1.0  0.38350  0.00310  0.59370  1.0000
  H   H39       1.0  0.57370  0.98010  0.44660  1.0000
  H   H40       1.0  0.42630  0.01990  0.55340  1.0000
  H   H41       1.0  0.64280  0.05330  0.41000  1.0000
  H   H42       1.0  0.35720  0.94670  0.59000  1.0000
