data_image0
_chemical_formula_structural       Fe4Cl4N4C4N4C4N8C4N4C4N4C4N8C4N4
_chemical_formula_sum              "Fe4 Cl4 N36 C24"
_cell_length_a       17.674
_cell_length_b       11.6448
_cell_length_c       12.0016
_cell_angle_alpha    90
_cell_angle_beta     106.334
_cell_angle_gamma    90

_space_group_name_H-M_alt    "P 1"
_space_group_IT_number       1

loop_
  _space_group_symop_operation_xyz
  'x, y, z'

loop_
  _atom_site_type_symbol
  _atom_site_label
  _atom_site_symmetry_multiplicity
  _atom_site_fract_x
  _atom_site_fract_y
  _atom_site_fract_z
  _atom_site_occupancy
  Fe  Fe1       1.0  0.28839  0.50327  0.16805  1.0000
  Fe  Fe2       1.0  0.71161  0.00327  0.33195  1.0000
  Fe  Fe3       1.0  0.71161  0.49673  0.83195  1.0000
  Fe  Fe4       1.0  0.28839  0.99673  0.66805  1.0000
  Cl  Cl1       1.0  0.42872  0.53872  0.21174  1.0000
  Cl  Cl2       1.0  0.57128  0.03872  0.28826  1.0000
  Cl  Cl3       1.0  0.57128  0.46128  0.78826  1.0000
  Cl  Cl4       1.0  0.42872  0.96128  0.71174  1.0000
  N   N1        1.0  0.26951  0.66928  0.23456  1.0000
  N   N2        1.0  0.73049  0.16928  0.26544  1.0000
  N   N3        1.0  0.73049  0.33072  0.76544  1.0000
  N   N4        1.0  0.26951  0.83072  0.73456  1.0000
  C   C1        1.0  0.26527  0.76029  0.26993  1.0000
  C   C2        1.0  0.73473  0.26029  0.23007  1.0000
  C   C3        1.0  0.73473  0.23971  0.73007  1.0000
  C   C4        1.0  0.26527  0.73971  0.76993  1.0000
  N   N5        1.0  0.26116  0.86806  0.29852  1.0000
  N   N6        1.0  0.73884  0.36806  0.20148  1.0000
  N   N7        1.0  0.73884  0.13194  0.70148  1.0000
  N   N8        1.0  0.26116  0.63194  0.79852  1.0000
  C   C5        1.0  0.26132  0.89569  0.40449  1.0000
  C   C6        1.0  0.73868  0.39569  0.09551  1.0000
  C   C7        1.0  0.73868  0.10431  0.59551  1.0000
  C   C8        1.0  0.26132  0.60431  0.90449  1.0000
  N   N9        1.0  0.26162  0.93125  0.49420  1.0000
  N   N10       1.0  0.73838  0.43125  0.00580  1.0000
  N   N11       1.0  0.73838  0.06875  0.50580  1.0000
  N   N12       1.0  0.26162  0.56875  0.99420  1.0000
  N   N13       1.0  0.29459  0.42517  0.33379  1.0000
  N   N14       1.0  0.70541  0.92517  0.16621  1.0000
  N   N15       1.0  0.70541  0.57483  0.66621  1.0000
  N   N16       1.0  0.29459  0.07483  0.83379  1.0000
  C   C9        1.0  0.28007  0.38710  0.41383  1.0000
  C   C10       1.0  0.71993  0.88710  0.08617  1.0000
  C   C11       1.0  0.71993  0.61290  0.58617  1.0000
  C   C12       1.0  0.28007  0.11290  0.91383  1.0000
  N   N17       1.0  0.26099  0.35577  0.50750  1.0000
  N   N18       1.0  0.73901  0.85577  0.99250  1.0000
  N   N19       1.0  0.73901  0.64423  0.49250  1.0000
  N   N20       1.0  0.26099  0.14423  0.00750  1.0000
  C   C13       1.0  0.27803  0.25235  0.54960  1.0000
  C   C14       1.0  0.72197  0.75235  0.95040  1.0000
  C   C15       1.0  0.72197  0.74765  0.45040  1.0000
  C   C16       1.0  0.27803  0.24765  0.04960  1.0000
  N   N21       1.0  0.29036  0.16502  0.59623  1.0000
  N   N22       1.0  0.70964  0.66502  0.90377  1.0000
  N   N23       1.0  0.70964  0.83498  0.40377  1.0000
  N   N24       1.0  0.29036  0.33498  0.09623  1.0000
  C   C17       1.0  0.10726  0.43252  0.04269  1.0000
  C   C18       1.0  0.89274  0.93252  0.45731  1.0000
  C   C19       1.0  0.89274  0.56748  0.95731  1.0000
  C   C20       1.0  0.10726  0.06748  0.54269  1.0000
  N   N25       1.0  0.06877  0.39030  0.95879  1.0000
  N   N26       1.0  0.93123  0.89030  0.54121  1.0000
  N   N27       1.0  0.93123  0.60970  0.04121  1.0000
  N   N28       1.0  0.06877  0.10970  0.45879  1.0000
  N   N29       1.0  0.15591  0.47973  0.13629  1.0000
  N   N30       1.0  0.84409  0.97973  0.36371  1.0000
  N   N31       1.0  0.84409  0.52027  0.86371  1.0000
  N   N32       1.0  0.15591  0.02027  0.63629  1.0000
  C   C21       1.0  0.12495  0.51516  0.21904  1.0000
  C   C22       1.0  0.87505  0.01516  0.28096  1.0000
  C   C23       1.0  0.87505  0.48484  0.78096  1.0000
  C   C24       1.0  0.12495  0.98484  0.71904  1.0000
  N   N33       1.0  0.10354  0.54922  0.29558  1.0000
  N   N34       1.0  0.89646  0.04922  0.20442  1.0000
  N   N35       1.0  0.89646  0.45078  0.70442  1.0000
  N   N36       1.0  0.10354  0.95078  0.79558  1.0000
