data_image0
_chemical_formula_structural       Tb4O40H8O4H8C12H4C4H4C4H4C24H4C4H4C8H4C8
_chemical_formula_sum              "Tb4 O44 H40 C64"
_cell_length_a       16.3754
_cell_length_b       8.7612
_cell_length_c       19.4137
_cell_angle_alpha    90
_cell_angle_beta     114.926
_cell_angle_gamma    90

_space_group_name_H-M_alt    "P 1"
_space_group_IT_number       1

loop_
  _space_group_symop_operation_xyz
  'x, y, z'

loop_
  _atom_site_type_symbol
  _atom_site_label
  _atom_site_symmetry_multiplicity
  _atom_site_fract_x
  _atom_site_fract_y
  _atom_site_fract_z
  _atom_site_occupancy
  Tb  Tb1       1.0  0.13339  0.58779  0.03632  1.0000
  Tb  Tb2       1.0  0.86661  0.08779  0.46368  1.0000
  Tb  Tb3       1.0  0.86661  0.41221  0.96368  1.0000
  Tb  Tb4       1.0  0.13339  0.91221  0.53632  1.0000
  O   O1        1.0  0.09157  0.86600  0.64325  1.0000
  O   O2        1.0  0.90843  0.36600  0.85675  1.0000
  O   O3        1.0  0.90843  0.13400  0.35675  1.0000
  O   O4        1.0  0.09157  0.63400  0.14325  1.0000
  O   O5        1.0  0.23510  0.80840  0.67309  1.0000
  O   O6        1.0  0.76490  0.30840  0.82691  1.0000
  O   O7        1.0  0.76490  0.19160  0.32691  1.0000
  O   O8        1.0  0.23510  0.69160  0.17309  1.0000
  O   O9        1.0  0.26481  0.61030  0.81484  1.0000
  O   O10       1.0  0.73519  0.11030  0.68516  1.0000
  O   O11       1.0  0.73519  0.38970  0.18516  1.0000
  O   O12       1.0  0.26481  0.88970  0.31484  1.0000
  O   O13       1.0  0.36440  0.59220  0.97644  1.0000
  O   O14       1.0  0.63560  0.09220  0.52356  1.0000
  O   O15       1.0  0.63560  0.40780  0.02356  1.0000
  O   O16       1.0  0.36440  0.90780  0.47644  1.0000
  O   O17       1.0  0.26442  0.65280  0.02287  1.0000
  O   O18       1.0  0.73558  0.15280  0.47713  1.0000
  O   O19       1.0  0.73558  0.34720  0.97713  1.0000
  O   O20       1.0  0.26442  0.84720  0.52287  1.0000
  O   O21       1.0  0.03200  0.13610  0.54657  1.0000
  O   O22       1.0  0.96800  0.63610  0.95343  1.0000
  O   O23       1.0  0.96800  0.86390  0.45343  1.0000
  O   O24       1.0  0.03200  0.36390  0.04657  1.0000
  O   O25       1.0  0.93591  0.19110  0.59675  1.0000
  O   O26       1.0  0.06409  0.69110  0.90325  1.0000
  O   O27       1.0  0.06409  0.80890  0.40325  1.0000
  O   O28       1.0  0.93591  0.30890  0.09675  1.0000
  O   O29       1.0  0.22393  0.12310  0.60865  1.0000
  O   O30       1.0  0.77607  0.62310  0.89135  1.0000
  O   O31       1.0  0.77607  0.87690  0.39135  1.0000
  O   O32       1.0  0.22393  0.37690  0.10865  1.0000
  O   O33       1.0  0.19290  0.35110  0.54712  1.0000
  O   O34       1.0  0.80710  0.85110  0.95288  1.0000
  O   O35       1.0  0.80710  0.64890  0.45288  1.0000
  O   O36       1.0  0.19290  0.14890  0.04712  1.0000
  O   O37       1.0  0.09990  0.87650  0.03922  1.0000
  O   O38       1.0  0.90010  0.37650  0.46078  1.0000
  O   O39       1.0  0.90010  0.12350  0.96078  1.0000
  O   O40       1.0  0.09990  0.62350  0.53922  1.0000
  H   H1        1.0  0.06091  0.90275  0.05586  1.0000
  H   H2        1.0  0.93909  0.40275  0.44414  1.0000
  H   H3        1.0  0.93909  0.09725  0.94414  1.0000
  H   H4        1.0  0.06091  0.59725  0.55586  1.0000
  H   H5        1.0  0.12091  0.95969  0.02868  1.0000
  H   H6        1.0  0.87909  0.45969  0.47132  1.0000
  H   H7        1.0  0.87909  0.04031  0.97132  1.0000
  H   H8        1.0  0.12091  0.54031  0.52868  1.0000
  O   O41       1.0  0.11350  0.37960  0.93839  1.0000
  O   O42       1.0  0.88650  0.87960  0.56161  1.0000
  O   O43       1.0  0.88650  0.62040  0.06161  1.0000
  O   O44       1.0  0.11350  0.12040  0.43839  1.0000
  H   H9        1.0  0.06291  0.33201  0.92812  1.0000
  H   H10       1.0  0.93709  0.83201  0.57188  1.0000
  H   H11       1.0  0.93709  0.66799  0.07188  1.0000
  H   H12       1.0  0.06291  0.16799  0.42812  1.0000
  H   H13       1.0  0.10731  0.42743  0.89758  1.0000
  H   H14       1.0  0.89269  0.92743  0.60242  1.0000
  H   H15       1.0  0.89269  0.57257  0.10242  1.0000
  H   H16       1.0  0.10731  0.07257  0.39758  1.0000
  C   C1        1.0  0.17170  0.83980  0.69262  1.0000
  C   C2        1.0  0.82830  0.33980  0.80738  1.0000
  C   C3        1.0  0.82830  0.16020  0.30738  1.0000
  C   C4        1.0  0.17170  0.66020  0.19262  1.0000
  C   C5        1.0  0.19090  0.86010  0.77551  1.0000
  C   C6        1.0  0.80910  0.36010  0.72449  1.0000
  C   C7        1.0  0.80910  0.13990  0.22449  1.0000
  C   C8        1.0  0.19090  0.63990  0.27551  1.0000
  C   C9        1.0  0.16430  0.00230  0.79600  1.0000
  C   C10       1.0  0.83570  0.50230  0.70400  1.0000
  C   C11       1.0  0.83570  0.99770  0.20400  1.0000
  C   C12       1.0  0.16430  0.49770  0.29600  1.0000
  H   H17       1.0  0.13509  0.07464  0.75863  1.0000
  H   H18       1.0  0.86491  0.57464  0.74137  1.0000
  H   H19       1.0  0.86491  0.92536  0.24137  1.0000
  H   H20       1.0  0.13509  0.42536  0.25863  1.0000
  C   C13       1.0  0.18160  0.03370  0.87120  1.0000
  C   C14       1.0  0.81840  0.53370  0.62880  1.0000
  C   C15       1.0  0.81840  0.96630  0.12880  1.0000
  C   C16       1.0  0.18160  0.46630  0.37120  1.0000
  H   H21       1.0  0.16522  0.12729  0.88426  1.0000
  H   H22       1.0  0.83478  0.62729  0.61574  1.0000
  H   H23       1.0  0.83478  0.87271  0.11574  1.0000
  H   H24       1.0  0.16522  0.37271  0.38426  1.0000
  C   C17       1.0  0.22390  0.92260  0.92700  1.0000
  C   C18       1.0  0.77610  0.42260  0.57300  1.0000
  C   C19       1.0  0.77610  0.07740  0.07300  1.0000
  C   C20       1.0  0.22390  0.57740  0.42700  1.0000
  H   H25       1.0  0.23436  0.94284  0.97706  1.0000
  H   H26       1.0  0.76564  0.44284  0.52294  1.0000
  H   H27       1.0  0.76564  0.05716  0.02294  1.0000
  H   H28       1.0  0.23436  0.55716  0.47706  1.0000
  C   C21       1.0  0.25120  0.78030  0.90907  1.0000
  C   C22       1.0  0.74880  0.28030  0.59093  1.0000
  C   C23       1.0  0.74880  0.21970  0.09093  1.0000
  C   C24       1.0  0.25120  0.71970  0.40907  1.0000
  C   C25       1.0  0.23540  0.75070  0.83295  1.0000
  C   C26       1.0  0.76460  0.25070  0.66705  1.0000
  C   C27       1.0  0.76460  0.24930  0.16705  1.0000
  C   C28       1.0  0.23540  0.74930  0.33295  1.0000
  C   C29       1.0  0.29680  0.66480  0.97321  1.0000
  C   C30       1.0  0.70320  0.16480  0.52679  1.0000
  C   C31       1.0  0.70320  0.33520  0.02679  1.0000
  C   C32       1.0  0.29680  0.83520  0.47321  1.0000
  C   C33       1.0  0.01310  0.20380  0.59746  1.0000
  C   C34       1.0  0.98690  0.70380  0.90254  1.0000
  C   C35       1.0  0.98690  0.79620  0.40254  1.0000
  C   C36       1.0  0.01310  0.29620  0.09746  1.0000
  C   C37       1.0  0.08130  0.30770  0.65591  1.0000
  C   C38       1.0  0.91870  0.80770  0.84409  1.0000
  C   C39       1.0  0.91870  0.69230  0.34409  1.0000
  C   C40       1.0  0.08130  0.19230  0.15591  1.0000
  C   C41       1.0  0.05610  0.38800  0.70780  1.0000
  C   C42       1.0  0.94390  0.88800  0.79220  1.0000
  C   C43       1.0  0.94390  0.61200  0.29220  1.0000
  C   C44       1.0  0.05610  0.11200  0.20780  1.0000
  H   H29       1.0  0.99926  0.37166  0.70636  1.0000
  H   H30       1.0  0.00074  0.87166  0.79364  1.0000
  H   H31       1.0  0.00074  0.62834  0.29364  1.0000
  H   H32       1.0  0.99926  0.12834  0.20636  1.0000
  C   C45       1.0  0.11480  0.49100  0.76090  1.0000
  C   C46       1.0  0.88520  0.99100  0.73910  1.0000
  C   C47       1.0  0.88520  0.50900  0.23910  1.0000
  C   C48       1.0  0.11480  0.00900  0.26090  1.0000
  H   H33       1.0  0.09728  0.54372  0.79401  1.0000
  H   H34       1.0  0.90272  0.04372  0.70599  1.0000
  H   H35       1.0  0.90272  0.45628  0.20599  1.0000
  H   H36       1.0  0.09728  0.95628  0.29401  1.0000
  C   C49       1.0  0.20040  0.51260  0.76291  1.0000
  C   C50       1.0  0.79960  0.01260  0.73709  1.0000
  C   C51       1.0  0.79960  0.48740  0.23709  1.0000
  C   C52       1.0  0.20040  0.98740  0.26291  1.0000
  C   C53       1.0  0.22740  0.43230  0.71330  1.0000
  C   C54       1.0  0.77260  0.93230  0.78670  1.0000
  C   C55       1.0  0.77260  0.56770  0.28670  1.0000
  C   C56       1.0  0.22740  0.06770  0.21330  1.0000
  H   H37       1.0  0.28528  0.44577  0.71664  1.0000
  H   H38       1.0  0.71472  0.94577  0.78336  1.0000
  H   H39       1.0  0.71472  0.55423  0.28336  1.0000
  H   H40       1.0  0.28528  0.05423  0.21664  1.0000
  C   C57       1.0  0.16770  0.33170  0.65841  1.0000
  C   C58       1.0  0.83230  0.83170  0.84159  1.0000
  C   C59       1.0  0.83230  0.66830  0.34159  1.0000
  C   C60       1.0  0.16770  0.16830  0.15841  1.0000
  C   C61       1.0  0.19630  0.26280  0.59980  1.0000
  C   C62       1.0  0.80370  0.76280  0.90020  1.0000
  C   C63       1.0  0.80370  0.73720  0.40020  1.0000
  C   C64       1.0  0.19630  0.23720  0.09980  1.0000
