data_image0
_chemical_formula_structural       Zn8O48C48
_chemical_formula_sum              "Zn8 O48 C48"
_cell_length_a       18.1647
_cell_length_b       15.6263
_cell_length_c       15.1171
_cell_angle_alpha    90
_cell_angle_beta     90
_cell_angle_gamma    90

_space_group_name_H-M_alt    "P 1"
_space_group_IT_number       1

loop_
  _space_group_symop_operation_xyz
  'x, y, z'

loop_
  _atom_site_type_symbol
  _atom_site_label
  _atom_site_symmetry_multiplicity
  _atom_site_fract_x
  _atom_site_fract_y
  _atom_site_fract_z
  _atom_site_occupancy
  Zn  Zn1       1.0  0.49099  0.32334  0.57075  1.0000
  Zn  Zn2       1.0  0.50901  0.67666  0.07075  1.0000
  Zn  Zn3       1.0  0.99099  0.17666  0.57075  1.0000
  Zn  Zn4       1.0  0.00901  0.82334  0.07075  1.0000
  Zn  Zn5       1.0  0.00470  0.32049  0.42797  1.0000
  Zn  Zn6       1.0  0.99530  0.67951  0.92797  1.0000
  Zn  Zn7       1.0  0.50470  0.17951  0.42797  1.0000
  Zn  Zn8       1.0  0.49530  0.82049  0.92797  1.0000
  O   O1        1.0  0.99541  0.40421  0.33350  1.0000
  O   O2        1.0  0.00459  0.59579  0.83350  1.0000
  O   O3        1.0  0.49541  0.09579  0.33350  1.0000
  O   O4        1.0  0.50459  0.90421  0.83350  1.0000
  O   O5        1.0  0.50002  0.40965  0.66180  1.0000
  O   O6        1.0  0.49998  0.59035  0.16180  1.0000
  O   O7        1.0  0.00002  0.09035  0.66180  1.0000
  O   O8        1.0  0.99998  0.90965  0.16180  1.0000
  O   O9        1.0  0.39554  0.17156  0.46240  1.0000
  O   O10       1.0  0.60446  0.82844  0.96240  1.0000
  O   O11       1.0  0.89554  0.32844  0.46240  1.0000
  O   O12       1.0  0.10446  0.67156  0.96240  1.0000
  O   O13       1.0  0.38401  0.45784  0.67983  1.0000
  O   O14       1.0  0.61599  0.54216  0.17983  1.0000
  O   O15       1.0  0.88401  0.04216  0.67983  1.0000
  O   O16       1.0  0.11599  0.95784  0.17983  1.0000
  O   O17       1.0  0.52225  0.70735  0.86320  1.0000
  O   O18       1.0  0.47775  0.29265  0.36320  1.0000
  O   O19       1.0  0.02225  0.79265  0.86320  1.0000
  O   O20       1.0  0.97775  0.20735  0.36320  1.0000
  O   O21       1.0  0.50522  0.60210  0.96140  1.0000
  O   O22       1.0  0.49478  0.39790  0.46140  1.0000
  O   O23       1.0  0.00522  0.89790  0.96140  1.0000
  O   O24       1.0  0.99478  0.10210  0.46140  1.0000
  O   O25       1.0  0.10255  0.18860  0.56030  1.0000
  O   O26       1.0  0.89745  0.81140  0.06030  1.0000
  O   O27       1.0  0.60255  0.31140  0.56030  1.0000
  O   O28       1.0  0.39745  0.68860  0.06030  1.0000
  O   O29       1.0  0.97660  0.60683  0.03710  1.0000
  O   O30       1.0  0.02340  0.39317  0.53710  1.0000
  O   O31       1.0  0.47660  0.89317  0.03710  1.0000
  O   O32       1.0  0.52340  0.10683  0.53710  1.0000
  O   O33       1.0  0.10717  0.26920  0.44090  1.0000
  O   O34       1.0  0.89283  0.73080  0.94090  1.0000
  O   O35       1.0  0.60717  0.23080  0.44090  1.0000
  O   O36       1.0  0.39283  0.76920  0.94090  1.0000
  O   O37       1.0  0.38587  0.29279  0.54380  1.0000
  O   O38       1.0  0.61413  0.70721  0.04380  1.0000
  O   O39       1.0  0.88587  0.20721  0.54380  1.0000
  O   O40       1.0  0.11413  0.79279  0.04380  1.0000
  O   O41       1.0  0.11335  0.43981  0.30810  1.0000
  O   O42       1.0  0.88665  0.56019  0.80810  1.0000
  O   O43       1.0  0.61335  0.06019  0.30810  1.0000
  O   O44       1.0  0.38665  0.93981  0.80810  1.0000
  O   O45       1.0  0.00510  0.70532  0.13820  1.0000
  O   O46       1.0  0.99490  0.29468  0.63820  1.0000
  O   O47       1.0  0.50510  0.79468  0.13820  1.0000
  O   O48       1.0  0.49490  0.20532  0.63820  1.0000
  C   C1        1.0  0.13469  0.22740  0.50060  1.0000
  C   C2        1.0  0.86531  0.77260  0.00060  1.0000
  C   C3        1.0  0.63469  0.27260  0.50060  1.0000
  C   C4        1.0  0.36531  0.72740  0.00060  1.0000
  C   C5        1.0  0.50946  0.63030  0.88730  1.0000
  C   C6        1.0  0.49054  0.36970  0.38730  1.0000
  C   C7        1.0  0.00946  0.86970  0.88730  1.0000
  C   C8        1.0  0.99054  0.13030  0.38730  1.0000
  C   C9        1.0  0.49751  0.56470  0.81940  1.0000
  C   C10       1.0  0.50249  0.43530  0.31940  1.0000
  C   C11       1.0  0.99751  0.93530  0.81940  1.0000
  C   C12       1.0  0.00249  0.06470  0.31940  1.0000
  C   C13       1.0  0.21521  0.22130  0.50160  1.0000
  C   C14       1.0  0.78479  0.77870  0.00160  1.0000
  C   C15       1.0  0.71521  0.27870  0.50160  1.0000
  C   C16       1.0  0.28479  0.72130  0.00160  1.0000
  C   C17       1.0  0.02074  0.50470  0.22690  1.0000
  C   C18       1.0  0.97926  0.49530  0.72690  1.0000
  C   C19       1.0  0.52074  0.99530  0.22690  1.0000
  C   C20       1.0  0.47926  0.00470  0.72690  1.0000
  C   C21       1.0  0.44994  0.45620  0.69630  1.0000
  C   C22       1.0  0.55006  0.54380  0.19630  1.0000
  C   C23       1.0  0.94994  0.04380  0.69630  1.0000
  C   C24       1.0  0.05006  0.95620  0.19630  1.0000
  C   C25       1.0  0.36170  0.22863  0.50300  1.0000
  C   C26       1.0  0.63830  0.77137  0.00300  1.0000
  C   C27       1.0  0.86170  0.27137  0.50300  1.0000
  C   C28       1.0  0.13830  0.72863  0.00300  1.0000
  C   C29       1.0  0.04658  0.44440  0.29480  1.0000
  C   C30       1.0  0.95342  0.55560  0.79480  1.0000
  C   C31       1.0  0.54658  0.05560  0.29480  1.0000
  C   C32       1.0  0.45342  0.94440  0.79480  1.0000
  C   C33       1.0  0.99401  0.62960  0.11110  1.0000
  C   C34       1.0  0.00599  0.37040  0.61110  1.0000
  C   C35       1.0  0.49401  0.87040  0.11110  1.0000
  C   C36       1.0  0.50599  0.12960  0.61110  1.0000
  C   C37       1.0  0.28079  0.22140  0.50330  1.0000
  C   C38       1.0  0.71921  0.77860  0.00330  1.0000
  C   C39       1.0  0.78079  0.27860  0.50330  1.0000
  C   C40       1.0  0.21921  0.72140  0.00330  1.0000
  C   C41       1.0  0.47729  0.51460  0.76470  1.0000
  C   C42       1.0  0.52271  0.48540  0.26470  1.0000
  C   C43       1.0  0.97729  0.98540  0.76470  1.0000
  C   C44       1.0  0.02271  0.01460  0.26470  1.0000
  C   C45       1.0  0.00403  0.55830  0.17410  1.0000
  C   C46       1.0  0.99597  0.44170  0.67410  1.0000
  C   C47       1.0  0.50403  0.94170  0.17410  1.0000
  C   C48       1.0  0.49597  0.05830  0.67410  1.0000
