data_image0
_chemical_formula_structural       Zn24O112C8O8C120O8
_chemical_formula_sum              "Zn24 O128 C128"
_cell_length_a       20.7992
_cell_length_b       15.2528
_cell_length_c       27.7139
_cell_angle_alpha    90
_cell_angle_beta     90
_cell_angle_gamma    90

_space_group_name_H-M_alt    "P 1"
_space_group_IT_number       1

loop_
  _space_group_symop_operation_xyz
  'x, y, z'

loop_
  _atom_site_type_symbol
  _atom_site_label
  _atom_site_symmetry_multiplicity
  _atom_site_fract_x
  _atom_site_fract_y
  _atom_site_fract_z
  _atom_site_occupancy
  Zn  Zn1       1.0  0.37927  0.16603  0.56236  1.0000
  Zn  Zn2       1.0  0.12073  0.83397  0.06236  1.0000
  Zn  Zn3       1.0  0.62073  0.66603  0.93764  1.0000
  Zn  Zn4       1.0  0.87927  0.33397  0.43764  1.0000
  Zn  Zn5       1.0  0.62073  0.83397  0.43764  1.0000
  Zn  Zn6       1.0  0.87927  0.16603  0.93764  1.0000
  Zn  Zn7       1.0  0.37927  0.33397  0.06236  1.0000
  Zn  Zn8       1.0  0.12073  0.66603  0.56236  1.0000
  Zn  Zn9       1.0  0.74986  0.28741  0.37427  1.0000
  Zn  Zn10      1.0  0.75014  0.71259  0.87427  1.0000
  Zn  Zn11      1.0  0.25014  0.78741  0.12573  1.0000
  Zn  Zn12      1.0  0.24986  0.21259  0.62573  1.0000
  Zn  Zn13      1.0  0.25014  0.71259  0.62573  1.0000
  Zn  Zn14      1.0  0.24986  0.28741  0.12573  1.0000
  Zn  Zn15      1.0  0.74986  0.21259  0.87427  1.0000
  Zn  Zn16      1.0  0.75014  0.78741  0.37427  1.0000
  Zn  Zn17      1.0  0.61879  0.24146  0.31125  1.0000
  Zn  Zn18      1.0  0.88121  0.75854  0.81125  1.0000
  Zn  Zn19      1.0  0.38121  0.74146  0.18875  1.0000
  Zn  Zn20      1.0  0.11879  0.25854  0.68875  1.0000
  Zn  Zn21      1.0  0.38121  0.75854  0.68875  1.0000
  Zn  Zn22      1.0  0.11879  0.24146  0.18875  1.0000
  Zn  Zn23      1.0  0.61879  0.25854  0.81125  1.0000
  Zn  Zn24      1.0  0.88121  0.74146  0.31125  1.0000
  O   O1        1.0  0.68540  0.33170  0.32010  1.0000
  O   O2        1.0  0.81460  0.66830  0.82010  1.0000
  O   O3        1.0  0.31460  0.83170  0.17990  1.0000
  O   O4        1.0  0.18540  0.16830  0.67990  1.0000
  O   O5        1.0  0.31460  0.66830  0.67990  1.0000
  O   O6        1.0  0.18540  0.33170  0.17990  1.0000
  O   O7        1.0  0.68540  0.16830  0.82010  1.0000
  O   O8        1.0  0.81460  0.83170  0.32010  1.0000
  O   O9        1.0  0.31500  0.25920  0.57250  1.0000
  O   O10       1.0  0.18500  0.74080  0.07250  1.0000
  O   O11       1.0  0.68500  0.75920  0.92750  1.0000
  O   O12       1.0  0.81500  0.24080  0.42750  1.0000
  O   O13       1.0  0.68500  0.74080  0.42750  1.0000
  O   O14       1.0  0.81500  0.25920  0.92750  1.0000
  O   O15       1.0  0.31500  0.24080  0.07250  1.0000
  O   O16       1.0  0.18500  0.75920  0.57250  1.0000
  O   O17       1.0  0.32430  0.31010  0.17320  1.0000
  O   O18       1.0  0.17570  0.68990  0.67320  1.0000
  O   O19       1.0  0.67570  0.81010  0.32680  1.0000
  O   O20       1.0  0.82430  0.18990  0.82680  1.0000
  O   O21       1.0  0.67570  0.68990  0.82680  1.0000
  O   O22       1.0  0.82430  0.31010  0.32680  1.0000
  O   O23       1.0  0.32430  0.18990  0.67320  1.0000
  O   O24       1.0  0.17570  0.81010  0.17320  1.0000
  O   O25       1.0  0.75470  0.66210  0.34380  1.0000
  O   O26       1.0  0.74530  0.33790  0.84380  1.0000
  O   O27       1.0  0.24530  0.16210  0.15620  1.0000
  O   O28       1.0  0.25470  0.83790  0.65620  1.0000
  O   O29       1.0  0.24530  0.33790  0.65620  1.0000
  O   O30       1.0  0.25470  0.66210  0.15620  1.0000
  O   O31       1.0  0.75470  0.83790  0.84380  1.0000
  O   O32       1.0  0.74530  0.16210  0.34380  1.0000
  O   O33       1.0  0.67610  0.26540  0.42200  1.0000
  O   O34       1.0  0.82390  0.73460  0.92200  1.0000
  O   O35       1.0  0.32390  0.76540  0.07800  1.0000
  O   O36       1.0  0.17610  0.23460  0.57800  1.0000
  O   O37       1.0  0.32390  0.73460  0.57800  1.0000
  O   O38       1.0  0.17610  0.26540  0.07800  1.0000
  O   O39       1.0  0.67610  0.23460  0.92200  1.0000
  O   O40       1.0  0.82390  0.76540  0.42200  1.0000
  O   O41       1.0  0.24700  0.58650  0.59540  1.0000
  O   O42       1.0  0.25300  0.41350  0.09540  1.0000
  O   O43       1.0  0.75300  0.08650  0.90460  1.0000
  O   O44       1.0  0.74700  0.91350  0.40460  1.0000
  O   O45       1.0  0.75300  0.41350  0.40460  1.0000
  O   O46       1.0  0.74700  0.58650  0.90460  1.0000
  O   O47       1.0  0.24700  0.91350  0.09540  1.0000
  O   O48       1.0  0.25300  0.08650  0.59540  1.0000
  O   O49       1.0  0.16670  0.56000  0.54230  1.0000
  O   O50       1.0  0.33330  0.44000  0.04230  1.0000
  O   O51       1.0  0.83330  0.06000  0.95770  1.0000
  O   O52       1.0  0.66670  0.94000  0.45770  1.0000
  O   O53       1.0  0.83330  0.44000  0.45770  1.0000
  O   O54       1.0  0.66670  0.56000  0.95770  1.0000
  O   O55       1.0  0.16670  0.94000  0.04230  1.0000
  O   O56       1.0  0.33330  0.06000  0.54230  1.0000
  O   O57       1.0  0.45440  0.16710  0.52250  1.0000
  O   O58       1.0  0.04560  0.83290  0.02250  1.0000
  O   O59       1.0  0.54560  0.66710  0.97750  1.0000
  O   O60       1.0  0.95440  0.33290  0.47750  1.0000
  O   O61       1.0  0.54560  0.83290  0.47750  1.0000
  O   O62       1.0  0.95440  0.16710  0.97750  1.0000
  O   O63       1.0  0.45440  0.33290  0.02250  1.0000
  O   O64       1.0  0.04560  0.66710  0.52250  1.0000
  O   O65       1.0  0.54320  0.24520  0.27120  1.0000
  O   O66       1.0  0.95680  0.75480  0.77120  1.0000
  O   O67       1.0  0.45680  0.74520  0.22880  1.0000
  O   O68       1.0  0.04320  0.25480  0.72880  1.0000
  O   O69       1.0  0.45680  0.75480  0.72880  1.0000
  O   O70       1.0  0.04320  0.24520  0.22880  1.0000
  O   O71       1.0  0.54320  0.25480  0.77120  1.0000
  O   O72       1.0  0.95680  0.74520  0.27120  1.0000
  O   O73       1.0  0.40730  0.35600  0.12900  1.0000
  O   O74       1.0  0.09270  0.64400  0.62900  1.0000
  O   O75       1.0  0.59270  0.85600  0.37100  1.0000
  O   O76       1.0  0.90730  0.14400  0.87100  1.0000
  O   O77       1.0  0.59270  0.64400  0.87100  1.0000
  O   O78       1.0  0.90730  0.35600  0.37100  1.0000
  O   O79       1.0  0.40730  0.14400  0.62900  1.0000
  O   O80       1.0  0.09270  0.85600  0.12900  1.0000
  O   O81       1.0  0.83640  0.63450  0.29200  1.0000
  O   O82       1.0  0.66360  0.36550  0.79200  1.0000
  O   O83       1.0  0.16360  0.13450  0.20800  1.0000
  O   O84       1.0  0.33640  0.86550  0.70800  1.0000
  O   O85       1.0  0.16360  0.36550  0.70800  1.0000
  O   O86       1.0  0.33640  0.63450  0.20800  1.0000
  O   O87       1.0  0.83640  0.86550  0.79200  1.0000
  O   O88       1.0  0.66360  0.13450  0.29200  1.0000
  O   O89       1.0  0.58950  0.22580  0.37770  1.0000
  O   O90       1.0  0.91050  0.77420  0.87770  1.0000
  O   O91       1.0  0.41050  0.72580  0.12230  1.0000
  O   O92       1.0  0.08950  0.27420  0.62230  1.0000
  O   O93       1.0  0.41050  0.77420  0.62230  1.0000
  O   O94       1.0  0.08950  0.22580  0.12230  1.0000
  O   O95       1.0  0.58950  0.27420  0.87770  1.0000
  O   O96       1.0  0.91050  0.72580  0.37770  1.0000
  O   O97       1.0  0.47000  0.30440  0.54900  1.0000
  O   O98       1.0  0.03000  0.69560  0.04900  1.0000
  O   O99       1.0  0.53000  0.80440  0.95100  1.0000
  O   O100      1.0  0.97000  0.19560  0.45100  1.0000
  O   O101      1.0  0.53000  0.69560  0.45100  1.0000
  O   O102      1.0  0.97000  0.30440  0.95100  1.0000
  O   O103      1.0  0.47000  0.19560  0.04900  1.0000
  O   O104      1.0  0.03000  0.80440  0.54900  1.0000
  O   O105      1.0  0.52650  0.37700  0.30330  1.0000
  O   O106      1.0  0.97350  0.62300  0.80330  1.0000
  O   O107      1.0  0.47350  0.87700  0.19670  1.0000
  O   O108      1.0  0.02650  0.12300  0.69670  1.0000
  O   O109      1.0  0.47350  0.62300  0.69670  1.0000
  O   O110      1.0  0.02650  0.37700  0.19670  1.0000
  O   O111      1.0  0.52650  0.12300  0.80330  1.0000
  O   O112      1.0  0.97350  0.87700  0.30330  1.0000
  C   C1        1.0  0.37920  0.33410  0.16680  1.0000
  C   C2        1.0  0.12080  0.66590  0.66680  1.0000
  C   C3        1.0  0.62080  0.83410  0.33320  1.0000
  C   C4        1.0  0.87920  0.16590  0.83320  1.0000
  C   C5        1.0  0.62080  0.66590  0.83320  1.0000
  C   C6        1.0  0.87920  0.33410  0.33320  1.0000
  C   C7        1.0  0.37920  0.16590  0.66680  1.0000
  C   C8        1.0  0.12080  0.83410  0.16680  1.0000
  O   O113      1.0  0.66930  0.37180  0.24410  1.0000
  O   O114      1.0  0.83070  0.62820  0.74410  1.0000
  O   O115      1.0  0.33070  0.87180  0.25590  1.0000
  O   O116      1.0  0.16930  0.12820  0.75590  1.0000
  O   O117      1.0  0.33070  0.62820  0.75590  1.0000
  O   O118      1.0  0.16930  0.37180  0.25590  1.0000
  O   O119      1.0  0.66930  0.12820  0.74410  1.0000
  O   O120      1.0  0.83070  0.87180  0.24410  1.0000
  C   C9        1.0  0.24750  0.45840  0.55170  1.0000
  C   C10       1.0  0.25250  0.54160  0.05170  1.0000
  C   C11       1.0  0.75250  0.95840  0.94830  1.0000
  C   C12       1.0  0.74750  0.04160  0.44830  1.0000
  C   C13       1.0  0.75250  0.54160  0.44830  1.0000
  C   C14       1.0  0.74750  0.45840  0.94830  1.0000
  C   C15       1.0  0.24750  0.04160  0.05170  1.0000
  C   C16       1.0  0.25250  0.95840  0.55170  1.0000
  C   C17       1.0  0.27050  0.38830  0.54380  1.0000
  C   C18       1.0  0.22950  0.61170  0.04380  1.0000
  C   C19       1.0  0.72950  0.88830  0.95620  1.0000
  C   C20       1.0  0.77050  0.11170  0.45620  1.0000
  C   C21       1.0  0.72950  0.61170  0.45620  1.0000
  C   C22       1.0  0.77050  0.38830  0.95620  1.0000
  C   C23       1.0  0.27050  0.11170  0.04380  1.0000
  C   C24       1.0  0.22950  0.88830  0.54380  1.0000
  C   C25       1.0  0.30680  0.30820  0.53480  1.0000
  C   C26       1.0  0.19320  0.69180  0.03480  1.0000
  C   C27       1.0  0.69320  0.80820  0.96520  1.0000
  C   C28       1.0  0.80680  0.19180  0.46520  1.0000
  C   C29       1.0  0.69320  0.69180  0.46520  1.0000
  C   C30       1.0  0.80680  0.30820  0.96520  1.0000
  C   C31       1.0  0.30680  0.19180  0.03480  1.0000
  C   C32       1.0  0.19320  0.80820  0.53480  1.0000
  C   C33       1.0  0.78480  0.61600  0.31310  1.0000
  C   C34       1.0  0.71520  0.38400  0.81310  1.0000
  C   C35       1.0  0.21520  0.11600  0.18690  1.0000
  C   C36       1.0  0.28480  0.88400  0.68690  1.0000
  C   C37       1.0  0.21520  0.38400  0.68690  1.0000
  C   C38       1.0  0.28480  0.61600  0.18690  1.0000
  C   C39       1.0  0.78480  0.88400  0.81310  1.0000
  C   C40       1.0  0.71520  0.11600  0.31310  1.0000
  C   C41       1.0  0.75500  0.53330  0.30120  1.0000
  C   C42       1.0  0.74500  0.46670  0.80120  1.0000
  C   C43       1.0  0.24500  0.03330  0.19880  1.0000
  C   C44       1.0  0.25500  0.96670  0.69880  1.0000
  C   C45       1.0  0.24500  0.46670  0.69880  1.0000
  C   C46       1.0  0.25500  0.53330  0.19880  1.0000
  C   C47       1.0  0.75500  0.96670  0.80120  1.0000
  C   C48       1.0  0.74500  0.03330  0.30120  1.0000
  C   C49       1.0  0.42210  0.33600  0.20980  1.0000
  C   C50       1.0  0.07790  0.66400  0.70980  1.0000
  C   C51       1.0  0.57790  0.83600  0.29020  1.0000
  C   C52       1.0  0.92210  0.16400  0.79020  1.0000
  C   C53       1.0  0.57790  0.66400  0.79020  1.0000
  C   C54       1.0  0.92210  0.33600  0.29020  1.0000
  C   C55       1.0  0.42210  0.16400  0.70980  1.0000
  C   C56       1.0  0.07790  0.83600  0.20980  1.0000
  C   C57       1.0  0.22000  0.54150  0.56480  1.0000
  C   C58       1.0  0.28000  0.45850  0.06480  1.0000
  C   C59       1.0  0.78000  0.04150  0.93520  1.0000
  C   C60       1.0  0.72000  0.95850  0.43520  1.0000
  C   C61       1.0  0.78000  0.45850  0.43520  1.0000
  C   C62       1.0  0.72000  0.54150  0.93520  1.0000
  C   C63       1.0  0.22000  0.95850  0.06480  1.0000
  C   C64       1.0  0.28000  0.04150  0.56480  1.0000
  C   C65       1.0  0.46130  0.33000  0.24030  1.0000
  C   C66       1.0  0.03870  0.67000  0.74030  1.0000
  C   C67       1.0  0.53870  0.83000  0.25970  1.0000
  C   C68       1.0  0.96130  0.17000  0.75970  1.0000
  C   C69       1.0  0.53870  0.67000  0.75970  1.0000
  C   C70       1.0  0.96130  0.33000  0.25970  1.0000
  C   C71       1.0  0.46130  0.17000  0.74030  1.0000
  C   C72       1.0  0.03870  0.83000  0.24030  1.0000
  C   C73       1.0  0.61820  0.24550  0.41560  1.0000
  C   C74       1.0  0.88180  0.75450  0.91560  1.0000
  C   C75       1.0  0.38180  0.74550  0.08440  1.0000
  C   C76       1.0  0.11820  0.25450  0.58440  1.0000
  C   C77       1.0  0.38180  0.75450  0.58440  1.0000
  C   C78       1.0  0.11820  0.24550  0.08440  1.0000
  C   C79       1.0  0.61820  0.25450  0.91560  1.0000
  C   C80       1.0  0.88180  0.74550  0.41560  1.0000
  C   C81       1.0  0.72890  0.46280  0.29290  1.0000
  C   C82       1.0  0.77110  0.53720  0.79290  1.0000
  C   C83       1.0  0.27110  0.96280  0.20710  1.0000
  C   C84       1.0  0.22890  0.03720  0.70710  1.0000
  C   C85       1.0  0.27110  0.53720  0.70710  1.0000
  C   C86       1.0  0.22890  0.46280  0.20710  1.0000
  C   C87       1.0  0.72890  0.03720  0.79290  1.0000
  C   C88       1.0  0.77110  0.96280  0.29290  1.0000
  C   C89       1.0  0.48480  0.24120  0.52420  1.0000
  C   C90       1.0  0.01520  0.75880  0.02420  1.0000
  C   C91       1.0  0.51520  0.74120  0.97580  1.0000
  C   C92       1.0  0.98480  0.25880  0.47580  1.0000
  C   C93       1.0  0.51520  0.75880  0.47580  1.0000
  C   C94       1.0  0.98480  0.24120  0.97580  1.0000
  C   C95       1.0  0.48480  0.25880  0.02420  1.0000
  C   C96       1.0  0.01520  0.74120  0.52420  1.0000
  C   C97       1.0  0.51350  0.31960  0.27490  1.0000
  C   C98       1.0  0.98650  0.68040  0.77490  1.0000
  C   C99       1.0  0.48650  0.81960  0.22510  1.0000
  C   C100      1.0  0.01350  0.18040  0.72510  1.0000
  C   C101      1.0  0.48650  0.68040  0.72510  1.0000
  C   C102      1.0  0.01350  0.31960  0.22510  1.0000
  C   C103      1.0  0.51350  0.18040  0.77490  1.0000
  C   C104      1.0  0.98650  0.81960  0.27490  1.0000
  C   C105      1.0  0.69230  0.38410  0.28380  1.0000
  C   C106      1.0  0.80770  0.61590  0.78380  1.0000
  C   C107      1.0  0.30770  0.88410  0.21620  1.0000
  C   C108      1.0  0.19230  0.11590  0.71620  1.0000
  C   C109      1.0  0.30770  0.61590  0.71620  1.0000
  C   C110      1.0  0.19230  0.38410  0.21620  1.0000
  C   C111      1.0  0.69230  0.11590  0.78380  1.0000
  C   C112      1.0  0.80770  0.88410  0.28380  1.0000
  C   C113      1.0  0.57740  0.24560  0.45830  1.0000
  C   C114      1.0  0.92260  0.75440  0.95830  1.0000
  C   C115      1.0  0.42260  0.74560  0.04170  1.0000
  C   C116      1.0  0.07740  0.25440  0.54170  1.0000
  C   C117      1.0  0.42260  0.75440  0.54170  1.0000
  C   C118      1.0  0.07740  0.24560  0.04170  1.0000
  C   C119      1.0  0.57740  0.25440  0.95830  1.0000
  C   C120      1.0  0.92260  0.74560  0.45830  1.0000
  C   C121      1.0  0.53750  0.24540  0.49030  1.0000
  C   C122      1.0  0.96250  0.75460  0.99030  1.0000
  C   C123      1.0  0.46250  0.74540  0.00970  1.0000
  C   C124      1.0  0.03750  0.25460  0.50970  1.0000
  C   C125      1.0  0.46250  0.75460  0.50970  1.0000
  C   C126      1.0  0.03750  0.24540  0.00970  1.0000
  C   C127      1.0  0.53750  0.25460  0.99030  1.0000
  C   C128      1.0  0.96250  0.74540  0.49030  1.0000
  O   O121      1.0  0.32860  0.29050  0.49480  1.0000
  O   O122      1.0  0.17140  0.70950  0.99480  1.0000
  O   O123      1.0  0.67140  0.79050  0.00520  1.0000
  O   O124      1.0  0.82860  0.20950  0.50520  1.0000
  O   O125      1.0  0.67140  0.70950  0.50520  1.0000
  O   O126      1.0  0.82860  0.29050  0.00520  1.0000
  O   O127      1.0  0.32860  0.20950  0.99480  1.0000
  O   O128      1.0  0.17140  0.79050  0.49480  1.0000
