data_image0
_chemical_formula_structural       Cd8S8O32H8O4H8O4H8O32H8O4H8O4H8C8H4C8H4C8H4C16H4C8H4C8H4C8
_chemical_formula_sum              "Cd8 S8 O80 H72 C64"
_cell_length_a       14.4736
_cell_length_b       17.4714
_cell_length_c       11.865
_cell_angle_alpha    90
_cell_angle_beta     103.393
_cell_angle_gamma    90

_space_group_name_H-M_alt    "P 1"
_space_group_IT_number       1

loop_
  _space_group_symop_operation_xyz
  'x, y, z'

loop_
  _atom_site_type_symbol
  _atom_site_label
  _atom_site_symmetry_multiplicity
  _atom_site_fract_x
  _atom_site_fract_y
  _atom_site_fract_z
  _atom_site_occupancy
  Cd  Cd1       1.0  0.53183  0.22856  0.32759  1.0000
  Cd  Cd2       1.0  0.46817  0.72856  0.17241  1.0000
  Cd  Cd3       1.0  0.46817  0.77144  0.67241  1.0000
  Cd  Cd4       1.0  0.53183  0.27144  0.82759  1.0000
  Cd  Cd5       1.0  0.10232  0.22006  0.32417  1.0000
  Cd  Cd6       1.0  0.89768  0.72006  0.17583  1.0000
  Cd  Cd7       1.0  0.89768  0.77994  0.67583  1.0000
  Cd  Cd8       1.0  0.10232  0.27994  0.82417  1.0000
  S   S1        1.0  0.71373  0.54058  0.78750  1.0000
  S   S2        1.0  0.28627  0.04058  0.71250  1.0000
  S   S3        1.0  0.28627  0.45942  0.21250  1.0000
  S   S4        1.0  0.71373  0.95942  0.28750  1.0000
  S   S5        1.0  0.21428  0.56186  0.76405  1.0000
  S   S6        1.0  0.78572  0.06186  0.73595  1.0000
  S   S7        1.0  0.78572  0.43814  0.23595  1.0000
  S   S8        1.0  0.21428  0.93814  0.26405  1.0000
  O   O1        1.0  0.53127  0.35711  0.33116  1.0000
  O   O2        1.0  0.46873  0.85711  0.16884  1.0000
  O   O3        1.0  0.46873  0.64289  0.66884  1.0000
  O   O4        1.0  0.53127  0.14289  0.83116  1.0000
  O   O5        1.0  0.60772  0.30699  0.49720  1.0000
  O   O6        1.0  0.39228  0.80699  0.00280  1.0000
  O   O7        1.0  0.39228  0.69301  0.50280  1.0000
  O   O8        1.0  0.60772  0.19301  0.99720  1.0000
  O   O9        1.0  0.52334  0.62349  0.26316  1.0000
  O   O10       1.0  0.47666  0.12349  0.23684  1.0000
  O   O11       1.0  0.47666  0.37651  0.73684  1.0000
  O   O12       1.0  0.52334  0.87651  0.76316  1.0000
  O   O13       1.0  0.58233  0.71312  0.39050  1.0000
  O   O14       1.0  0.41767  0.21312  0.10950  1.0000
  O   O15       1.0  0.41767  0.28688  0.60950  1.0000
  O   O16       1.0  0.58233  0.78688  0.89050  1.0000
  O   O17       1.0  0.64633  0.50375  0.84432  1.0000
  O   O18       1.0  0.35367  0.00375  0.65568  1.0000
  O   O19       1.0  0.35367  0.49625  0.15568  1.0000
  O   O20       1.0  0.64633  0.99625  0.34432  1.0000
  O   O21       1.0  0.80543  0.50161  0.81286  1.0000
  O   O22       1.0  0.19457  0.00161  0.68714  1.0000
  O   O23       1.0  0.19457  0.49839  0.18714  1.0000
  O   O24       1.0  0.80543  0.99839  0.31286  1.0000
  O   O25       1.0  0.72219  0.62219  0.81294  1.0000
  O   O26       1.0  0.27781  0.12219  0.68706  1.0000
  O   O27       1.0  0.27781  0.37781  0.18706  1.0000
  O   O28       1.0  0.72219  0.87781  0.31294  1.0000
  O   O29       1.0  0.65281  0.23937  0.22369  1.0000
  O   O30       1.0  0.34719  0.73937  0.27631  1.0000
  O   O31       1.0  0.34719  0.76063  0.77631  1.0000
  O   O32       1.0  0.65281  0.26063  0.72369  1.0000
  H   H1        1.0  0.63400  0.22840  0.15300  1.0000
  H   H2        1.0  0.36600  0.72840  0.34700  1.0000
  H   H3        1.0  0.36600  0.77160  0.84700  1.0000
  H   H4        1.0  0.63400  0.27160  0.65300  1.0000
  H   H5        1.0  0.67400  0.28320  0.22400  1.0000
  H   H6        1.0  0.32600  0.78320  0.27600  1.0000
  H   H7        1.0  0.32600  0.71680  0.77600  1.0000
  H   H8        1.0  0.67400  0.21680  0.72400  1.0000
  O   O33       1.0  0.41411  0.20203  0.42817  1.0000
  O   O34       1.0  0.58589  0.70203  0.07183  1.0000
  O   O35       1.0  0.58589  0.79797  0.57183  1.0000
  O   O36       1.0  0.41411  0.29797  0.92817  1.0000
  H   H9        1.0  0.42010  0.23110  0.48370  1.0000
  H   H10       1.0  0.57990  0.73110  0.01630  1.0000
  H   H11       1.0  0.57990  0.76890  0.51630  1.0000
  H   H12       1.0  0.42010  0.26890  0.98370  1.0000
  H   H13       1.0  0.36180  0.19000  0.39100  1.0000
  H   H14       1.0  0.63820  0.69000  0.10900  1.0000
  H   H15       1.0  0.63820  0.81000  0.60900  1.0000
  H   H16       1.0  0.36180  0.31000  0.89100  1.0000
  O   O37       1.0  0.63246  0.14293  0.44463  1.0000
  O   O38       1.0  0.36754  0.64293  0.05537  1.0000
  O   O39       1.0  0.36754  0.85707  0.55537  1.0000
  O   O40       1.0  0.63246  0.35707  0.94463  1.0000
  H   H17       1.0  0.68260  0.16440  0.47430  1.0000
  H   H18       1.0  0.31740  0.66440  0.02570  1.0000
  H   H19       1.0  0.31740  0.83560  0.52570  1.0000
  H   H20       1.0  0.68260  0.33560  0.97430  1.0000
  H   H21       1.0  0.64620  0.10450  0.41300  1.0000
  H   H22       1.0  0.35380  0.60450  0.08700  1.0000
  H   H23       1.0  0.35380  0.89550  0.58700  1.0000
  H   H24       1.0  0.64620  0.39550  0.91300  1.0000
  O   O41       1.0  0.08334  0.34828  0.32038  1.0000
  O   O42       1.0  0.91666  0.84828  0.17962  1.0000
  O   O43       1.0  0.91666  0.65172  0.67962  1.0000
  O   O44       1.0  0.08334  0.15172  0.82038  1.0000
  O   O45       1.0  0.17008  0.31164  0.48991  1.0000
  O   O46       1.0  0.82992  0.81164  0.01009  1.0000
  O   O47       1.0  0.82992  0.68836  0.51009  1.0000
  O   O48       1.0  0.17008  0.18836  0.98991  1.0000
  O   O49       1.0  0.96501  0.61020  0.25453  1.0000
  O   O50       1.0  0.03499  0.11020  0.24547  1.0000
  O   O51       1.0  0.03499  0.38980  0.74547  1.0000
  O   O52       1.0  0.96501  0.88980  0.75453  1.0000
  O   O53       1.0  0.01208  0.70238  0.38201  1.0000
  O   O54       1.0  0.98792  0.20238  0.11799  1.0000
  O   O55       1.0  0.98792  0.29762  0.61799  1.0000
  O   O56       1.0  0.01208  0.79762  0.88201  1.0000
  O   O57       1.0  0.24224  0.49114  0.82589  1.0000
  O   O58       1.0  0.75776  0.99114  0.67411  1.0000
  O   O59       1.0  0.75776  0.50886  0.17411  1.0000
  O   O60       1.0  0.24224  0.00886  0.32589  1.0000
  O   O61       1.0  0.29622  0.61070  0.76261  1.0000
  O   O62       1.0  0.70378  0.11070  0.73739  1.0000
  O   O63       1.0  0.70378  0.38930  0.23739  1.0000
  O   O64       1.0  0.29622  0.88930  0.26261  1.0000
  O   O65       1.0  0.14003  0.60371  0.80230  1.0000
  O   O66       1.0  0.85997  0.10371  0.69770  1.0000
  O   O67       1.0  0.85997  0.39629  0.19770  1.0000
  O   O68       1.0  0.14003  0.89629  0.30230  1.0000
  O   O69       1.0  0.22127  0.22791  0.22193  1.0000
  O   O70       1.0  0.77873  0.72791  0.27807  1.0000
  O   O71       1.0  0.77873  0.77209  0.77807  1.0000
  O   O72       1.0  0.22127  0.27209  0.72193  1.0000
  H   H25       1.0  0.19980  0.21510  0.15440  1.0000
  H   H26       1.0  0.80020  0.71510  0.34560  1.0000
  H   H27       1.0  0.80020  0.78490  0.84560  1.0000
  H   H28       1.0  0.19980  0.28490  0.65440  1.0000
  H   H29       1.0  0.23800  0.27090  0.21800  1.0000
  H   H30       1.0  0.76200  0.77090  0.28200  1.0000
  H   H31       1.0  0.76200  0.72910  0.78200  1.0000
  H   H32       1.0  0.23800  0.22910  0.71800  1.0000
  O   O73       1.0  0.99015  0.20510  0.43773  1.0000
  O   O74       1.0  0.00985  0.70510  0.06227  1.0000
  O   O75       1.0  0.00985  0.79490  0.56227  1.0000
  O   O76       1.0  0.99015  0.29490  0.93773  1.0000
  H   H33       1.0  0.99910  0.23770  0.48880  1.0000
  H   H34       1.0  0.00090  0.73770  0.01120  1.0000
  H   H35       1.0  0.00090  0.76230  0.51120  1.0000
  H   H36       1.0  0.99910  0.26230  0.98880  1.0000
  H   H37       1.0  0.93800  0.19460  0.39600  1.0000
  H   H38       1.0  0.06200  0.69460  0.10400  1.0000
  H   H39       1.0  0.06200  0.80540  0.60400  1.0000
  H   H40       1.0  0.93800  0.30540  0.89600  1.0000
  O   O77       1.0  0.20882  0.13757  0.43958  1.0000
  O   O78       1.0  0.79118  0.63757  0.06042  1.0000
  O   O79       1.0  0.79118  0.86243  0.56042  1.0000
  O   O80       1.0  0.20882  0.36243  0.93958  1.0000
  H   H41       1.0  0.21640  0.09980  0.40180  1.0000
  H   H42       1.0  0.78360  0.59980  0.09820  1.0000
  H   H43       1.0  0.78360  0.90020  0.59820  1.0000
  H   H44       1.0  0.21640  0.40020  0.90180  1.0000
  H   H45       1.0  0.23400  0.13500  0.50800  1.0000
  H   H46       1.0  0.76600  0.63500  0.99200  1.0000
  H   H47       1.0  0.76600  0.86500  0.49200  1.0000
  H   H48       1.0  0.23400  0.36500  0.00800  1.0000
  C   C1        1.0  0.60634  0.44321  0.47983  1.0000
  C   C2        1.0  0.39366  0.94321  0.02017  1.0000
  C   C3        1.0  0.39366  0.55679  0.52017  1.0000
  C   C4        1.0  0.60634  0.05679  0.97983  1.0000
  C   C5        1.0  0.58260  0.50576  0.40637  1.0000
  C   C6        1.0  0.41740  0.00576  0.09363  1.0000
  C   C7        1.0  0.41740  0.49424  0.59363  1.0000
  C   C8        1.0  0.58260  0.99424  0.90637  1.0000
  H   H49       1.0  0.55360  0.49780  0.32870  1.0000
  H   H50       1.0  0.44640  0.99780  0.17130  1.0000
  H   H51       1.0  0.44640  0.50220  0.67130  1.0000
  H   H52       1.0  0.55360  0.00220  0.82870  1.0000
  C   C9        1.0  0.60164  0.58011  0.44727  1.0000
  C   C10       1.0  0.39836  0.08011  0.05273  1.0000
  C   C11       1.0  0.39836  0.41989  0.55273  1.0000
  C   C12       1.0  0.60164  0.91989  0.94727  1.0000
  C   C13       1.0  0.64382  0.59263  0.56383  1.0000
  C   C14       1.0  0.35618  0.09263  0.93617  1.0000
  C   C15       1.0  0.35618  0.40737  0.43617  1.0000
  C   C16       1.0  0.64382  0.90737  0.06383  1.0000
  H   H53       1.0  0.65670  0.64210  0.59220  1.0000
  H   H54       1.0  0.34330  0.14210  0.90780  1.0000
  H   H55       1.0  0.34330  0.35790  0.40780  1.0000
  H   H56       1.0  0.65670  0.85790  0.09220  1.0000
  C   C17       1.0  0.66622  0.52976  0.63681  1.0000
  C   C18       1.0  0.33378  0.02976  0.86319  1.0000
  C   C19       1.0  0.33378  0.47024  0.36319  1.0000
  C   C20       1.0  0.66622  0.97024  0.13681  1.0000
  C   C21       1.0  0.64880  0.45522  0.59591  1.0000
  C   C22       1.0  0.35120  0.95522  0.90409  1.0000
  C   C23       1.0  0.35120  0.54478  0.40409  1.0000
  C   C24       1.0  0.64880  0.04478  0.09591  1.0000
  H   H57       1.0  0.66540  0.41390  0.64590  1.0000
  H   H58       1.0  0.33460  0.91390  0.85410  1.0000
  H   H59       1.0  0.33460  0.58610  0.35410  1.0000
  H   H60       1.0  0.66540  0.08610  0.14590  1.0000
  C   C25       1.0  0.58085  0.36429  0.43366  1.0000
  C   C26       1.0  0.41915  0.86429  0.06634  1.0000
  C   C27       1.0  0.41915  0.63571  0.56634  1.0000
  C   C28       1.0  0.58085  0.13571  0.93366  1.0000
  C   C29       1.0  0.56884  0.64436  0.36298  1.0000
  C   C30       1.0  0.43116  0.14436  0.13702  1.0000
  C   C31       1.0  0.43116  0.35564  0.63702  1.0000
  C   C32       1.0  0.56884  0.85564  0.86298  1.0000
  C   C33       1.0  0.12510  0.44397  0.46614  1.0000
  C   C34       1.0  0.87490  0.94397  0.03386  1.0000
  C   C35       1.0  0.87490  0.55603  0.53386  1.0000
  C   C36       1.0  0.12510  0.05603  0.96614  1.0000
  C   C37       1.0  0.07488  0.50002  0.39332  1.0000
  C   C38       1.0  0.92512  0.00002  0.10668  1.0000
  C   C39       1.0  0.92512  0.49998  0.60668  1.0000
  C   C40       1.0  0.07488  0.99998  0.89332  1.0000
  H   H61       1.0  0.04370  0.48700  0.31810  1.0000
  H   H62       1.0  0.95630  0.98700  0.18190  1.0000
  H   H63       1.0  0.95630  0.51300  0.68190  1.0000
  H   H64       1.0  0.04370  0.01300  0.81810  1.0000
  C   C41       1.0  0.07048  0.57521  0.43120  1.0000
  C   C42       1.0  0.92952  0.07521  0.06880  1.0000
  C   C43       1.0  0.92952  0.42479  0.56880  1.0000
  C   C44       1.0  0.07048  0.92479  0.93120  1.0000
  C   C45       1.0  0.11608  0.59421  0.54451  1.0000
  C   C46       1.0  0.88392  0.09421  0.95549  1.0000
  C   C47       1.0  0.88392  0.40579  0.45549  1.0000
  C   C48       1.0  0.11608  0.90579  0.04451  1.0000
  H   H65       1.0  0.11440  0.64420  0.57090  1.0000
  H   H66       1.0  0.88560  0.14420  0.92910  1.0000
  H   H67       1.0  0.88560  0.35580  0.42910  1.0000
  H   H68       1.0  0.11440  0.85580  0.07090  1.0000
  C   C49       1.0  0.16415  0.53760  0.61782  1.0000
  C   C50       1.0  0.83585  0.03760  0.88218  1.0000
  C   C51       1.0  0.83585  0.46240  0.38218  1.0000
  C   C52       1.0  0.16415  0.96240  0.11782  1.0000
  C   C53       1.0  0.17022  0.46308  0.57978  1.0000
  C   C54       1.0  0.82978  0.96308  0.92022  1.0000
  C   C55       1.0  0.82978  0.53692  0.42022  1.0000
  C   C56       1.0  0.17022  0.03692  0.07978  1.0000
  H   H69       1.0  0.20400  0.42630  0.62940  1.0000
  H   H70       1.0  0.79600  0.92630  0.87060  1.0000
  H   H71       1.0  0.79600  0.57370  0.37060  1.0000
  H   H72       1.0  0.20400  0.07370  0.12940  1.0000
  C   C57       1.0  0.12687  0.36291  0.42387  1.0000
  C   C58       1.0  0.87313  0.86291  0.07613  1.0000
  C   C59       1.0  0.87313  0.63709  0.57613  1.0000
  C   C60       1.0  0.12687  0.13709  0.92387  1.0000
  C   C61       1.0  0.01268  0.63370  0.35130  1.0000
  C   C62       1.0  0.98732  0.13370  0.14870  1.0000
  C   C63       1.0  0.98732  0.36630  0.64870  1.0000
  C   C64       1.0  0.01268  0.86630  0.85130  1.0000
