data_image0
_chemical_formula_structural       C36Cl12Fe2K2O24
_chemical_formula_sum              "C36 Cl12 Fe2 K2 O24"
_cell_length_a       13.598
_cell_length_b       14.1713
_cell_length_c       30.107
_cell_angle_alpha    85.659
_cell_angle_beta     88.219
_cell_angle_gamma    63.378

_space_group_name_H-M_alt    "P 1"
_space_group_IT_number       1

loop_
  _space_group_symop_operation_xyz
  'x, y, z'

loop_
  _atom_site_type_symbol
  _atom_site_label
  _atom_site_symmetry_multiplicity
  _atom_site_fract_x
  _atom_site_fract_y
  _atom_site_fract_z
  _atom_site_occupancy
  C   C1        1.0  0.79820  0.58300  0.60710  1.0000
  C   C2        1.0  0.20180  0.41700  0.39290  1.0000
  C   C3        1.0  0.80160  0.26680  0.65170  1.0000
  C   C4        1.0  0.19840  0.73320  0.34830  1.0000
  C   C5        1.0  0.16450  0.30020  0.61710  1.0000
  C   C6        1.0  0.83550  0.69980  0.38290  1.0000
  C   C7        1.0  0.85520  0.58170  0.64950  1.0000
  C   C8        1.0  0.14480  0.41830  0.35050  1.0000
  C   C9        1.0  0.85810  0.22570  0.60780  1.0000
  C   C10       1.0  0.14190  0.77430  0.39220  1.0000
  C   C11       1.0  0.15660  0.22290  0.65300  1.0000
  C   C12       1.0  0.84340  0.77710  0.34700  1.0000
  C   C13       1.0  0.83960  0.67560  0.66530  1.0000
  C   C14       1.0  0.16040  0.32440  0.33470  1.0000
  C   C15       1.0  0.83640  0.15180  0.58790  1.0000
  C   C16       1.0  0.16360  0.84820  0.41210  1.0000
  C   C17       1.0  0.25070  0.13320  0.66630  1.0000
  C   C18       1.0  0.74930  0.86680  0.33370  1.0000
  C   C19       1.0  0.76100  0.77400  0.64520  1.0000
  C   C20       1.0  0.23900  0.22600  0.35480  1.0000
  C   C21       1.0  0.76040  0.11490  0.60610  1.0000
  C   C22       1.0  0.23960  0.88510  0.39390  1.0000
  C   C23       1.0  0.35380  0.11230  0.64750  1.0000
  C   C24       1.0  0.64620  0.88770  0.35250  1.0000
  C   C25       1.0  0.70100  0.77310  0.60300  1.0000
  C   C26       1.0  0.29900  0.22690  0.39700  1.0000
  C   C27       1.0  0.70860  0.15230  0.65240  1.0000
  C   C28       1.0  0.29140  0.84770  0.34760  1.0000
  C   C29       1.0  0.36400  0.19910  0.61540  1.0000
  C   C30       1.0  0.63600  0.80090  0.38460  1.0000
  C   C31       1.0  0.72230  0.67510  0.58690  1.0000
  C   C32       1.0  0.27770  0.32490  0.41310  1.0000
  C   C33       1.0  0.73260  0.23100  0.67110  1.0000
  C   C34       1.0  0.26740  0.76900  0.32890  1.0000
  C   C35       1.0  0.26400  0.29200  0.60390  1.0000
  C   C36       1.0  0.73600  0.70800  0.39610  1.0000
  Cl  Cl1       1.0  0.91020  0.67630  0.71229  1.0000
  Cl  Cl2       1.0  0.08980  0.32370  0.28771  1.0000
  Cl  Cl3       1.0  0.89929  0.10578  0.53768  1.0000
  Cl  Cl4       1.0  0.10071  0.89422  0.46232  1.0000
  Cl  Cl5       1.0  0.23970  0.04092  0.70551  1.0000
  Cl  Cl6       1.0  0.76030  0.95908  0.29449  1.0000
  Cl  Cl7       1.0  0.65450  0.67405  0.53912  1.0000
  Cl  Cl8       1.0  0.34550  0.32595  0.46088  1.0000
  Cl  Cl9       1.0  0.67390  0.27350  0.72289  1.0000
  Cl  Cl10      1.0  0.32610  0.72650  0.27711  1.0000
  Cl  Cl11      1.0  0.27400  0.38959  0.56814  1.0000
  Cl  Cl12      1.0  0.72600  0.61041  0.43186  1.0000
  Fe  Fe1       1.0  0.93716  0.36735  0.63105  1.0000
  Fe  Fe2       1.0  0.06284  0.63265  0.36895  1.0000
  K   K1        1.0  0.60320  0.01340  0.62191  1.0000
  K   K2        1.0  0.39680  0.98660  0.37809  1.0000
  O   O1        1.0  0.82700  0.48950  0.59300  1.0000
  O   O2        1.0  0.17300  0.51050  0.40700  1.0000
  O   O3        1.0  0.82700  0.33540  0.66720  1.0000
  O   O4        1.0  0.17300  0.66460  0.33280  1.0000
  O   O5        1.0  0.07060  0.37190  0.60240  1.0000
  O   O6        1.0  0.92940  0.62810  0.39760  1.0000
  O   O7        1.0  0.91510  0.48880  0.66780  1.0000
  O   O8        1.0  0.08490  0.51120  0.33220  1.0000
  O   O9        1.0  0.92190  0.26530  0.59280  1.0000
  O   O10       1.0  0.07810  0.73470  0.40720  1.0000
  O   O11       1.0  0.05910  0.24830  0.66820  1.0000
  O   O12       1.0  0.94090  0.75170  0.33180  1.0000
  O   O13       1.0  0.73630  0.86210  0.65990  1.0000
  O   O14       1.0  0.26370  0.13790  0.34010  1.0000
  O   O15       1.0  0.73340  0.05610  0.58790  1.0000
  O   O16       1.0  0.26660  0.94390  0.41210  1.0000
  O   O17       1.0  0.44000  0.03010  0.65570  1.0000
  O   O18       1.0  0.56000  0.96990  0.34430  1.0000
  O   O19       1.0  0.63430  0.86100  0.58560  1.0000
  O   O20       1.0  0.36570  0.13900  0.41440  1.0000
  O   O21       1.0  0.64980  0.11450  0.66980  1.0000
  O   O22       1.0  0.35020  0.88550  0.33020  1.0000
  O   O23       1.0  0.45520  0.18110  0.60120  1.0000
  O   O24       1.0  0.54480  0.81890  0.39880  1.0000
