data_image0
_chemical_formula_structural       Mo8Ni2O2H4O32C2H2C2H2C2H2C2H2C8H2C2H2C2H2C4N4H2N2
_chemical_formula_sum              "Mo8 Ni2 O34 H20 C24 N6"
_cell_length_a       10.331
_cell_length_b       13.011
_cell_length_c       17.287
_cell_angle_alpha    68.303
_cell_angle_beta     78.122
_cell_angle_gamma    69.036

_space_group_name_H-M_alt    "P 1"
_space_group_IT_number       1

loop_
  _space_group_symop_operation_xyz
  'x, y, z'

loop_
  _atom_site_type_symbol
  _atom_site_label
  _atom_site_symmetry_multiplicity
  _atom_site_fract_x
  _atom_site_fract_y
  _atom_site_fract_z
  _atom_site_occupancy
  Mo  Mo1       1.0  0.09765  0.06687  0.40869  1.0000
  Mo  Mo2       1.0  0.90235  0.93313  0.59131  1.0000
  Mo  Mo3       1.0  0.25952  0.91284  0.57329  1.0000
  Mo  Mo4       1.0  0.74048  0.08716  0.42671  1.0000
  Mo  Mo5       1.0  0.82142  0.30645  0.42604  1.0000
  Mo  Mo6       1.0  0.17858  0.69355  0.57396  1.0000
  Mo  Mo7       1.0  0.98590  0.14856  0.59166  1.0000
  Mo  Mo8       1.0  0.01410  0.85144  0.40834  1.0000
  Ni  Ni1       1.0  0.91498  0.57155  0.30618  1.0000
  Ni  Ni2       1.0  0.08502  0.42845  0.69382  1.0000
  O   O1        1.0  0.00280  0.70290  0.26560  1.0000
  O   O2        1.0  0.99720  0.29710  0.73440  1.0000
  H   H1        1.0  0.04420  0.71060  0.20950  1.0000
  H   H2        1.0  0.95580  0.28940  0.79050  1.0000
  H   H3        1.0  0.93220  0.77450  0.26680  1.0000
  H   H4        1.0  0.06780  0.22550  0.73320  1.0000
  O   O3        1.0  0.76140  0.23680  0.36410  1.0000
  O   O4        1.0  0.23860  0.76320  0.63590  1.0000
  O   O5        1.0  0.95220  0.28660  0.49690  1.0000
  O   O6        1.0  0.04780  0.71340  0.50310  1.0000
  O   O7        1.0  0.17100  0.07160  0.50090  1.0000
  O   O8        1.0  0.82900  0.92840  0.49910  1.0000
  O   O9        1.0  0.11070  0.16060  0.63620  1.0000
  O   O10       1.0  0.88930  0.83940  0.36380  1.0000
  O   O11       1.0  0.67210  0.33780  0.48710  1.0000
  O   O12       1.0  0.32790  0.66220  0.51290  1.0000
  O   O13       1.0  0.03260  0.97730  0.63040  1.0000
  O   O14       1.0  0.96740  0.02270  0.36960  1.0000
  O   O15       1.0  0.83980  0.17810  0.65500  1.0000
  O   O16       1.0  0.16020  0.82190  0.34500  1.0000
  O   O17       1.0  0.82500  0.43660  0.35040  1.0000
  O   O18       1.0  0.17500  0.56340  0.64960  1.0000
  O   O19       1.0  0.24320  0.02870  0.34630  1.0000
  O   O20       1.0  0.75680  0.97130  0.65370  1.0000
  O   O21       1.0  0.32150  0.93600  0.64660  1.0000
  O   O22       1.0  0.67850  0.06400  0.35340  1.0000
  O   O23       1.0  0.89230  0.10340  0.50180  1.0000
  O   O24       1.0  0.10770  0.89660  0.49820  1.0000
  O   O25       1.0  0.02550  0.21620  0.36290  1.0000
  O   O26       1.0  0.97450  0.78380  0.63710  1.0000
  O   O27       1.0  0.40110  0.87600  0.50700  1.0000
  O   O28       1.0  0.59890  0.12400  0.49300  1.0000
  O   O29       1.0  0.75730  0.69460  0.08110  1.0000
  O   O30       1.0  0.24270  0.30540  0.91890  1.0000
  O   O31       1.0  0.89950  0.59290  0.18210  1.0000
  O   O32       1.0  0.10050  0.40710  0.81790  1.0000
  O   O33       1.0  0.84660  0.59860  0.42500  1.0000
  O   O34       1.0  0.15340  0.40140  0.57500  1.0000
  C   C1        1.0  0.65780  0.73530  0.62240  1.0000
  C   C2        1.0  0.34220  0.26470  0.37760  1.0000
  H   H5        1.0  0.58220  0.80150  0.60530  1.0000
  H   H6        1.0  0.41780  0.19850  0.39470  1.0000
  C   C3        1.0  0.70440  0.70110  0.69950  1.0000
  C   C4        1.0  0.29560  0.29890  0.30050  1.0000
  H   H7        1.0  0.65450  0.73810  0.73820  1.0000
  H   H8        1.0  0.34550  0.26190  0.26180  1.0000
  C   C5        1.0  0.82710  0.61060  0.71890  1.0000
  C   C6        1.0  0.17290  0.38940  0.28110  1.0000
  H   H9        1.0  0.86200  0.59160  0.76960  1.0000
  H   H10       1.0  0.13800  0.40840  0.23040  1.0000
  C   C7        1.0  0.84710  0.57740  0.59410  1.0000
  C   C8        1.0  0.15290  0.42260  0.40590  1.0000
  H   H11       1.0  0.89440  0.53470  0.55830  1.0000
  H   H12       1.0  0.10560  0.46530  0.44170  1.0000
  C   C9        1.0  0.72550  0.66950  0.57080  1.0000
  C   C10       1.0  0.27450  0.33050  0.42920  1.0000
  C   C11       1.0  0.73030  0.67070  0.42690  1.0000
  C   C12       1.0  0.26970  0.32930  0.57310  1.0000
  C   C13       1.0  0.64990  0.72340  0.34990  1.0000
  C   C14       1.0  0.35010  0.27660  0.65010  1.0000
  C   C15       1.0  0.51750  0.79950  0.33810  1.0000
  C   C16       1.0  0.48250  0.20050  0.66190  1.0000
  H   H13       1.0  0.46350  0.82730  0.38060  1.0000
  H   H14       1.0  0.53650  0.17270  0.61940  1.0000
  C   C17       1.0  0.46710  0.83330  0.26250  1.0000
  C   C18       1.0  0.53290  0.16670  0.73750  1.0000
  H   H15       1.0  0.37560  0.88030  0.25450  1.0000
  H   H16       1.0  0.62440  0.11970  0.74550  1.0000
  C   C19       1.0  0.55080  0.79830  0.19760  1.0000
  C   C20       1.0  0.44920  0.20170  0.80240  1.0000
  H   H17       1.0  0.51950  0.82650  0.14460  1.0000
  H   H18       1.0  0.48050  0.17350  0.85540  1.0000
  C   C21       1.0  0.68220  0.72030  0.21350  1.0000
  C   C22       1.0  0.31780  0.27970  0.78650  1.0000
  C   C23       1.0  0.78390  0.66540  0.15360  1.0000
  C   C24       1.0  0.21610  0.33460  0.84640  1.0000
  N   N1        1.0  0.89670  0.54990  0.66810  1.0000
  N   N2        1.0  0.10330  0.45010  0.33190  1.0000
  N   N3        1.0  0.67020  0.70400  0.49310  1.0000
  N   N4        1.0  0.32980  0.29600  0.50690  1.0000
  H   H19       1.0  0.58750  0.75250  0.48830  1.0000
  H   H20       1.0  0.41250  0.24750  0.51170  1.0000
  N   N5        1.0  0.72660  0.68500  0.28840  1.0000
  N   N6        1.0  0.27340  0.31500  0.71160  1.0000
