data_image0
_chemical_formula_structural       In2Cl2O16C8
_chemical_formula_sum              "In2 Cl2 O16 C8"
_cell_length_a       8.729
_cell_length_b       11.511
_cell_length_c       11.634
_cell_angle_alpha    104.63
_cell_angle_beta     93.584
_cell_angle_gamma    95.062

_space_group_name_H-M_alt    "P 1"
_space_group_IT_number       1

loop_
  _space_group_symop_operation_xyz
  'x, y, z'

loop_
  _atom_site_type_symbol
  _atom_site_label
  _atom_site_symmetry_multiplicity
  _atom_site_fract_x
  _atom_site_fract_y
  _atom_site_fract_z
  _atom_site_occupancy
  In  In1       1.0  0.23202  0.33237  0.92336  1.0000
  In  In2       1.0  0.76798  0.66763  0.07664  1.0000
  Cl  Cl1       1.0  0.08379  0.19945  0.01105  1.0000
  Cl  Cl2       1.0  0.91621  0.80055  0.98895  1.0000
  O   O1        1.0  0.17373  0.24500  0.72970  1.0000
  O   O2        1.0  0.82627  0.75500  0.27030  1.0000
  O   O3        1.0  0.39644  0.19677  0.86805  1.0000
  O   O4        1.0  0.60356  0.80323  0.13195  1.0000
  O   O5        1.0  0.22185  0.09574  0.57962  1.0000
  O   O6        1.0  0.77815  0.90426  0.42038  1.0000
  O   O7        1.0  0.44800  0.04487  0.72059  1.0000
  O   O8        1.0  0.55200  0.95513  0.27941  1.0000
  O   O9        1.0  0.37031  0.47318  0.87373  1.0000
  O   O10       1.0  0.62969  0.52682  0.12627  1.0000
  O   O11       1.0  0.97508  0.59335  0.13767  1.0000
  O   O12       1.0  0.02492  0.40665  0.86233  1.0000
  O   O13       1.0  0.16561  0.48398  0.08021  1.0000
  O   O14       1.0  0.83439  0.51602  0.91979  1.0000
  O   O15       1.0  0.56941  0.61165  0.93502  1.0000
  O   O16       1.0  0.43059  0.38835  0.06498  1.0000
  C   C1        1.0  0.48313  0.52485  0.94540  1.0000
  C   C2        1.0  0.51687  0.47515  0.05460  1.0000
  C   C3        1.0  0.04060  0.52216  0.06266  1.0000
  C   C4        1.0  0.95940  0.47784  0.93734  1.0000
  C   C5        1.0  0.37560  0.12945  0.76410  1.0000
  C   C6        1.0  0.62440  0.87055  0.23590  1.0000
  C   C7        1.0  0.24580  0.15887  0.68390  1.0000
  C   C8        1.0  0.75420  0.84113  0.31610  1.0000
