data_image0
_chemical_formula_structural       Cr24Mn12C144O288
_chemical_formula_sum              "Cr24 Mn12 C144 O288"
_cell_length_a       18.8053
_cell_length_b       18.8053
_cell_length_c       43.3432
_cell_angle_alpha    90
_cell_angle_beta     90
_cell_angle_gamma    120

_space_group_name_H-M_alt    "P 1"
_space_group_IT_number       1

loop_
  _space_group_symop_operation_xyz
  'x, y, z'

loop_
  _atom_site_type_symbol
  _atom_site_label
  _atom_site_symmetry_multiplicity
  _atom_site_fract_x
  _atom_site_fract_y
  _atom_site_fract_z
  _atom_site_occupancy
  Cr  Cr1       1.0  0.37660  0.17090  0.03795  1.0000
  Cr  Cr2       1.0  0.20570  0.37660  0.87128  1.0000
  Cr  Cr3       1.0  0.82910  0.20570  0.70462  1.0000
  Cr  Cr4       1.0  0.62340  0.82910  0.53795  1.0000
  Cr  Cr5       1.0  0.79430  0.62340  0.37128  1.0000
  Cr  Cr6       1.0  0.17090  0.79430  0.20462  1.0000
  Cr  Cr7       1.0  0.82910  0.62340  0.12872  1.0000
  Cr  Cr8       1.0  0.20570  0.82910  0.96205  1.0000
  Cr  Cr9       1.0  0.37660  0.20570  0.79538  1.0000
  Cr  Cr10      1.0  0.17090  0.37660  0.62872  1.0000
  Cr  Cr11      1.0  0.79430  0.17090  0.46205  1.0000
  Cr  Cr12      1.0  0.62340  0.79430  0.29538  1.0000
  Cr  Cr13      1.0  0.18642  0.34301  0.11863  1.0000
  Cr  Cr14      1.0  0.84341  0.18642  0.95196  1.0000
  Cr  Cr15      1.0  0.65699  0.84341  0.78530  1.0000
  Cr  Cr16      1.0  0.81358  0.65699  0.61863  1.0000
  Cr  Cr17      1.0  0.15659  0.81358  0.45196  1.0000
  Cr  Cr18      1.0  0.34301  0.15659  0.28530  1.0000
  Cr  Cr19      1.0  0.65699  0.81358  0.04804  1.0000
  Cr  Cr20      1.0  0.84341  0.65699  0.88137  1.0000
  Cr  Cr21      1.0  0.18642  0.84341  0.71470  1.0000
  Cr  Cr22      1.0  0.34301  0.18642  0.54804  1.0000
  Cr  Cr23      1.0  0.15659  0.34301  0.38137  1.0000
  Cr  Cr24      1.0  0.81358  0.15659  0.21470  1.0000
  Mn  Mn1       1.0  0.52896  0.00000  0.00000  1.0000
  Mn  Mn2       1.0  0.52896  0.52896  0.83333  1.0000
  Mn  Mn3       1.0  0.00000  0.52896  0.66667  1.0000
  Mn  Mn4       1.0  0.47104  0.00000  0.50000  1.0000
  Mn  Mn5       1.0  0.47104  0.47104  0.33333  1.0000
  Mn  Mn6       1.0  0.00000  0.47104  0.16667  1.0000
  Mn  Mn7       1.0  0.51138  0.48862  0.08330  1.0000
  Mn  Mn8       1.0  0.02276  0.51138  0.91663  1.0000
  Mn  Mn9       1.0  0.51138  0.02276  0.74997  1.0000
  Mn  Mn10      1.0  0.48862  0.51138  0.58330  1.0000
  Mn  Mn11      1.0  0.97724  0.48862  0.41663  1.0000
  Mn  Mn12      1.0  0.48862  0.97724  0.24997  1.0000
  C   C1        1.0  0.21300  0.11630  0.02830  1.0000
  C   C2        1.0  0.09670  0.21300  0.86163  1.0000
  C   C3        1.0  0.88370  0.09670  0.69497  1.0000
  C   C4        1.0  0.78700  0.88370  0.52830  1.0000
  C   C5        1.0  0.90330  0.78700  0.36163  1.0000
  C   C6        1.0  0.11630  0.90330  0.19497  1.0000
  C   C7        1.0  0.88370  0.78700  0.13837  1.0000
  C   C8        1.0  0.09670  0.88370  0.97170  1.0000
  C   C9        1.0  0.21300  0.09670  0.80503  1.0000
  C   C10       1.0  0.11630  0.21300  0.63837  1.0000
  C   C11       1.0  0.90330  0.11630  0.47170  1.0000
  C   C12       1.0  0.78700  0.90330  0.30503  1.0000
  C   C13       1.0  0.21830  0.04570  0.04380  1.0000
  C   C14       1.0  0.17260  0.21830  0.87713  1.0000
  C   C15       1.0  0.95430  0.17260  0.71047  1.0000
  C   C16       1.0  0.78170  0.95430  0.54380  1.0000
  C   C17       1.0  0.82740  0.78170  0.37713  1.0000
  C   C18       1.0  0.04570  0.82740  0.21047  1.0000
  C   C19       1.0  0.95430  0.78170  0.12287  1.0000
  C   C20       1.0  0.17260  0.95430  0.95620  1.0000
  C   C21       1.0  0.21830  0.17260  0.78953  1.0000
  C   C22       1.0  0.04570  0.21830  0.62287  1.0000
  C   C23       1.0  0.82740  0.04570  0.45620  1.0000
  C   C24       1.0  0.78170  0.82740  0.28953  1.0000
  C   C25       1.0  0.42800  0.30150  0.07738  1.0000
  C   C26       1.0  0.12650  0.42800  0.91071  1.0000
  C   C27       1.0  0.69850  0.12650  0.74405  1.0000
  C   C28       1.0  0.57200  0.69850  0.57738  1.0000
  C   C29       1.0  0.87350  0.57200  0.41071  1.0000
  C   C30       1.0  0.30150  0.87350  0.24405  1.0000
  C   C31       1.0  0.69850  0.57200  0.08929  1.0000
  C   C32       1.0  0.12650  0.69850  0.92262  1.0000
  C   C33       1.0  0.42800  0.12650  0.75595  1.0000
  C   C34       1.0  0.30150  0.42800  0.58929  1.0000
  C   C35       1.0  0.87350  0.30150  0.42262  1.0000
  C   C36       1.0  0.57200  0.87350  0.25595  1.0000
  C   C37       1.0  0.47100  0.33770  0.04561  1.0000
  C   C38       1.0  0.13330  0.47100  0.87894  1.0000
  C   C39       1.0  0.66230  0.13330  0.71228  1.0000
  C   C40       1.0  0.52900  0.66230  0.54561  1.0000
  C   C41       1.0  0.86670  0.52900  0.37894  1.0000
  C   C42       1.0  0.33770  0.86670  0.21228  1.0000
  C   C43       1.0  0.66230  0.52900  0.12106  1.0000
  C   C44       1.0  0.13330  0.66230  0.95439  1.0000
  C   C45       1.0  0.47100  0.13330  0.78772  1.0000
  C   C46       1.0  0.33770  0.47100  0.62106  1.0000
  C   C47       1.0  0.86670  0.33770  0.45439  1.0000
  C   C48       1.0  0.52900  0.86670  0.28772  1.0000
  C   C49       1.0  0.35260  0.44030  0.11712  1.0000
  C   C50       1.0  0.91230  0.35260  0.95045  1.0000
  C   C51       1.0  0.55970  0.91230  0.78379  1.0000
  C   C52       1.0  0.64740  0.55970  0.61712  1.0000
  C   C53       1.0  0.08770  0.64740  0.45045  1.0000
  C   C54       1.0  0.44030  0.08770  0.28379  1.0000
  C   C55       1.0  0.55970  0.64740  0.04955  1.0000
  C   C56       1.0  0.91230  0.55970  0.88288  1.0000
  C   C57       1.0  0.35260  0.91230  0.71621  1.0000
  C   C58       1.0  0.44030  0.35260  0.54955  1.0000
  C   C59       1.0  0.08770  0.44030  0.38288  1.0000
  C   C60       1.0  0.64740  0.08770  0.21621  1.0000
  C   C61       1.0  0.32750  0.41110  0.08400  1.0000
  C   C62       1.0  0.91640  0.32750  0.91733  1.0000
  C   C63       1.0  0.58890  0.91640  0.75067  1.0000
  C   C64       1.0  0.67250  0.58890  0.58400  1.0000
  C   C65       1.0  0.08360  0.67250  0.41733  1.0000
  C   C66       1.0  0.41110  0.08360  0.25067  1.0000
  C   C67       1.0  0.58890  0.67250  0.08267  1.0000
  C   C68       1.0  0.91640  0.58890  0.91600  1.0000
  C   C69       1.0  0.32750  0.91640  0.74933  1.0000
  C   C70       1.0  0.41110  0.32750  0.58267  1.0000
  C   C71       1.0  0.08360  0.41110  0.41600  1.0000
  C   C72       1.0  0.67250  0.08360  0.24933  1.0000
  C   C73       1.0  0.08410  0.19170  0.09435  1.0000
  C   C74       1.0  0.89240  0.08410  0.92768  1.0000
  C   C75       1.0  0.80830  0.89240  0.76102  1.0000
  C   C76       1.0  0.91590  0.80830  0.59435  1.0000
  C   C77       1.0  0.10760  0.91590  0.42768  1.0000
  C   C78       1.0  0.19170  0.10760  0.26102  1.0000
  C   C79       1.0  0.80830  0.91590  0.07232  1.0000
  C   C80       1.0  0.89240  0.80830  0.90565  1.0000
  C   C81       1.0  0.08410  0.89240  0.73898  1.0000
  C   C82       1.0  0.19170  0.08410  0.57232  1.0000
  C   C83       1.0  0.10760  0.19170  0.40565  1.0000
  C   C84       1.0  0.91590  0.10760  0.23898  1.0000
  C   C85       1.0  0.15070  0.18430  0.11270  1.0000
  C   C86       1.0  0.96640  0.15070  0.94603  1.0000
  C   C87       1.0  0.81570  0.96640  0.77937  1.0000
  C   C88       1.0  0.84930  0.81570  0.61270  1.0000
  C   C89       1.0  0.03360  0.84930  0.44603  1.0000
  C   C90       1.0  0.18430  0.03360  0.27937  1.0000
  C   C91       1.0  0.81570  0.84930  0.05397  1.0000
  C   C92       1.0  0.96640  0.81570  0.88730  1.0000
  C   C93       1.0  0.15070  0.96640  0.72063  1.0000
  C   C94       1.0  0.18430  0.15070  0.55397  1.0000
  C   C95       1.0  0.03360  0.18430  0.38730  1.0000
  C   C96       1.0  0.84930  0.03360  0.22063  1.0000
  C   C97       1.0  0.67850  0.11310  0.96337  1.0000
  C   C98       1.0  0.56540  0.67850  0.79670  1.0000
  C   C99       1.0  0.88690  0.56540  0.63004  1.0000
  C   C100      1.0  0.32150  0.88690  0.46337  1.0000
  C   C101      1.0  0.43460  0.32150  0.29670  1.0000
  C   C102      1.0  0.11310  0.43460  0.13004  1.0000
  C   C103      1.0  0.88690  0.32150  0.20330  1.0000
  C   C104      1.0  0.56540  0.88690  0.03663  1.0000
  C   C105      1.0  0.67850  0.56540  0.86996  1.0000
  C   C106      1.0  0.11310  0.67850  0.70330  1.0000
  C   C107      1.0  0.43460  0.11310  0.53663  1.0000
  C   C108      1.0  0.32150  0.43460  0.36996  1.0000
  C   C109      1.0  0.71870  0.10520  0.99322  1.0000
  C   C110      1.0  0.61350  0.71870  0.82655  1.0000
  C   C111      1.0  0.89480  0.61350  0.65989  1.0000
  C   C112      1.0  0.28130  0.89480  0.49322  1.0000
  C   C113      1.0  0.38650  0.28130  0.32655  1.0000
  C   C114      1.0  0.10520  0.38650  0.15989  1.0000
  C   C115      1.0  0.89480  0.28130  0.17345  1.0000
  C   C116      1.0  0.61350  0.89480  0.00678  1.0000
  C   C117      1.0  0.71870  0.61350  0.84011  1.0000
  C   C118      1.0  0.10520  0.71870  0.67345  1.0000
  C   C119      1.0  0.38650  0.10520  0.50678  1.0000
  C   C120      1.0  0.28130  0.38650  0.34011  1.0000
  C   C121      1.0  0.44190  0.10230  0.00003  1.0000
  C   C122      1.0  0.33960  0.44190  0.83336  1.0000
  C   C123      1.0  0.89770  0.33960  0.66670  1.0000
  C   C124      1.0  0.55810  0.89770  0.50003  1.0000
  C   C125      1.0  0.66040  0.55810  0.33336  1.0000
  C   C126      1.0  0.10230  0.66040  0.16670  1.0000
  C   C127      1.0  0.89770  0.55810  0.16664  1.0000
  C   C128      1.0  0.33960  0.89770  0.99997  1.0000
  C   C129      1.0  0.44190  0.33960  0.83330  1.0000
  C   C130      1.0  0.10230  0.44190  0.66664  1.0000
  C   C131      1.0  0.66040  0.10230  0.49997  1.0000
  C   C132      1.0  0.55810  0.66040  0.33330  1.0000
  C   C133      1.0  0.48300  0.11270  0.03151  1.0000
  C   C134      1.0  0.37030  0.48300  0.86484  1.0000
  C   C135      1.0  0.88730  0.37030  0.69818  1.0000
  C   C136      1.0  0.51700  0.88730  0.53151  1.0000
  C   C137      1.0  0.62970  0.51700  0.36484  1.0000
  C   C138      1.0  0.11270  0.62970  0.19818  1.0000
  C   C139      1.0  0.88730  0.51700  0.13516  1.0000
  C   C140      1.0  0.37030  0.88730  0.96849  1.0000
  C   C141      1.0  0.48300  0.37030  0.80182  1.0000
  C   C142      1.0  0.11270  0.48300  0.63516  1.0000
  C   C143      1.0  0.62970  0.11270  0.46849  1.0000
  C   C144      1.0  0.51700  0.62970  0.30182  1.0000
  O   O1        1.0  0.28270  0.17830  0.02322  1.0000
  O   O2        1.0  0.10440  0.28270  0.85655  1.0000
  O   O3        1.0  0.82170  0.10440  0.68989  1.0000
  O   O4        1.0  0.71730  0.82170  0.52322  1.0000
  O   O5        1.0  0.89560  0.71730  0.35655  1.0000
  O   O6        1.0  0.17830  0.89560  0.18989  1.0000
  O   O7        1.0  0.82170  0.71730  0.14345  1.0000
  O   O8        1.0  0.10440  0.82170  0.97678  1.0000
  O   O9        1.0  0.28270  0.10440  0.81011  1.0000
  O   O10       1.0  0.17830  0.28270  0.64345  1.0000
  O   O11       1.0  0.89560  0.17830  0.47678  1.0000
  O   O12       1.0  0.71730  0.89560  0.31011  1.0000
  O   O13       1.0  0.14740  0.10790  0.02150  1.0000
  O   O14       1.0  0.03950  0.14740  0.85483  1.0000
  O   O15       1.0  0.89210  0.03950  0.68817  1.0000
  O   O16       1.0  0.85260  0.89210  0.52150  1.0000
  O   O17       1.0  0.96050  0.85260  0.35483  1.0000
  O   O18       1.0  0.10790  0.96050  0.18817  1.0000
  O   O19       1.0  0.89210  0.85260  0.14517  1.0000
  O   O20       1.0  0.03950  0.89210  0.97850  1.0000
  O   O21       1.0  0.14740  0.03950  0.81183  1.0000
  O   O22       1.0  0.10790  0.14740  0.64517  1.0000
  O   O23       1.0  0.96050  0.10790  0.47850  1.0000
  O   O24       1.0  0.85260  0.96050  0.31183  1.0000
  O   O25       1.0  0.29160  0.06300  0.05067  1.0000
  O   O26       1.0  0.22860  0.29160  0.88400  1.0000
  O   O27       1.0  0.93700  0.22860  0.71734  1.0000
  O   O28       1.0  0.70840  0.93700  0.55067  1.0000
  O   O29       1.0  0.77140  0.70840  0.38400  1.0000
  O   O30       1.0  0.06300  0.77140  0.21734  1.0000
  O   O31       1.0  0.93700  0.70840  0.11600  1.0000
  O   O32       1.0  0.22860  0.93700  0.94933  1.0000
  O   O33       1.0  0.29160  0.22860  0.78266  1.0000
  O   O34       1.0  0.06300  0.29160  0.61600  1.0000
  O   O35       1.0  0.77140  0.06300  0.44933  1.0000
  O   O36       1.0  0.70840  0.77140  0.28266  1.0000
  O   O37       1.0  0.15900  0.97970  0.04950  1.0000
  O   O38       1.0  0.17930  0.15900  0.88283  1.0000
  O   O39       1.0  0.02030  0.17930  0.71617  1.0000
  O   O40       1.0  0.84100  0.02030  0.54950  1.0000
  O   O41       1.0  0.82070  0.84100  0.38283  1.0000
  O   O42       1.0  0.97970  0.82070  0.21617  1.0000
  O   O43       1.0  0.02030  0.84100  0.11717  1.0000
  O   O44       1.0  0.17930  0.02030  0.95050  1.0000
  O   O45       1.0  0.15900  0.17930  0.78383  1.0000
  O   O46       1.0  0.97970  0.15900  0.61717  1.0000
  O   O47       1.0  0.82070  0.97970  0.45050  1.0000
  O   O48       1.0  0.84100  0.82070  0.28383  1.0000
  O   O49       1.0  0.38150  0.22510  0.07758  1.0000
  O   O50       1.0  0.15640  0.38150  0.91091  1.0000
  O   O51       1.0  0.77490  0.15640  0.74425  1.0000
  O   O52       1.0  0.61850  0.77490  0.57758  1.0000
  O   O53       1.0  0.84360  0.61850  0.41091  1.0000
  O   O54       1.0  0.22510  0.84360  0.24425  1.0000
  O   O55       1.0  0.77490  0.61850  0.08909  1.0000
  O   O56       1.0  0.15640  0.77490  0.92242  1.0000
  O   O57       1.0  0.38150  0.15640  0.75575  1.0000
  O   O58       1.0  0.22510  0.38150  0.58909  1.0000
  O   O59       1.0  0.84360  0.22510  0.42242  1.0000
  O   O60       1.0  0.61850  0.84360  0.25575  1.0000
  O   O61       1.0  0.44450  0.34940  0.09848  1.0000
  O   O62       1.0  0.09510  0.44450  0.93181  1.0000
  O   O63       1.0  0.65060  0.09510  0.76515  1.0000
  O   O64       1.0  0.55550  0.65060  0.59848  1.0000
  O   O65       1.0  0.90490  0.55550  0.43181  1.0000
  O   O66       1.0  0.34940  0.90490  0.26515  1.0000
  O   O67       1.0  0.65060  0.55550  0.06819  1.0000
  O   O68       1.0  0.09510  0.65060  0.90152  1.0000
  O   O69       1.0  0.44450  0.09510  0.73485  1.0000
  O   O70       1.0  0.34940  0.44450  0.56819  1.0000
  O   O71       1.0  0.90490  0.34940  0.40152  1.0000
  O   O72       1.0  0.55550  0.90490  0.23485  1.0000
  O   O73       1.0  0.45590  0.28440  0.02492  1.0000
  O   O74       1.0  0.17150  0.45590  0.85825  1.0000
  O   O75       1.0  0.71560  0.17150  0.69159  1.0000
  O   O76       1.0  0.54410  0.71560  0.52492  1.0000
  O   O77       1.0  0.82850  0.54410  0.35825  1.0000
  O   O78       1.0  0.28440  0.82850  0.19159  1.0000
  O   O79       1.0  0.71560  0.54410  0.14175  1.0000
  O   O80       1.0  0.17150  0.71560  0.97508  1.0000
  O   O81       1.0  0.45590  0.17150  0.80841  1.0000
  O   O82       1.0  0.28440  0.45590  0.64175  1.0000
  O   O83       1.0  0.82850  0.28440  0.47508  1.0000
  O   O84       1.0  0.54410  0.82850  0.30841  1.0000
  O   O85       1.0  0.51550  0.41320  0.04346  1.0000
  O   O86       1.0  0.10230  0.51550  0.87679  1.0000
  O   O87       1.0  0.58680  0.10230  0.71013  1.0000
  O   O88       1.0  0.48450  0.58680  0.54346  1.0000
  O   O89       1.0  0.89770  0.48450  0.37679  1.0000
  O   O90       1.0  0.41320  0.89770  0.21013  1.0000
  O   O91       1.0  0.58680  0.48450  0.12321  1.0000
  O   O92       1.0  0.10230  0.58680  0.95654  1.0000
  O   O93       1.0  0.51550  0.10230  0.78987  1.0000
  O   O94       1.0  0.41320  0.51550  0.62321  1.0000
  O   O95       1.0  0.89770  0.41320  0.45654  1.0000
  O   O96       1.0  0.48450  0.89770  0.28987  1.0000
  O   O97       1.0  0.42740  0.48200  0.12252  1.0000
  O   O98       1.0  0.94540  0.42740  0.95585  1.0000
  O   O99       1.0  0.51800  0.94540  0.78919  1.0000
  O   O100      1.0  0.57260  0.51800  0.62252  1.0000
  O   O101      1.0  0.05460  0.57260  0.45585  1.0000
  O   O102      1.0  0.48200  0.05460  0.28919  1.0000
  O   O103      1.0  0.51800  0.57260  0.04415  1.0000
  O   O104      1.0  0.94540  0.51800  0.87748  1.0000
  O   O105      1.0  0.42740  0.94540  0.71081  1.0000
  O   O106      1.0  0.48200  0.42740  0.54415  1.0000
  O   O107      1.0  0.05460  0.48200  0.37748  1.0000
  O   O108      1.0  0.57260  0.05460  0.21081  1.0000
  O   O109      1.0  0.29520  0.42060  0.13673  1.0000
  O   O110      1.0  0.87460  0.29520  0.97006  1.0000
  O   O111      1.0  0.57940  0.87460  0.80340  1.0000
  O   O112      1.0  0.70480  0.57940  0.63673  1.0000
  O   O113      1.0  0.12540  0.70480  0.47006  1.0000
  O   O114      1.0  0.42060  0.12540  0.30340  1.0000
  O   O115      1.0  0.57940  0.70480  0.02994  1.0000
  O   O116      1.0  0.87460  0.57940  0.86327  1.0000
  O   O117      1.0  0.29520  0.87460  0.69660  1.0000
  O   O118      1.0  0.42060  0.29520  0.52994  1.0000
  O   O119      1.0  0.12540  0.42060  0.36327  1.0000
  O   O120      1.0  0.70480  0.12540  0.19660  1.0000
  O   O121      1.0  0.37850  0.43160  0.06393  1.0000
  O   O122      1.0  0.94690  0.37850  0.89726  1.0000
  O   O123      1.0  0.56840  0.94690  0.73060  1.0000
  O   O124      1.0  0.62150  0.56840  0.56393  1.0000
  O   O125      1.0  0.05310  0.62150  0.39726  1.0000
  O   O126      1.0  0.43160  0.05310  0.23060  1.0000
  O   O127      1.0  0.56840  0.62150  0.10274  1.0000
  O   O128      1.0  0.94690  0.56840  0.93607  1.0000
  O   O129      1.0  0.37850  0.94690  0.76940  1.0000
  O   O130      1.0  0.43160  0.37850  0.60274  1.0000
  O   O131      1.0  0.05310  0.43160  0.43607  1.0000
  O   O132      1.0  0.62150  0.05310  0.26940  1.0000
  O   O133      1.0  0.24920  0.36650  0.07963  1.0000
  O   O134      1.0  0.88270  0.24920  0.91296  1.0000
  O   O135      1.0  0.63350  0.88270  0.74630  1.0000
  O   O136      1.0  0.75080  0.63350  0.57963  1.0000
  O   O137      1.0  0.11730  0.75080  0.41296  1.0000
  O   O138      1.0  0.36650  0.11730  0.24630  1.0000
  O   O139      1.0  0.63350  0.75080  0.08704  1.0000
  O   O140      1.0  0.88270  0.63350  0.92037  1.0000
  O   O141      1.0  0.24920  0.88270  0.75370  1.0000
  O   O142      1.0  0.36650  0.24920  0.58704  1.0000
  O   O143      1.0  0.11730  0.36650  0.42037  1.0000
  O   O144      1.0  0.75080  0.11730  0.25370  1.0000
  O   O145      1.0  0.08720  0.25960  0.09754  1.0000
  O   O146      1.0  0.82760  0.08720  0.93087  1.0000
  O   O147      1.0  0.74040  0.82760  0.76421  1.0000
  O   O148      1.0  0.91280  0.74040  0.59754  1.0000
  O   O149      1.0  0.17240  0.91280  0.43087  1.0000
  O   O150      1.0  0.25960  0.17240  0.26421  1.0000
  O   O151      1.0  0.74040  0.91280  0.06913  1.0000
  O   O152      1.0  0.82760  0.74040  0.90246  1.0000
  O   O153      1.0  0.08720  0.82760  0.73579  1.0000
  O   O154      1.0  0.25960  0.08720  0.56913  1.0000
  O   O155      1.0  0.17240  0.25960  0.40246  1.0000
  O   O156      1.0  0.91280  0.17240  0.23579  1.0000
  O   O157      1.0  0.03280  0.13240  0.07967  1.0000
  O   O158      1.0  0.90040  0.03280  0.91300  1.0000
  O   O159      1.0  0.86760  0.90040  0.74634  1.0000
  O   O160      1.0  0.96720  0.86760  0.57967  1.0000
  O   O161      1.0  0.09960  0.96720  0.41300  1.0000
  O   O162      1.0  0.13240  0.09960  0.24634  1.0000
  O   O163      1.0  0.86760  0.96720  0.08700  1.0000
  O   O164      1.0  0.90040  0.86760  0.92033  1.0000
  O   O165      1.0  0.03280  0.90040  0.75366  1.0000
  O   O166      1.0  0.13240  0.03280  0.58700  1.0000
  O   O167      1.0  0.09960  0.13240  0.42033  1.0000
  O   O168      1.0  0.96720  0.09960  0.25366  1.0000
  O   O169      1.0  0.20220  0.24990  0.12687  1.0000
  O   O170      1.0  0.95230  0.20220  0.96020  1.0000
  O   O171      1.0  0.75010  0.95230  0.79354  1.0000
  O   O172      1.0  0.79780  0.75010  0.62687  1.0000
  O   O173      1.0  0.04770  0.79780  0.46020  1.0000
  O   O174      1.0  0.24990  0.04770  0.29354  1.0000
  O   O175      1.0  0.75010  0.79780  0.03980  1.0000
  O   O176      1.0  0.95230  0.75010  0.87313  1.0000
  O   O177      1.0  0.20220  0.95230  0.70646  1.0000
  O   O178      1.0  0.24990  0.20220  0.53980  1.0000
  O   O179      1.0  0.04770  0.24990  0.37313  1.0000
  O   O180      1.0  0.79780  0.04770  0.20646  1.0000
  O   O181      1.0  0.14930  0.11860  0.11318  1.0000
  O   O182      1.0  0.03070  0.14930  0.94651  1.0000
  O   O183      1.0  0.88140  0.03070  0.77985  1.0000
  O   O184      1.0  0.85070  0.88140  0.61318  1.0000
  O   O185      1.0  0.96930  0.85070  0.44651  1.0000
  O   O186      1.0  0.11860  0.96930  0.27985  1.0000
  O   O187      1.0  0.88140  0.85070  0.05349  1.0000
  O   O188      1.0  0.03070  0.88140  0.88682  1.0000
  O   O189      1.0  0.14930  0.03070  0.72015  1.0000
  O   O190      1.0  0.11860  0.14930  0.55349  1.0000
  O   O191      1.0  0.96930  0.11860  0.38682  1.0000
  O   O192      1.0  0.85070  0.96930  0.22015  1.0000
  O   O193      1.0  0.72870  0.15660  0.94286  1.0000
  O   O194      1.0  0.57210  0.72870  0.77619  1.0000
  O   O195      1.0  0.84340  0.57210  0.60953  1.0000
  O   O196      1.0  0.27130  0.84340  0.44286  1.0000
  O   O197      1.0  0.42790  0.27130  0.27619  1.0000
  O   O198      1.0  0.15660  0.42790  0.10953  1.0000
  O   O199      1.0  0.84340  0.27130  0.22381  1.0000
  O   O200      1.0  0.57210  0.84340  0.05714  1.0000
  O   O201      1.0  0.72870  0.57210  0.89047  1.0000
  O   O202      1.0  0.15660  0.72870  0.72381  1.0000
  O   O203      1.0  0.42790  0.15660  0.55714  1.0000
  O   O204      1.0  0.27130  0.42790  0.39047  1.0000
  O   O205      1.0  0.60430  0.07830  0.96174  1.0000
  O   O206      1.0  0.52600  0.60430  0.79507  1.0000
  O   O207      1.0  0.92170  0.52600  0.62841  1.0000
  O   O208      1.0  0.39570  0.92170  0.46174  1.0000
  O   O209      1.0  0.47400  0.39570  0.29507  1.0000
  O   O210      1.0  0.07830  0.47400  0.12841  1.0000
  O   O211      1.0  0.92170  0.39570  0.20493  1.0000
  O   O212      1.0  0.52600  0.92170  0.03826  1.0000
  O   O213      1.0  0.60430  0.52600  0.87159  1.0000
  O   O214      1.0  0.07830  0.60430  0.70493  1.0000
  O   O215      1.0  0.47400  0.07830  0.53826  1.0000
  O   O216      1.0  0.39570  0.47400  0.37159  1.0000
  O   O217      1.0  0.79460  0.13200  0.99168  1.0000
  O   O218      1.0  0.66260  0.79460  0.82501  1.0000
  O   O219      1.0  0.86800  0.66260  0.65835  1.0000
  O   O220      1.0  0.20540  0.86800  0.49168  1.0000
  O   O221      1.0  0.33740  0.20540  0.32501  1.0000
  O   O222      1.0  0.13200  0.33740  0.15835  1.0000
  O   O223      1.0  0.86800  0.20540  0.17499  1.0000
  O   O224      1.0  0.66260  0.86800  0.00832  1.0000
  O   O225      1.0  0.79460  0.66260  0.84165  1.0000
  O   O226      1.0  0.13200  0.79460  0.67499  1.0000
  O   O227      1.0  0.33740  0.13200  0.50832  1.0000
  O   O228      1.0  0.20540  0.33740  0.34165  1.0000
  O   O229      1.0  0.67330  0.07380  0.01569  1.0000
  O   O230      1.0  0.59950  0.67330  0.84902  1.0000
  O   O231      1.0  0.92620  0.59950  0.68236  1.0000
  O   O232      1.0  0.32670  0.92620  0.51569  1.0000
  O   O233      1.0  0.40050  0.32670  0.34902  1.0000
  O   O234      1.0  0.07380  0.40050  0.18236  1.0000
  O   O235      1.0  0.92620  0.32670  0.15098  1.0000
  O   O236      1.0  0.59950  0.92620  0.98431  1.0000
  O   O237      1.0  0.67330  0.59950  0.81764  1.0000
  O   O238      1.0  0.07380  0.67330  0.65098  1.0000
  O   O239      1.0  0.40050  0.07380  0.48431  1.0000
  O   O240      1.0  0.32670  0.40050  0.31764  1.0000
  O   O241      1.0  0.45810  0.06740  0.97946  1.0000
  O   O242      1.0  0.39070  0.45810  0.81279  1.0000
  O   O243      1.0  0.93260  0.39070  0.64613  1.0000
  O   O244      1.0  0.54190  0.93260  0.47946  1.0000
  O   O245      1.0  0.60930  0.54190  0.31279  1.0000
  O   O246      1.0  0.06740  0.60930  0.14613  1.0000
  O   O247      1.0  0.93260  0.54190  0.18721  1.0000
  O   O248      1.0  0.39070  0.93260  0.02054  1.0000
  O   O249      1.0  0.45810  0.39070  0.85387  1.0000
  O   O250      1.0  0.06740  0.45810  0.68721  1.0000
  O   O251      1.0  0.60930  0.06740  0.52054  1.0000
  O   O252      1.0  0.54190  0.60930  0.35387  1.0000
  O   O253      1.0  0.39050  0.12790  0.99843  1.0000
  O   O254      1.0  0.26260  0.39050  0.83176  1.0000
  O   O255      1.0  0.87210  0.26260  0.66510  1.0000
  O   O256      1.0  0.60950  0.87210  0.49843  1.0000
  O   O257      1.0  0.73740  0.60950  0.33176  1.0000
  O   O258      1.0  0.12790  0.73740  0.16510  1.0000
  O   O259      1.0  0.87210  0.60950  0.16824  1.0000
  O   O260      1.0  0.26260  0.87210  0.00157  1.0000
  O   O261      1.0  0.39050  0.26260  0.83490  1.0000
  O   O262      1.0  0.12790  0.39050  0.66824  1.0000
  O   O263      1.0  0.73740  0.12790  0.50157  1.0000
  O   O264      1.0  0.60950  0.73740  0.33490  1.0000
  O   O265      1.0  0.53280  0.08760  0.03476  1.0000
  O   O266      1.0  0.44520  0.53280  0.86809  1.0000
  O   O267      1.0  0.91240  0.44520  0.70143  1.0000
  O   O268      1.0  0.46720  0.91240  0.53476  1.0000
  O   O269      1.0  0.55480  0.46720  0.36809  1.0000
  O   O270      1.0  0.08760  0.55480  0.20143  1.0000
  O   O271      1.0  0.91240  0.46720  0.13191  1.0000
  O   O272      1.0  0.44520  0.91240  0.96524  1.0000
  O   O273      1.0  0.53280  0.44520  0.79857  1.0000
  O   O274      1.0  0.08760  0.53280  0.63191  1.0000
  O   O275      1.0  0.55480  0.08760  0.46524  1.0000
  O   O276      1.0  0.46720  0.55480  0.29857  1.0000
  O   O277      1.0  0.46430  0.14960  0.05191  1.0000
  O   O278      1.0  0.31470  0.46430  0.88524  1.0000
  O   O279      1.0  0.85040  0.31470  0.71858  1.0000
  O   O280      1.0  0.53570  0.85040  0.55191  1.0000
  O   O281      1.0  0.68530  0.53570  0.38524  1.0000
  O   O282      1.0  0.14960  0.68530  0.21858  1.0000
  O   O283      1.0  0.85040  0.53570  0.11476  1.0000
  O   O284      1.0  0.31470  0.85040  0.94809  1.0000
  O   O285      1.0  0.46430  0.31470  0.78142  1.0000
  O   O286      1.0  0.14960  0.46430  0.61476  1.0000
  O   O287      1.0  0.68530  0.14960  0.44809  1.0000
  O   O288      1.0  0.53570  0.68530  0.28142  1.0000
