data_image0
_chemical_formula_structural       Co16O72H8C32H8C8H8C8H8C16H8C24H8C8H8C32
_chemical_formula_sum              "Co16 O72 H56 C128"
_cell_length_a       14.62
_cell_length_b       18.975
_cell_length_c       13.793
_cell_angle_alpha    90
_cell_angle_beta     97.37
_cell_angle_gamma    90

_space_group_name_H-M_alt    "P 1"
_space_group_IT_number       1

loop_
  _space_group_symop_operation_xyz
  'x, y, z'

loop_
  _atom_site_type_symbol
  _atom_site_label
  _atom_site_symmetry_multiplicity
  _atom_site_fract_x
  _atom_site_fract_y
  _atom_site_fract_z
  _atom_site_occupancy
  Co  Co1       1.0  0.00000  0.00000  0.00000  1.0000
  Co  Co2       1.0  0.00000  0.00000  0.50000  1.0000
  Co  Co3       1.0  0.50000  0.50000  0.00000  1.0000
  Co  Co4       1.0  0.50000  0.50000  0.50000  1.0000
  Co  Co5       1.0  0.10592  0.97266  0.33057  1.0000
  Co  Co6       1.0  0.89408  0.97266  0.16943  1.0000
  Co  Co7       1.0  0.60592  0.47266  0.33057  1.0000
  Co  Co8       1.0  0.39408  0.47266  0.16943  1.0000
  Co  Co9       1.0  0.89408  0.02734  0.66943  1.0000
  Co  Co10      1.0  0.10592  0.02734  0.83057  1.0000
  Co  Co11      1.0  0.39408  0.52734  0.66943  1.0000
  Co  Co12      1.0  0.60592  0.52734  0.83057  1.0000
  Co  Co13      1.0  0.00000  0.81667  0.25000  1.0000
  Co  Co14      1.0  0.50000  0.31667  0.25000  1.0000
  Co  Co15      1.0  0.00000  0.18333  0.75000  1.0000
  Co  Co16      1.0  0.50000  0.68333  0.75000  1.0000
  O   O1        1.0  0.12777  0.81577  0.19954  1.0000
  O   O2        1.0  0.87223  0.81577  0.30046  1.0000
  O   O3        1.0  0.62777  0.31577  0.19954  1.0000
  O   O4        1.0  0.37223  0.31577  0.30046  1.0000
  O   O5        1.0  0.87223  0.18423  0.80046  1.0000
  O   O6        1.0  0.12777  0.18423  0.69954  1.0000
  O   O7        1.0  0.37223  0.68423  0.80046  1.0000
  O   O8        1.0  0.62777  0.68423  0.69954  1.0000
  O   O9        1.0  0.20320  0.91180  0.26614  1.0000
  O   O10       1.0  0.79680  0.91180  0.23386  1.0000
  O   O11       1.0  0.70320  0.41180  0.26614  1.0000
  O   O12       1.0  0.29680  0.41180  0.23386  1.0000
  O   O13       1.0  0.79680  0.08820  0.73386  1.0000
  O   O14       1.0  0.20320  0.08820  0.76614  1.0000
  O   O15       1.0  0.29680  0.58820  0.73386  1.0000
  O   O16       1.0  0.70320  0.58820  0.76614  1.0000
  O   O17       1.0  0.11418  0.94219  0.05276  1.0000
  O   O18       1.0  0.88582  0.94219  0.44724  1.0000
  O   O19       1.0  0.61418  0.44219  0.05276  1.0000
  O   O20       1.0  0.38582  0.44219  0.44724  1.0000
  O   O21       1.0  0.88582  0.05781  0.94724  1.0000
  O   O22       1.0  0.11418  0.05781  0.55276  1.0000
  O   O23       1.0  0.38582  0.55781  0.94724  1.0000
  O   O24       1.0  0.61418  0.55781  0.55276  1.0000
  O   O25       1.0  0.19503  0.96724  0.92847  1.0000
  O   O26       1.0  0.80497  0.96724  0.57153  1.0000
  O   O27       1.0  0.69503  0.46724  0.92847  1.0000
  O   O28       1.0  0.30497  0.46724  0.57153  1.0000
  O   O29       1.0  0.80497  0.03276  0.07153  1.0000
  O   O30       1.0  0.19503  0.03276  0.42847  1.0000
  O   O31       1.0  0.30497  0.53276  0.07153  1.0000
  O   O32       1.0  0.69503  0.53276  0.42847  1.0000
  O   O33       1.0  0.36667  0.54447  0.27238  1.0000
  O   O34       1.0  0.63333  0.54447  0.22762  1.0000
  O   O35       1.0  0.86667  0.04447  0.27238  1.0000
  O   O36       1.0  0.13333  0.04447  0.22762  1.0000
  O   O37       1.0  0.63333  0.45553  0.72762  1.0000
  O   O38       1.0  0.36667  0.45553  0.77238  1.0000
  O   O39       1.0  0.13333  0.95553  0.72762  1.0000
  O   O40       1.0  0.86667  0.95553  0.77238  1.0000
  O   O41       1.0  0.50087  0.55520  0.37163  1.0000
  O   O42       1.0  0.49913  0.55520  0.12837  1.0000
  O   O43       1.0  0.00087  0.05520  0.37163  1.0000
  O   O44       1.0  0.99913  0.05520  0.12837  1.0000
  O   O45       1.0  0.49913  0.44480  0.62837  1.0000
  O   O46       1.0  0.50087  0.44480  0.87163  1.0000
  O   O47       1.0  0.99913  0.94480  0.62837  1.0000
  O   O48       1.0  0.00087  0.94480  0.87163  1.0000
  O   O49       1.0  0.41276  0.58431  0.54172  1.0000
  O   O50       1.0  0.58724  0.58431  0.95828  1.0000
  O   O51       1.0  0.91276  0.08431  0.54172  1.0000
  O   O52       1.0  0.08724  0.08431  0.95828  1.0000
  O   O53       1.0  0.58724  0.41569  0.45828  1.0000
  O   O54       1.0  0.41276  0.41569  0.04172  1.0000
  O   O55       1.0  0.08724  0.91569  0.45828  1.0000
  O   O56       1.0  0.91276  0.91569  0.04172  1.0000
  O   O57       1.0  0.43927  0.69227  0.60657  1.0000
  O   O58       1.0  0.56073  0.69227  0.89343  1.0000
  O   O59       1.0  0.93927  0.19227  0.60657  1.0000
  O   O60       1.0  0.06073  0.19227  0.89343  1.0000
  O   O61       1.0  0.56073  0.30773  0.39343  1.0000
  O   O62       1.0  0.43927  0.30773  0.10657  1.0000
  O   O63       1.0  0.06073  0.80773  0.39343  1.0000
  O   O64       1.0  0.93927  0.80773  0.10657  1.0000
  O   O65       1.0  0.00000  0.92526  0.25000  1.0000
  O   O66       1.0  0.50000  0.42526  0.25000  1.0000
  O   O67       1.0  0.00000  0.07474  0.75000  1.0000
  O   O68       1.0  0.50000  0.57474  0.75000  1.0000
  O   O69       1.0  0.00000  0.70480  0.25000  1.0000
  O   O70       1.0  0.50000  0.20480  0.25000  1.0000
  O   O71       1.0  0.00000  0.29520  0.75000  1.0000
  O   O72       1.0  0.50000  0.79520  0.75000  1.0000
  H   H1        1.0  0.95720  0.67920  0.26090  1.0000
  H   H2        1.0  0.04280  0.67920  0.23910  1.0000
  H   H3        1.0  0.45720  0.17920  0.26090  1.0000
  H   H4        1.0  0.54280  0.17920  0.23910  1.0000
  H   H5        1.0  0.04280  0.32080  0.73910  1.0000
  H   H6        1.0  0.95720  0.32080  0.76090  1.0000
  H   H7        1.0  0.54280  0.82080  0.73910  1.0000
  H   H8        1.0  0.45720  0.82080  0.76090  1.0000
  C   C1        1.0  0.33385  0.79963  0.16346  1.0000
  C   C2        1.0  0.66615  0.79963  0.33654  1.0000
  C   C3        1.0  0.83385  0.29963  0.16346  1.0000
  C   C4        1.0  0.16615  0.29963  0.33654  1.0000
  C   C5        1.0  0.66615  0.20037  0.83654  1.0000
  C   C6        1.0  0.33385  0.20037  0.66346  1.0000
  C   C7        1.0  0.16615  0.70037  0.83654  1.0000
  C   C8        1.0  0.83385  0.70037  0.66346  1.0000
  C   C9        1.0  0.26264  0.84875  0.13612  1.0000
  C   C10       1.0  0.73736  0.84875  0.36388  1.0000
  C   C11       1.0  0.76264  0.34875  0.13612  1.0000
  C   C12       1.0  0.23736  0.34875  0.36388  1.0000
  C   C13       1.0  0.73736  0.15125  0.86388  1.0000
  C   C14       1.0  0.26264  0.15125  0.63612  1.0000
  C   C15       1.0  0.23736  0.65125  0.86388  1.0000
  C   C16       1.0  0.76264  0.65125  0.63612  1.0000
  C   C17       1.0  0.25482  0.87993  0.04245  1.0000
  C   C18       1.0  0.74518  0.87993  0.45755  1.0000
  C   C19       1.0  0.75482  0.37993  0.04245  1.0000
  C   C20       1.0  0.24518  0.37993  0.45755  1.0000
  C   C21       1.0  0.74518  0.12007  0.95755  1.0000
  C   C22       1.0  0.25482  0.12007  0.54245  1.0000
  C   C23       1.0  0.24518  0.62007  0.95755  1.0000
  C   C24       1.0  0.75482  0.62007  0.54245  1.0000
  C   C25       1.0  0.31390  0.85817  0.97540  1.0000
  C   C26       1.0  0.68610  0.85817  0.52460  1.0000
  C   C27       1.0  0.81390  0.35817  0.97540  1.0000
  C   C28       1.0  0.18610  0.35817  0.52460  1.0000
  C   C29       1.0  0.68610  0.14183  0.02460  1.0000
  C   C30       1.0  0.31390  0.14183  0.47540  1.0000
  C   C31       1.0  0.18610  0.64183  0.02460  1.0000
  C   C32       1.0  0.81390  0.64183  0.47540  1.0000
  H   H9        1.0  0.30650  0.87750  0.91140  1.0000
  H   H10       1.0  0.69350  0.87750  0.58860  1.0000
  H   H11       1.0  0.80650  0.37750  0.91140  1.0000
  H   H12       1.0  0.19350  0.37750  0.58860  1.0000
  H   H13       1.0  0.69350  0.12250  0.08860  1.0000
  H   H14       1.0  0.30650  0.12250  0.41140  1.0000
  H   H15       1.0  0.19350  0.62250  0.08860  1.0000
  H   H16       1.0  0.80650  0.62250  0.41140  1.0000
  C   C33       1.0  0.38310  0.80892  0.00120  1.0000
  C   C34       1.0  0.61690  0.80892  0.49880  1.0000
  C   C35       1.0  0.88310  0.30892  0.00120  1.0000
  C   C36       1.0  0.11690  0.30892  0.49880  1.0000
  C   C37       1.0  0.61690  0.19108  0.99880  1.0000
  C   C38       1.0  0.38310  0.19108  0.50120  1.0000
  C   C39       1.0  0.11690  0.69108  0.99880  1.0000
  C   C40       1.0  0.88310  0.69108  0.50120  1.0000
  H   H17       1.0  0.42220  0.79430  0.95510  1.0000
  H   H18       1.0  0.57780  0.79430  0.54490  1.0000
  H   H19       1.0  0.92220  0.29430  0.95510  1.0000
  H   H20       1.0  0.07780  0.29430  0.54490  1.0000
  H   H21       1.0  0.57780  0.20570  0.04490  1.0000
  H   H22       1.0  0.42220  0.20570  0.45510  1.0000
  H   H23       1.0  0.07780  0.70570  0.04490  1.0000
  H   H24       1.0  0.92220  0.70570  0.45510  1.0000
  C   C41       1.0  0.39423  0.78142  0.09520  1.0000
  C   C42       1.0  0.60577  0.78142  0.40480  1.0000
  C   C43       1.0  0.89423  0.28142  0.09520  1.0000
  C   C44       1.0  0.10577  0.28142  0.40480  1.0000
  C   C45       1.0  0.60577  0.21858  0.90480  1.0000
  C   C46       1.0  0.39423  0.21858  0.59520  1.0000
  C   C47       1.0  0.10577  0.71858  0.90480  1.0000
  C   C48       1.0  0.89423  0.71858  0.59520  1.0000
  H   H25       1.0  0.44350  0.74970  0.11410  1.0000
  H   H26       1.0  0.55650  0.74970  0.38590  1.0000
  H   H27       1.0  0.94350  0.24970  0.11410  1.0000
  H   H28       1.0  0.05650  0.24970  0.38590  1.0000
  H   H29       1.0  0.55650  0.25030  0.88590  1.0000
  H   H30       1.0  0.44350  0.25030  0.61410  1.0000
  H   H31       1.0  0.05650  0.75030  0.88590  1.0000
  H   H32       1.0  0.94350  0.75030  0.61410  1.0000
  C   C49       1.0  0.34869  0.76267  0.25978  1.0000
  C   C50       1.0  0.65131  0.76267  0.24022  1.0000
  C   C51       1.0  0.84869  0.26267  0.25978  1.0000
  C   C52       1.0  0.15131  0.26267  0.24022  1.0000
  C   C53       1.0  0.65131  0.23733  0.74022  1.0000
  C   C54       1.0  0.34869  0.23733  0.75978  1.0000
  C   C55       1.0  0.15131  0.73733  0.74022  1.0000
  C   C56       1.0  0.84869  0.73733  0.75978  1.0000
  C   C57       1.0  0.37150  0.69076  0.26054  1.0000
  C   C58       1.0  0.62850  0.69076  0.23946  1.0000
  C   C59       1.0  0.87150  0.19076  0.26054  1.0000
  C   C60       1.0  0.12850  0.19076  0.23946  1.0000
  C   C61       1.0  0.62850  0.30924  0.73946  1.0000
  C   C62       1.0  0.37150  0.30924  0.76054  1.0000
  C   C63       1.0  0.12850  0.80924  0.73946  1.0000
  C   C64       1.0  0.87150  0.80924  0.76054  1.0000
  H   H33       1.0  0.37070  0.66670  0.20000  1.0000
  H   H34       1.0  0.62930  0.66670  0.30000  1.0000
  H   H35       1.0  0.87070  0.16670  0.20000  1.0000
  H   H36       1.0  0.12930  0.16670  0.30000  1.0000
  H   H37       1.0  0.62930  0.33330  0.80000  1.0000
  H   H38       1.0  0.37070  0.33330  0.70000  1.0000
  H   H39       1.0  0.12930  0.83330  0.80000  1.0000
  H   H40       1.0  0.87070  0.83330  0.70000  1.0000
  C   C65       1.0  0.39544  0.65323  0.34770  1.0000
  C   C66       1.0  0.60456  0.65323  0.15230  1.0000
  C   C67       1.0  0.89544  0.15323  0.34770  1.0000
  C   C68       1.0  0.10456  0.15323  0.15230  1.0000
  C   C69       1.0  0.60456  0.34677  0.65230  1.0000
  C   C70       1.0  0.39544  0.34677  0.84770  1.0000
  C   C71       1.0  0.10456  0.84677  0.65230  1.0000
  C   C72       1.0  0.89544  0.84677  0.84770  1.0000
  C   C73       1.0  0.39439  0.68718  0.43787  1.0000
  C   C74       1.0  0.60561  0.68718  0.06213  1.0000
  C   C75       1.0  0.89439  0.18718  0.43787  1.0000
  C   C76       1.0  0.10561  0.18718  0.06213  1.0000
  C   C77       1.0  0.60561  0.31282  0.56213  1.0000
  C   C78       1.0  0.39439  0.31282  0.93787  1.0000
  C   C79       1.0  0.10561  0.81282  0.56213  1.0000
  C   C80       1.0  0.89439  0.81282  0.93787  1.0000
  C   C81       1.0  0.36768  0.75834  0.43741  1.0000
  C   C82       1.0  0.63232  0.75834  0.06259  1.0000
  C   C83       1.0  0.86768  0.25834  0.43741  1.0000
  C   C84       1.0  0.13232  0.25834  0.06259  1.0000
  C   C85       1.0  0.63232  0.24166  0.56259  1.0000
  C   C86       1.0  0.36768  0.24166  0.93741  1.0000
  C   C87       1.0  0.13232  0.74166  0.56259  1.0000
  C   C88       1.0  0.86768  0.74166  0.93741  1.0000
  H   H41       1.0  0.36450  0.78150  0.49790  1.0000
  H   H42       1.0  0.63550  0.78150  0.00210  1.0000
  H   H43       1.0  0.86450  0.28150  0.49790  1.0000
  H   H44       1.0  0.13550  0.28150  0.00210  1.0000
  H   H45       1.0  0.63550  0.21850  0.50210  1.0000
  H   H46       1.0  0.36450  0.21850  0.99790  1.0000
  H   H47       1.0  0.13550  0.71850  0.50210  1.0000
  H   H48       1.0  0.86450  0.71850  0.99790  1.0000
  C   C89       1.0  0.34566  0.79586  0.35052  1.0000
  C   C90       1.0  0.65434  0.79586  0.14948  1.0000
  C   C91       1.0  0.84566  0.29586  0.35052  1.0000
  C   C92       1.0  0.15434  0.29586  0.14948  1.0000
  C   C93       1.0  0.65434  0.20414  0.64948  1.0000
  C   C94       1.0  0.34566  0.20414  0.85052  1.0000
  C   C95       1.0  0.15434  0.70414  0.64948  1.0000
  C   C96       1.0  0.84566  0.70414  0.85052  1.0000
  H   H49       1.0  0.32850  0.84410  0.35270  1.0000
  H   H50       1.0  0.67150  0.84410  0.14730  1.0000
  H   H51       1.0  0.82850  0.34410  0.35270  1.0000
  H   H52       1.0  0.17150  0.34410  0.14730  1.0000
  H   H53       1.0  0.67150  0.15590  0.64730  1.0000
  H   H54       1.0  0.32850  0.15590  0.85270  1.0000
  H   H55       1.0  0.17150  0.65590  0.64730  1.0000
  H   H56       1.0  0.82850  0.65590  0.85270  1.0000
  C   C97       1.0  0.19127  0.86095  0.20568  1.0000
  C   C98       1.0  0.80873  0.86095  0.29432  1.0000
  C   C99       1.0  0.69127  0.36095  0.20568  1.0000
  C   C100      1.0  0.30873  0.36095  0.29432  1.0000
  C   C101      1.0  0.80873  0.13905  0.79432  1.0000
  C   C102      1.0  0.19127  0.13905  0.70568  1.0000
  C   C103      1.0  0.30873  0.63905  0.79432  1.0000
  C   C104      1.0  0.69127  0.63905  0.70568  1.0000
  C   C105      1.0  0.18205  0.93373  0.00576  1.0000
  C   C106      1.0  0.81795  0.93373  0.49424  1.0000
  C   C107      1.0  0.68205  0.43373  0.00576  1.0000
  C   C108      1.0  0.31795  0.43373  0.49424  1.0000
  C   C109      1.0  0.81795  0.06627  0.99424  1.0000
  C   C110      1.0  0.18205  0.06627  0.50576  1.0000
  C   C111      1.0  0.31795  0.56627  0.99424  1.0000
  C   C112      1.0  0.68205  0.56627  0.50576  1.0000
  C   C113      1.0  0.42240  0.57783  0.33133  1.0000
  C   C114      1.0  0.57760  0.57783  0.16867  1.0000
  C   C115      1.0  0.92240  0.07783  0.33133  1.0000
  C   C116      1.0  0.07760  0.07783  0.16867  1.0000
  C   C117      1.0  0.57760  0.42217  0.66867  1.0000
  C   C118      1.0  0.42240  0.42217  0.83133  1.0000
  C   C119      1.0  0.07760  0.92217  0.66867  1.0000
  C   C120      1.0  0.92240  0.92217  0.83133  1.0000
  C   C121      1.0  0.41828  0.65200  0.53664  1.0000
  C   C122      1.0  0.58172  0.65200  0.96336  1.0000
  C   C123      1.0  0.91828  0.15200  0.53664  1.0000
  C   C124      1.0  0.08172  0.15200  0.96336  1.0000
  C   C125      1.0  0.58172  0.34800  0.46336  1.0000
  C   C126      1.0  0.41828  0.34800  0.03664  1.0000
  C   C127      1.0  0.08172  0.84800  0.46336  1.0000
  C   C128      1.0  0.91828  0.84800  0.03664  1.0000
