data_image0
_chemical_formula_structural       P8F8O32H4C4H8C4H8C4H12V8
_chemical_formula_sum              "P8 F8 O32 H32 C12 V8"
_cell_length_a       7.5609
_cell_length_b       14.189
_cell_length_c       11.174
_cell_angle_alpha    90
_cell_angle_beta     99.04
_cell_angle_gamma    90

_space_group_name_H-M_alt    "P 1"
_space_group_IT_number       1

loop_
  _space_group_symop_operation_xyz
  'x, y, z'

loop_
  _atom_site_type_symbol
  _atom_site_label
  _atom_site_symmetry_multiplicity
  _atom_site_fract_x
  _atom_site_fract_y
  _atom_site_fract_z
  _atom_site_occupancy
  P   P1        1.0  0.78090  0.19873  0.58066  1.0000
  P   P2        1.0  0.71910  0.69873  0.91934  1.0000
  P   P3        1.0  0.21910  0.80127  0.41934  1.0000
  P   P4        1.0  0.28090  0.30127  0.08066  1.0000
  P   P5        1.0  0.72787  0.80182  0.55716  1.0000
  P   P6        1.0  0.77213  0.30182  0.94284  1.0000
  P   P7        1.0  0.27213  0.19818  0.44284  1.0000
  P   P8        1.0  0.22787  0.69818  0.05716  1.0000
  F   F1        1.0  0.31640  0.15869  0.76849  1.0000
  F   F2        1.0  0.18360  0.65869  0.73151  1.0000
  F   F3        1.0  0.68360  0.84131  0.23151  1.0000
  F   F4        1.0  0.81640  0.34131  0.26849  1.0000
  F   F5        1.0  0.24120  0.32794  0.76130  1.0000
  F   F6        1.0  0.25880  0.82794  0.73870  1.0000
  F   F7        1.0  0.75880  0.67206  0.23870  1.0000
  F   F8        1.0  0.74120  0.17206  0.26130  1.0000
  O   O1        1.0  0.63680  0.19414  0.66267  1.0000
  O   O2        1.0  0.86320  0.69414  0.83733  1.0000
  O   O3        1.0  0.36320  0.80586  0.33733  1.0000
  O   O4        1.0  0.13680  0.30586  0.16267  1.0000
  O   O5        1.0  0.96890  0.21166  0.65213  1.0000
  O   O6        1.0  0.53110  0.71166  0.84787  1.0000
  O   O7        1.0  0.03110  0.78834  0.34787  1.0000
  O   O8        1.0  0.46890  0.28834  0.15213  1.0000
  O   O9        1.0  0.01760  0.10067  0.85750  1.0000
  O   O10       1.0  0.48240  0.60067  0.64250  1.0000
  O   O11       1.0  0.98240  0.89933  0.14250  1.0000
  O   O12       1.0  0.51760  0.39933  0.35750  1.0000
  O   O13       1.0  0.58300  0.79724  0.63748  1.0000
  O   O14       1.0  0.91700  0.29724  0.86252  1.0000
  O   O15       1.0  0.41700  0.20276  0.36252  1.0000
  O   O16       1.0  0.08300  0.70276  0.13748  1.0000
  O   O17       1.0  0.74340  0.27778  0.48604  1.0000
  O   O18       1.0  0.75660  0.77778  0.01396  1.0000
  O   O19       1.0  0.25660  0.72222  0.51396  1.0000
  O   O20       1.0  0.24340  0.22222  0.98604  1.0000
  O   O21       1.0  0.91440  0.78112  0.62617  1.0000
  O   O22       1.0  0.58560  0.28112  0.87383  1.0000
  O   O23       1.0  0.08560  0.21888  0.37383  1.0000
  O   O24       1.0  0.41440  0.71888  0.12617  1.0000
  O   O25       1.0  0.68830  0.73224  0.45155  1.0000
  O   O26       1.0  0.81170  0.23224  0.04845  1.0000
  O   O27       1.0  0.31170  0.26776  0.54845  1.0000
  O   O28       1.0  0.18830  0.76776  0.95155  1.0000
  O   O29       1.0  0.55630  0.39399  0.65220  1.0000
  O   O30       1.0  0.94370  0.89399  0.84780  1.0000
  O   O31       1.0  0.44370  0.60601  0.34780  1.0000
  O   O32       1.0  0.05630  0.10601  0.15220  1.0000
  H   H1        1.0  0.50680  0.43990  0.67690  1.0000
  H   H2        1.0  0.99320  0.93990  0.82310  1.0000
  H   H3        1.0  0.49320  0.56010  0.32310  1.0000
  H   H4        1.0  0.00680  0.06010  0.17690  1.0000
  C   C1        1.0  0.77020  0.08930  0.50210  1.0000
  C   C2        1.0  0.72980  0.58930  0.99790  1.0000
  C   C3        1.0  0.22980  0.91070  0.49790  1.0000
  C   C4        1.0  0.27020  0.41070  0.00210  1.0000
  H   H5        1.0  0.66120  0.08870  0.44330  1.0000
  H   H6        1.0  0.83880  0.58870  0.05670  1.0000
  H   H7        1.0  0.33880  0.91130  0.55670  1.0000
  H   H8        1.0  0.16120  0.41130  0.94330  1.0000
  H   H9        1.0  0.87000  0.08670  0.45730  1.0000
  H   H10       1.0  0.63000  0.58670  0.04270  1.0000
  H   H11       1.0  0.13000  0.91330  0.54270  1.0000
  H   H12       1.0  0.37000  0.41330  0.95730  1.0000
  C   C5        1.0  0.72980  0.91680  0.49210  1.0000
  C   C6        1.0  0.77020  0.41680  0.00790  1.0000
  C   C7        1.0  0.27020  0.08320  0.50790  1.0000
  C   C8        1.0  0.22980  0.58320  0.99210  1.0000
  H   H13       1.0  0.61290  0.92800  0.44470  1.0000
  H   H14       1.0  0.88710  0.42800  0.05530  1.0000
  H   H15       1.0  0.38710  0.07200  0.55530  1.0000
  H   H16       1.0  0.11290  0.57200  0.94470  1.0000
  H   H17       1.0  0.81600  0.91650  0.43630  1.0000
  H   H18       1.0  0.68400  0.41650  0.06370  1.0000
  H   H19       1.0  0.18400  0.08350  0.56370  1.0000
  H   H20       1.0  0.31600  0.58350  0.93630  1.0000
  C   C9        1.0  0.77380  0.00000  0.57850  1.0000
  C   C10       1.0  0.72620  0.50000  0.92150  1.0000
  C   C11       1.0  0.22620  0.00000  0.42150  1.0000
  C   C12       1.0  0.27380  0.50000  0.07850  1.0000
  H   H21       1.0  0.89130  0.99160  0.62650  1.0000
  H   H22       1.0  0.60870  0.49160  0.87350  1.0000
  H   H23       1.0  0.10870  0.00840  0.37350  1.0000
  H   H24       1.0  0.39130  0.50840  0.12650  1.0000
  H   H25       1.0  0.68630  0.00430  0.63310  1.0000
  H   H26       1.0  0.81370  0.50430  0.86690  1.0000
  H   H27       1.0  0.31370  0.99570  0.36690  1.0000
  H   H28       1.0  0.18630  0.49570  0.13310  1.0000
  H   H29       1.0  0.55400  0.39100  0.56500  1.0000
  H   H30       1.0  0.94600  0.89100  0.93500  1.0000
  H   H31       1.0  0.44600  0.60900  0.43500  1.0000
  H   H32       1.0  0.05400  0.10900  0.06500  1.0000
  V   V1        1.0  0.08805  0.20291  0.82250  1.0000
  V   V2        1.0  0.41195  0.70291  0.67750  1.0000
  V   V3        1.0  0.91195  0.79709  0.17750  1.0000
  V   V4        1.0  0.58805  0.29709  0.32250  1.0000
  V   V5        1.0  0.44666  0.26846  0.71424  1.0000
  V   V6        1.0  0.05334  0.76846  0.78576  1.0000
  V   V7        1.0  0.55334  0.73154  0.28576  1.0000
  V   V8        1.0  0.94666  0.23154  0.21424  1.0000
