data_image0
_chemical_formula_structural       Cd4N8C8N8C24S8N8C8N8H16
_chemical_formula_sum              "Cd4 N32 C40 S8 H16"
_cell_length_a       13.864
_cell_length_b       16.701
_cell_length_c       8.278
_cell_angle_alpha    90
_cell_angle_beta     104.27
_cell_angle_gamma    90

_space_group_name_H-M_alt    "P 1"
_space_group_IT_number       1

loop_
  _space_group_symop_operation_xyz
  'x, y, z'

loop_
  _atom_site_type_symbol
  _atom_site_label
  _atom_site_symmetry_multiplicity
  _atom_site_fract_x
  _atom_site_fract_y
  _atom_site_fract_z
  _atom_site_occupancy
  Cd  Cd1       1.0  0.50000  0.50000  0.50000  1.0000
  Cd  Cd2       1.0  0.00000  0.00000  0.50000  1.0000
  Cd  Cd3       1.0  0.50000  0.50000  0.00000  1.0000
  Cd  Cd4       1.0  0.00000  0.00000  0.00000  1.0000
  N   N1        1.0  0.72240  0.64210  0.26070  1.0000
  N   N2        1.0  0.22240  0.14210  0.26070  1.0000
  N   N3        1.0  0.27760  0.64210  0.23930  1.0000
  N   N4        1.0  0.77760  0.14210  0.23930  1.0000
  N   N5        1.0  0.27760  0.35790  0.73930  1.0000
  N   N6        1.0  0.77760  0.85790  0.73930  1.0000
  N   N7        1.0  0.72240  0.35790  0.76070  1.0000
  N   N8        1.0  0.22240  0.85790  0.76070  1.0000
  C   C1        1.0  0.72460  0.72230  0.26350  1.0000
  C   C2        1.0  0.22460  0.22230  0.26350  1.0000
  C   C3        1.0  0.27540  0.72230  0.23650  1.0000
  C   C4        1.0  0.77540  0.22230  0.23650  1.0000
  C   C5        1.0  0.27540  0.27770  0.73650  1.0000
  C   C6        1.0  0.77540  0.77770  0.73650  1.0000
  C   C7        1.0  0.72460  0.27770  0.76350  1.0000
  C   C8        1.0  0.22460  0.77770  0.76350  1.0000
  N   N9        1.0  0.67050  0.77280  0.32790  1.0000
  N   N10       1.0  0.17050  0.27280  0.32790  1.0000
  N   N11       1.0  0.32950  0.77280  0.17210  1.0000
  N   N12       1.0  0.82950  0.27280  0.17210  1.0000
  N   N13       1.0  0.32950  0.22720  0.67210  1.0000
  N   N14       1.0  0.82950  0.72720  0.67210  1.0000
  N   N15       1.0  0.67050  0.22720  0.82790  1.0000
  N   N16       1.0  0.17050  0.72720  0.82790  1.0000
  C   C9        1.0  0.60660  0.73580  0.40190  1.0000
  C   C10       1.0  0.10660  0.23580  0.40190  1.0000
  C   C11       1.0  0.39340  0.73580  0.09810  1.0000
  C   C12       1.0  0.89340  0.23580  0.09810  1.0000
  C   C13       1.0  0.39340  0.26420  0.59810  1.0000
  C   C14       1.0  0.89340  0.76420  0.59810  1.0000
  C   C15       1.0  0.60660  0.26420  0.90190  1.0000
  C   C16       1.0  0.10660  0.76420  0.90190  1.0000
  C   C17       1.0  0.59870  0.65240  0.40820  1.0000
  C   C18       1.0  0.09870  0.15240  0.40820  1.0000
  C   C19       1.0  0.40130  0.65240  0.09180  1.0000
  C   C20       1.0  0.90130  0.15240  0.09180  1.0000
  C   C21       1.0  0.40130  0.34760  0.59180  1.0000
  C   C22       1.0  0.90130  0.84760  0.59180  1.0000
  C   C23       1.0  0.59870  0.34760  0.90820  1.0000
  C   C24       1.0  0.09870  0.84760  0.90820  1.0000
  C   C25       1.0  0.65600  0.60490  0.33080  1.0000
  C   C26       1.0  0.15600  0.10490  0.33080  1.0000
  C   C27       1.0  0.34400  0.60490  0.16920  1.0000
  C   C28       1.0  0.84400  0.10490  0.16920  1.0000
  C   C29       1.0  0.34400  0.39510  0.66920  1.0000
  C   C30       1.0  0.84400  0.89510  0.66920  1.0000
  C   C31       1.0  0.65600  0.39510  0.83080  1.0000
  C   C32       1.0  0.15600  0.89510  0.83080  1.0000
  S   S1        1.0  0.64183  0.50104  0.32061  1.0000
  S   S2        1.0  0.14183  0.00104  0.32061  1.0000
  S   S3        1.0  0.35817  0.50104  0.17939  1.0000
  S   S4        1.0  0.85817  0.00104  0.17939  1.0000
  S   S5        1.0  0.35817  0.49896  0.67939  1.0000
  S   S6        1.0  0.85817  0.99896  0.67939  1.0000
  S   S7        1.0  0.64183  0.49896  0.82061  1.0000
  S   S8        1.0  0.14183  0.99896  0.82061  1.0000
  N   N17       1.0  0.52690  0.63350  0.48970  1.0000
  N   N18       1.0  0.02690  0.13350  0.48970  1.0000
  N   N19       1.0  0.47310  0.63350  0.01030  1.0000
  N   N20       1.0  0.97310  0.13350  0.01030  1.0000
  N   N21       1.0  0.47310  0.36650  0.51030  1.0000
  N   N22       1.0  0.97310  0.86650  0.51030  1.0000
  N   N23       1.0  0.52690  0.36650  0.98970  1.0000
  N   N24       1.0  0.02690  0.86650  0.98970  1.0000
  C   C33       1.0  0.49700  0.70560  0.52880  1.0000
  C   C34       1.0  0.99700  0.20560  0.52880  1.0000
  C   C35       1.0  0.50300  0.70560  0.97120  1.0000
  C   C36       1.0  0.00300  0.20560  0.97120  1.0000
  C   C37       1.0  0.50300  0.29440  0.47120  1.0000
  C   C38       1.0  0.00300  0.79440  0.47120  1.0000
  C   C39       1.0  0.49700  0.29440  0.02880  1.0000
  C   C40       1.0  0.99700  0.79440  0.02880  1.0000
  N   N25       1.0  0.54140  0.76970  0.48040  1.0000
  N   N26       1.0  0.04140  0.26970  0.48040  1.0000
  N   N27       1.0  0.45860  0.76970  0.01960  1.0000
  N   N28       1.0  0.95860  0.26970  0.01960  1.0000
  N   N29       1.0  0.45860  0.23030  0.51960  1.0000
  N   N30       1.0  0.95860  0.73030  0.51960  1.0000
  N   N31       1.0  0.54140  0.23030  0.98040  1.0000
  N   N32       1.0  0.04140  0.73030  0.98040  1.0000
  H   H1        1.0  0.77400  0.74700  0.21700  1.0000
  H   H2        1.0  0.27400  0.24700  0.21700  1.0000
  H   H3        1.0  0.22600  0.74700  0.28300  1.0000
  H   H4        1.0  0.72600  0.24700  0.28300  1.0000
  H   H5        1.0  0.22600  0.25300  0.78300  1.0000
  H   H6        1.0  0.72600  0.75300  0.78300  1.0000
  H   H7        1.0  0.77400  0.25300  0.71700  1.0000
  H   H8        1.0  0.27400  0.75300  0.71700  1.0000
  H   H9        1.0  0.44500  0.71200  0.58400  1.0000
  H   H10       1.0  0.94500  0.21200  0.58400  1.0000
  H   H11       1.0  0.55500  0.71200  0.91600  1.0000
  H   H12       1.0  0.05500  0.21200  0.91600  1.0000
  H   H13       1.0  0.55500  0.28800  0.41600  1.0000
  H   H14       1.0  0.05500  0.78800  0.41600  1.0000
  H   H15       1.0  0.44500  0.28800  0.08400  1.0000
  H   H16       1.0  0.94500  0.78800  0.08400  1.0000
