data_image0
_chemical_formula_structural       V8P8O16H8O24C8H16C8H16F8H8
_chemical_formula_sum              "V8 P8 O40 H48 C16 F8"
_cell_length_a       28.836
_cell_length_b       5.3256
_cell_length_c       10.2448
_cell_angle_alpha    90
_cell_angle_beta     95.051
_cell_angle_gamma    90

_space_group_name_H-M_alt    "P 1"
_space_group_IT_number       1

loop_
  _space_group_symop_operation_xyz
  'x, y, z'

loop_
  _atom_site_type_symbol
  _atom_site_label
  _atom_site_symmetry_multiplicity
  _atom_site_fract_x
  _atom_site_fract_y
  _atom_site_fract_z
  _atom_site_occupancy
  V   V1        1.0  0.37646  0.14132  0.74932  1.0000
  V   V2        1.0  0.87646  0.64132  0.74932  1.0000
  V   V3        1.0  0.62354  0.14132  0.75068  1.0000
  V   V4        1.0  0.12354  0.64132  0.75068  1.0000
  V   V5        1.0  0.62354  0.85868  0.25068  1.0000
  V   V6        1.0  0.12354  0.35868  0.25068  1.0000
  V   V7        1.0  0.37646  0.85868  0.24932  1.0000
  V   V8        1.0  0.87646  0.35868  0.24932  1.0000
  P   P1        1.0  0.38732  0.34050  0.05018  1.0000
  P   P2        1.0  0.88732  0.84050  0.05018  1.0000
  P   P3        1.0  0.61268  0.34050  0.44982  1.0000
  P   P4        1.0  0.11268  0.84050  0.44982  1.0000
  P   P5        1.0  0.61268  0.65950  0.94982  1.0000
  P   P6        1.0  0.11268  0.15950  0.94982  1.0000
  P   P7        1.0  0.38732  0.65950  0.55018  1.0000
  P   P8        1.0  0.88732  0.15950  0.55018  1.0000
  O   O1        1.0  0.37053  0.37640  0.90352  1.0000
  O   O2        1.0  0.87053  0.87640  0.90352  1.0000
  O   O3        1.0  0.62947  0.37640  0.59648  1.0000
  O   O4        1.0  0.12947  0.87640  0.59648  1.0000
  O   O5        1.0  0.62947  0.62360  0.09648  1.0000
  O   O6        1.0  0.12947  0.12360  0.09648  1.0000
  O   O7        1.0  0.37053  0.62360  0.40352  1.0000
  O   O8        1.0  0.87053  0.12360  0.40352  1.0000
  O   O9        1.0  0.35397  0.85870  0.86602  1.0000
  O   O10       1.0  0.85397  0.35870  0.86602  1.0000
  O   O11       1.0  0.64603  0.85870  0.63398  1.0000
  O   O12       1.0  0.14603  0.35870  0.63398  1.0000
  O   O13       1.0  0.64603  0.14130  0.13398  1.0000
  O   O14       1.0  0.14603  0.64130  0.13398  1.0000
  O   O15       1.0  0.35397  0.14130  0.36602  1.0000
  O   O16       1.0  0.85397  0.64130  0.36602  1.0000
  H   H1        1.0  0.35710  0.90300  0.94290  1.0000
  H   H2        1.0  0.85710  0.40300  0.94290  1.0000
  H   H3        1.0  0.64290  0.90300  0.55710  1.0000
  H   H4        1.0  0.14290  0.40300  0.55710  1.0000
  H   H5        1.0  0.64290  0.09700  0.05710  1.0000
  H   H6        1.0  0.14290  0.59700  0.05710  1.0000
  H   H7        1.0  0.35710  0.09700  0.44290  1.0000
  H   H8        1.0  0.85710  0.59700  0.44290  1.0000
  O   O17       1.0  0.43115  0.10000  0.77295  1.0000
  O   O18       1.0  0.93115  0.60000  0.77295  1.0000
  O   O19       1.0  0.56885  0.10000  0.72705  1.0000
  O   O20       1.0  0.06885  0.60000  0.72705  1.0000
  O   O21       1.0  0.56885  0.90000  0.22705  1.0000
  O   O22       1.0  0.06885  0.40000  0.22705  1.0000
  O   O23       1.0  0.43115  0.90000  0.27295  1.0000
  O   O24       1.0  0.93115  0.40000  0.27295  1.0000
  O   O25       1.0  0.36463  0.09730  0.09583  1.0000
  O   O26       1.0  0.86463  0.59730  0.09583  1.0000
  O   O27       1.0  0.63537  0.09730  0.40417  1.0000
  O   O28       1.0  0.13537  0.59730  0.40417  1.0000
  O   O29       1.0  0.63537  0.90270  0.90417  1.0000
  O   O30       1.0  0.13537  0.40270  0.90417  1.0000
  O   O31       1.0  0.36463  0.90270  0.59583  1.0000
  O   O32       1.0  0.86463  0.40270  0.59583  1.0000
  O   O33       1.0  0.37233  0.56500  0.12683  1.0000
  O   O34       1.0  0.87233  0.06500  0.12683  1.0000
  O   O35       1.0  0.62767  0.56500  0.37317  1.0000
  O   O36       1.0  0.12767  0.06500  0.37317  1.0000
  O   O37       1.0  0.62767  0.43500  0.87317  1.0000
  O   O38       1.0  0.12767  0.93500  0.87317  1.0000
  O   O39       1.0  0.37233  0.43500  0.62683  1.0000
  O   O40       1.0  0.87233  0.93500  0.62683  1.0000
  C   C1        1.0  0.44925  0.30940  0.06510  1.0000
  C   C2        1.0  0.94925  0.80940  0.06510  1.0000
  C   C3        1.0  0.55075  0.30940  0.43490  1.0000
  C   C4        1.0  0.05075  0.80940  0.43490  1.0000
  C   C5        1.0  0.55075  0.69060  0.93490  1.0000
  C   C6        1.0  0.05075  0.19060  0.93490  1.0000
  C   C7        1.0  0.44925  0.69060  0.56510  1.0000
  C   C8        1.0  0.94925  0.19060  0.56510  1.0000
  H   H9        1.0  0.46020  0.30040  0.15730  1.0000
  H   H10       1.0  0.96020  0.80040  0.15730  1.0000
  H   H11       1.0  0.53980  0.30040  0.34270  1.0000
  H   H12       1.0  0.03980  0.80040  0.34270  1.0000
  H   H13       1.0  0.53980  0.69960  0.84270  1.0000
  H   H14       1.0  0.03980  0.19960  0.84270  1.0000
  H   H15       1.0  0.46020  0.69960  0.65730  1.0000
  H   H16       1.0  0.96020  0.19960  0.65730  1.0000
  H   H17       1.0  0.45750  0.15310  0.02450  1.0000
  H   H18       1.0  0.95750  0.65310  0.02450  1.0000
  H   H19       1.0  0.54250  0.15310  0.47550  1.0000
  H   H20       1.0  0.04250  0.65310  0.47550  1.0000
  H   H21       1.0  0.54250  0.84690  0.97550  1.0000
  H   H22       1.0  0.04250  0.34690  0.97550  1.0000
  H   H23       1.0  0.45750  0.84690  0.52450  1.0000
  H   H24       1.0  0.95750  0.34690  0.52450  1.0000
  C   C9        1.0  0.47415  0.52640  0.00210  1.0000
  C   C10       1.0  0.97415  0.02640  0.00210  1.0000
  C   C11       1.0  0.52585  0.52640  0.49790  1.0000
  C   C12       1.0  0.02585  0.02640  0.49790  1.0000
  C   C13       1.0  0.52585  0.47360  0.99790  1.0000
  C   C14       1.0  0.02585  0.97360  0.99790  1.0000
  C   C15       1.0  0.47415  0.47360  0.50210  1.0000
  C   C16       1.0  0.97415  0.97360  0.50210  1.0000
  H   H25       1.0  0.46010  0.55270  0.91360  1.0000
  H   H26       1.0  0.96010  0.05270  0.91360  1.0000
  H   H27       1.0  0.53990  0.55270  0.58640  1.0000
  H   H28       1.0  0.03990  0.05270  0.58640  1.0000
  H   H29       1.0  0.53990  0.44730  0.08640  1.0000
  H   H30       1.0  0.03990  0.94730  0.08640  1.0000
  H   H31       1.0  0.46010  0.44730  0.41360  1.0000
  H   H32       1.0  0.96010  0.94730  0.41360  1.0000
  H   H33       1.0  0.47020  0.67900  0.05160  1.0000
  H   H34       1.0  0.97020  0.17900  0.05160  1.0000
  H   H35       1.0  0.52980  0.67900  0.44840  1.0000
  H   H36       1.0  0.02980  0.17900  0.44840  1.0000
  H   H37       1.0  0.52980  0.32100  0.94840  1.0000
  H   H38       1.0  0.02980  0.82100  0.94840  1.0000
  H   H39       1.0  0.47020  0.32100  0.55160  1.0000
  H   H40       1.0  0.97020  0.82100  0.55160  1.0000
  F   F1        1.0  0.30160  0.17570  0.71758  1.0000
  F   F2        1.0  0.80160  0.67570  0.71758  1.0000
  F   F3        1.0  0.69840  0.17570  0.78242  1.0000
  F   F4        1.0  0.19840  0.67570  0.78242  1.0000
  F   F5        1.0  0.69840  0.82430  0.28242  1.0000
  F   F6        1.0  0.19840  0.32430  0.28242  1.0000
  F   F7        1.0  0.30160  0.82430  0.21758  1.0000
  F   F8        1.0  0.80160  0.32430  0.21758  1.0000
  H   H41       1.0  0.36230  0.69900  0.87000  1.0000
  H   H42       1.0  0.86230  0.19900  0.87000  1.0000
  H   H43       1.0  0.63770  0.69900  0.63000  1.0000
  H   H44       1.0  0.13770  0.19900  0.63000  1.0000
  H   H45       1.0  0.63770  0.30100  0.13000  1.0000
  H   H46       1.0  0.13770  0.80100  0.13000  1.0000
  H   H47       1.0  0.36230  0.30100  0.37000  1.0000
  H   H48       1.0  0.86230  0.80100  0.37000  1.0000
