data_image0
_chemical_formula_structural       U8O48H4O32H4C4H4C4H4C4H4C4H4C20H4C4H4C4H4C4H4C16
_chemical_formula_sum              "U8 O80 H40 C64"
_cell_length_a       8.2664
_cell_length_b       24.604
_cell_length_c       25.7372
_cell_angle_alpha    90
_cell_angle_beta     91.575
_cell_angle_gamma    90

_space_group_name_H-M_alt    "P 1"
_space_group_IT_number       1

loop_
  _space_group_symop_operation_xyz
  'x, y, z'

loop_
  _atom_site_type_symbol
  _atom_site_label
  _atom_site_symmetry_multiplicity
  _atom_site_fract_x
  _atom_site_fract_y
  _atom_site_fract_z
  _atom_site_occupancy
  U   U1        1.0  0.26297  0.59841  0.22928  1.0000
  U   U2        1.0  0.73703  0.09841  0.27072  1.0000
  U   U3        1.0  0.73703  0.40159  0.77072  1.0000
  U   U4        1.0  0.26297  0.90159  0.72928  1.0000
  U   U5        1.0  0.65979  0.75516  0.47328  1.0000
  U   U6        1.0  0.34021  0.25516  0.02672  1.0000
  U   U7        1.0  0.34021  0.24484  0.52672  1.0000
  U   U8        1.0  0.65979  0.74484  0.97328  1.0000
  O   O1        1.0  0.30230  0.52807  0.23021  1.0000
  O   O2        1.0  0.69770  0.02807  0.26979  1.0000
  O   O3        1.0  0.69770  0.47193  0.76979  1.0000
  O   O4        1.0  0.30230  0.97193  0.73021  1.0000
  O   O5        1.0  0.22490  0.66936  0.22986  1.0000
  O   O6        1.0  0.77510  0.16936  0.27014  1.0000
  O   O7        1.0  0.77510  0.33064  0.77014  1.0000
  O   O8        1.0  0.22490  0.83064  0.72986  1.0000
  O   O9        1.0  0.61650  0.70880  0.52383  1.0000
  O   O10       1.0  0.38350  0.20880  0.97617  1.0000
  O   O11       1.0  0.38350  0.29120  0.47617  1.0000
  O   O12       1.0  0.61650  0.79120  0.02383  1.0000
  O   O13       1.0  0.70360  0.79959  0.42159  1.0000
  O   O14       1.0  0.29640  0.29959  0.07841  1.0000
  O   O15       1.0  0.29640  0.20041  0.57841  1.0000
  O   O16       1.0  0.70360  0.70041  0.92159  1.0000
  O   O17       1.0  0.39110  0.60560  0.31782  1.0000
  O   O18       1.0  0.60890  0.10560  0.18218  1.0000
  O   O19       1.0  0.60890  0.39440  0.68218  1.0000
  O   O20       1.0  0.39110  0.89440  0.81782  1.0000
  O   O21       1.0  0.12780  0.59508  0.31372  1.0000
  O   O22       1.0  0.87220  0.09508  0.18628  1.0000
  O   O23       1.0  0.87220  0.40492  0.68628  1.0000
  O   O24       1.0  0.12780  0.90492  0.81372  1.0000
  O   O25       1.0  0.35890  0.75273  0.45560  1.0000
  O   O26       1.0  0.64110  0.25273  0.04440  1.0000
  O   O27       1.0  0.64110  0.24727  0.54440  1.0000
  O   O28       1.0  0.35890  0.74727  0.95560  1.0000
  O   O29       1.0  0.50890  0.69657  0.41163  1.0000
  O   O30       1.0  0.49110  0.19657  0.08837  1.0000
  O   O31       1.0  0.49110  0.30343  0.58837  1.0000
  O   O32       1.0  0.50890  0.80343  0.91163  1.0000
  O   O33       1.0  0.82470  0.68438  0.43209  1.0000
  O   O34       1.0  0.17530  0.18438  0.06791  1.0000
  O   O35       1.0  0.17530  0.31562  0.56791  1.0000
  O   O36       1.0  0.82470  0.81562  0.93209  1.0000
  O   O37       1.0  0.95080  0.73668  0.48819  1.0000
  O   O38       1.0  0.04920  0.23668  0.01181  1.0000
  O   O39       1.0  0.04920  0.26332  0.51181  1.0000
  O   O40       1.0  0.95080  0.76332  0.98819  1.0000
  O   O41       1.0  0.01270  0.56749  0.50370  1.0000
  O   O42       1.0  0.98730  0.06749  0.99630  1.0000
  O   O43       1.0  0.98730  0.43251  0.49630  1.0000
  O   O44       1.0  0.01270  0.93251  0.00370  1.0000
  O   O45       1.0  0.08450  0.51414  0.43825  1.0000
  O   O46       1.0  0.91550  0.01414  0.06175  1.0000
  O   O47       1.0  0.91550  0.48586  0.56175  1.0000
  O   O48       1.0  0.08450  0.98586  0.93825  1.0000
  H   H1        1.0  0.05990  0.48530  0.45890  1.0000
  H   H2        1.0  0.94010  0.98530  0.04110  1.0000
  H   H3        1.0  0.94010  0.51470  0.54110  1.0000
  H   H4        1.0  0.05990  0.01470  0.95890  1.0000
  O   O49       1.0  0.97140  0.58150  0.21983  1.0000
  O   O50       1.0  0.02860  0.08150  0.28017  1.0000
  O   O51       1.0  0.02860  0.41850  0.78017  1.0000
  O   O52       1.0  0.97140  0.91850  0.71983  1.0000
  O   O53       1.0  0.10050  0.58761  0.14778  1.0000
  O   O54       1.0  0.89950  0.08761  0.35222  1.0000
  O   O55       1.0  0.89950  0.41239  0.85222  1.0000
  O   O56       1.0  0.10050  0.91239  0.64778  1.0000
  O   O57       1.0  0.40810  0.60998  0.14908  1.0000
  O   O58       1.0  0.59190  0.10998  0.35092  1.0000
  O   O59       1.0  0.59190  0.39002  0.85092  1.0000
  O   O60       1.0  0.40810  0.89002  0.64908  1.0000
  O   O61       1.0  0.55910  0.61505  0.21973  1.0000
  O   O62       1.0  0.44090  0.11505  0.28027  1.0000
  O   O63       1.0  0.44090  0.38495  0.78027  1.0000
  O   O64       1.0  0.55910  0.88495  0.71973  1.0000
  O   O65       1.0  0.79030  0.68245  0.03650  1.0000
  O   O66       1.0  0.20970  0.18245  0.46350  1.0000
  O   O67       1.0  0.20970  0.31755  0.96350  1.0000
  O   O68       1.0  0.79030  0.81755  0.53650  1.0000
  O   O69       1.0  0.53370  0.66900  0.01772  1.0000
  O   O70       1.0  0.46630  0.16900  0.48228  1.0000
  O   O71       1.0  0.46630  0.33100  0.98228  1.0000
  O   O72       1.0  0.53370  0.83100  0.51772  1.0000
  O   O73       1.0  0.85670  0.47566  0.07521  1.0000
  O   O74       1.0  0.14330  0.97566  0.42479  1.0000
  O   O75       1.0  0.14330  0.52434  0.92479  1.0000
  O   O76       1.0  0.85670  0.02434  0.57521  1.0000
  O   O77       1.0  0.75280  0.52007  0.00696  1.0000
  O   O78       1.0  0.24720  0.02007  0.49304  1.0000
  O   O79       1.0  0.24720  0.47993  0.99304  1.0000
  O   O80       1.0  0.75280  0.97993  0.50696  1.0000
  H   H5        1.0  0.74510  0.48850  0.99550  1.0000
  H   H6        1.0  0.25490  0.98850  0.50450  1.0000
  H   H7        1.0  0.25490  0.51150  0.00450  1.0000
  H   H8        1.0  0.74510  0.01150  0.49550  1.0000
  C   C1        1.0  0.24670  0.61841  0.39653  1.0000
  C   C2        1.0  0.75330  0.11841  0.10347  1.0000
  C   C3        1.0  0.75330  0.38159  0.60347  1.0000
  C   C4        1.0  0.24670  0.88159  0.89653  1.0000
  H   H9        1.0  0.33850  0.60310  0.41650  1.0000
  H   H10       1.0  0.66150  0.10310  0.08350  1.0000
  H   H11       1.0  0.66150  0.39690  0.58350  1.0000
  H   H12       1.0  0.33850  0.89690  0.91650  1.0000
  C   C5        1.0  0.22510  0.67994  0.40874  1.0000
  C   C6        1.0  0.77490  0.17994  0.09126  1.0000
  C   C7        1.0  0.77490  0.32006  0.59126  1.0000
  C   C8        1.0  0.22510  0.82006  0.90874  1.0000
  H   H13       1.0  0.16900  0.69820  0.37960  1.0000
  H   H14       1.0  0.83100  0.19820  0.12040  1.0000
  H   H15       1.0  0.83100  0.30180  0.62040  1.0000
  H   H16       1.0  0.16900  0.80180  0.87960  1.0000
  C   C9        1.0  0.10220  0.66377  0.45112  1.0000
  C   C10       1.0  0.89780  0.16377  0.04888  1.0000
  C   C11       1.0  0.89780  0.33623  0.54888  1.0000
  C   C12       1.0  0.10220  0.83623  0.95112  1.0000
  H   H17       1.0  0.15890  0.65960  0.48480  1.0000
  H   H18       1.0  0.84110  0.15960  0.01520  1.0000
  H   H19       1.0  0.84110  0.34040  0.51520  1.0000
  H   H20       1.0  0.15890  0.84040  0.98480  1.0000
  C   C13       1.0  0.08600  0.60868  0.42435  1.0000
  C   C14       1.0  0.91400  0.10868  0.07565  1.0000
  C   C15       1.0  0.91400  0.39132  0.57565  1.0000
  C   C16       1.0  0.08600  0.89132  0.92435  1.0000
  H   H21       1.0  0.99650  0.61030  0.39870  1.0000
  H   H22       1.0  0.00350  0.11030  0.10130  1.0000
  H   H23       1.0  0.00350  0.38970  0.60130  1.0000
  H   H24       1.0  0.99650  0.88970  0.89870  1.0000
  C   C17       1.0  0.25620  0.60439  0.34011  1.0000
  C   C18       1.0  0.74380  0.10439  0.15989  1.0000
  C   C19       1.0  0.74380  0.39561  0.65989  1.0000
  C   C20       1.0  0.25620  0.89561  0.84011  1.0000
  C   C21       1.0  0.37070  0.71184  0.42604  1.0000
  C   C22       1.0  0.62930  0.21184  0.07396  1.0000
  C   C23       1.0  0.62930  0.28816  0.57396  1.0000
  C   C24       1.0  0.37070  0.78816  0.92604  1.0000
  C   C25       1.0  0.95210  0.69714  0.45734  1.0000
  C   C26       1.0  0.04790  0.19714  0.04266  1.0000
  C   C27       1.0  0.04790  0.30286  0.54266  1.0000
  C   C28       1.0  0.95210  0.80286  0.95734  1.0000
  C   C29       1.0  0.06150  0.56095  0.45915  1.0000
  C   C30       1.0  0.93850  0.06095  0.04085  1.0000
  C   C31       1.0  0.93850  0.43905  0.54085  1.0000
  C   C32       1.0  0.06150  0.93905  0.95915  1.0000
  C   C33       1.0  0.81390  0.57102  0.14036  1.0000
  C   C34       1.0  0.18610  0.07102  0.35964  1.0000
  C   C35       1.0  0.18610  0.42898  0.85964  1.0000
  C   C36       1.0  0.81390  0.92898  0.64036  1.0000
  H   H25       1.0  0.76020  0.53800  0.15250  1.0000
  H   H26       1.0  0.23980  0.03800  0.34750  1.0000
  H   H27       1.0  0.23980  0.46200  0.84750  1.0000
  H   H28       1.0  0.76020  0.96200  0.65250  1.0000
  C   C37       1.0  0.69080  0.61915  0.13721  1.0000
  C   C38       1.0  0.30920  0.11915  0.36279  1.0000
  C   C39       1.0  0.30920  0.38085  0.86279  1.0000
  C   C40       1.0  0.69080  0.88085  0.63721  1.0000
  H   H29       1.0  0.74590  0.65400  0.14270  1.0000
  H   H30       1.0  0.25410  0.15400  0.35730  1.0000
  H   H31       1.0  0.25410  0.34600  0.85730  1.0000
  H   H32       1.0  0.74590  0.84600  0.64270  1.0000
  C   C41       1.0  0.66390  0.60729  0.07810  1.0000
  C   C42       1.0  0.33610  0.10729  0.42190  1.0000
  C   C43       1.0  0.33610  0.39271  0.92190  1.0000
  C   C44       1.0  0.66390  0.89271  0.57810  1.0000
  H   H33       1.0  0.56730  0.58480  0.07220  1.0000
  H   H34       1.0  0.43270  0.08480  0.42780  1.0000
  H   H35       1.0  0.43270  0.41520  0.92780  1.0000
  H   H36       1.0  0.56730  0.91520  0.57220  1.0000
  C   C45       1.0  0.81810  0.57129  0.08082  1.0000
  C   C46       1.0  0.18190  0.07129  0.41918  1.0000
  C   C47       1.0  0.18190  0.42871  0.91918  1.0000
  C   C48       1.0  0.81810  0.92871  0.58082  1.0000
  H   H37       1.0  0.91190  0.59190  0.06920  1.0000
  H   H38       1.0  0.08810  0.09190  0.43080  1.0000
  H   H39       1.0  0.08810  0.40810  0.93080  1.0000
  H   H40       1.0  0.91190  0.90810  0.56920  1.0000
  C   C49       1.0  0.97000  0.58019  0.17109  1.0000
  C   C50       1.0  0.03000  0.08019  0.32891  1.0000
  C   C51       1.0  0.03000  0.41981  0.82891  1.0000
  C   C52       1.0  0.97000  0.91981  0.67109  1.0000
  C   C53       1.0  0.54530  0.61461  0.17093  1.0000
  C   C54       1.0  0.45470  0.11461  0.32907  1.0000
  C   C55       1.0  0.45470  0.38539  0.82907  1.0000
  C   C56       1.0  0.54530  0.88539  0.67093  1.0000
  C   C57       1.0  0.66090  0.65495  0.04236  1.0000
  C   C58       1.0  0.33910  0.15495  0.45764  1.0000
  C   C59       1.0  0.33910  0.34505  0.95764  1.0000
  C   C60       1.0  0.66090  0.84505  0.54236  1.0000
  C   C61       1.0  0.81160  0.51700  0.05480  1.0000
  C   C62       1.0  0.18840  0.01700  0.44520  1.0000
  C   C63       1.0  0.18840  0.48300  0.94520  1.0000
  C   C64       1.0  0.81160  0.98300  0.55480  1.0000
