data_image0
_chemical_formula_structural       U24O72H8O40N24C16H24C8H8C8H8C8H8C8H8C24H8C8H8C8H8C8H8
_chemical_formula_sum              "U24 O112 H96 N24 C96"
_cell_length_a       14.6158
_cell_length_b       16.9169
_cell_length_c       27.9857
_cell_angle_alpha    90
_cell_angle_beta     102.458
_cell_angle_gamma    90

_space_group_name_H-M_alt    "P 1"
_space_group_IT_number       1

loop_
  _space_group_symop_operation_xyz
  'x, y, z'

loop_
  _atom_site_type_symbol
  _atom_site_label
  _atom_site_symmetry_multiplicity
  _atom_site_fract_x
  _atom_site_fract_y
  _atom_site_fract_z
  _atom_site_occupancy
  U   U1        1.0  0.76509  0.15761  0.46953  1.0000
  U   U2        1.0  0.23491  0.15761  0.03047  1.0000
  U   U3        1.0  0.26509  0.65761  0.46953  1.0000
  U   U4        1.0  0.73491  0.65761  0.03047  1.0000
  U   U5        1.0  0.23491  0.84239  0.53047  1.0000
  U   U6        1.0  0.76509  0.84239  0.96953  1.0000
  U   U7        1.0  0.73491  0.34239  0.53047  1.0000
  U   U8        1.0  0.26509  0.34239  0.96953  1.0000
  U   U9        1.0  0.87149  0.96636  0.49899  1.0000
  U   U10       1.0  0.12851  0.96636  0.00101  1.0000
  U   U11       1.0  0.37149  0.46636  0.49899  1.0000
  U   U12       1.0  0.62851  0.46636  0.00101  1.0000
  U   U13       1.0  0.12851  0.03364  0.50101  1.0000
  U   U14       1.0  0.87149  0.03364  0.99898  1.0000
  U   U15       1.0  0.62851  0.53364  0.50101  1.0000
  U   U16       1.0  0.37149  0.53364  0.99898  1.0000
  U   U17       1.0  0.80242  0.12558  0.60262  1.0000
  U   U18       1.0  0.19758  0.12558  0.89738  1.0000
  U   U19       1.0  0.30242  0.62557  0.60262  1.0000
  U   U20       1.0  0.69758  0.62557  0.89738  1.0000
  U   U21       1.0  0.19758  0.87443  0.39738  1.0000
  U   U22       1.0  0.80242  0.87443  0.10262  1.0000
  U   U23       1.0  0.69758  0.37443  0.39738  1.0000
  U   U24       1.0  0.30242  0.37443  0.10262  1.0000
  O   O1        1.0  0.88390  0.18490  0.47075  1.0000
  O   O2        1.0  0.11610  0.18490  0.02925  1.0000
  O   O3        1.0  0.38390  0.68490  0.47075  1.0000
  O   O4        1.0  0.61610  0.68490  0.02925  1.0000
  O   O5        1.0  0.11610  0.81510  0.52925  1.0000
  O   O6        1.0  0.88390  0.81510  0.97075  1.0000
  O   O7        1.0  0.61610  0.31510  0.52925  1.0000
  O   O8        1.0  0.38390  0.31510  0.97075  1.0000
  O   O9        1.0  0.64710  0.12730  0.46567  1.0000
  O   O10       1.0  0.35290  0.12730  0.03433  1.0000
  O   O11       1.0  0.14710  0.62730  0.46567  1.0000
  O   O12       1.0  0.85290  0.62730  0.03433  1.0000
  O   O13       1.0  0.35290  0.87270  0.53433  1.0000
  O   O14       1.0  0.64710  0.87270  0.96567  1.0000
  O   O15       1.0  0.85290  0.37270  0.53433  1.0000
  O   O16       1.0  0.14710  0.37270  0.96567  1.0000
  O   O17       1.0  0.82430  0.02400  0.44379  1.0000
  O   O18       1.0  0.17570  0.02400  0.05621  1.0000
  O   O19       1.0  0.32430  0.52400  0.44379  1.0000
  O   O20       1.0  0.67570  0.52400  0.05621  1.0000
  O   O21       1.0  0.17570  0.97600  0.55621  1.0000
  O   O22       1.0  0.82430  0.97600  0.94379  1.0000
  O   O23       1.0  0.67570  0.47600  0.55621  1.0000
  O   O24       1.0  0.32430  0.47600  0.94379  1.0000
  O   O25       1.0  0.90410  0.90490  0.55127  1.0000
  O   O26       1.0  0.09590  0.90490  0.94873  1.0000
  O   O27       1.0  0.40410  0.40490  0.55127  1.0000
  O   O28       1.0  0.59590  0.40490  0.94873  1.0000
  O   O29       1.0  0.09590  0.09510  0.44873  1.0000
  O   O30       1.0  0.90410  0.09510  0.05127  1.0000
  O   O31       1.0  0.59590  0.59510  0.44873  1.0000
  O   O32       1.0  0.40410  0.59510  0.05127  1.0000
  O   O33       1.0  0.92830  0.12790  0.61511  1.0000
  O   O34       1.0  0.07170  0.12790  0.88489  1.0000
  O   O35       1.0  0.42830  0.62790  0.61511  1.0000
  O   O36       1.0  0.57170  0.62790  0.88489  1.0000
  O   O37       1.0  0.07170  0.87210  0.38489  1.0000
  O   O38       1.0  0.92830  0.87210  0.11511  1.0000
  O   O39       1.0  0.57170  0.37210  0.38489  1.0000
  O   O40       1.0  0.42830  0.37210  0.11511  1.0000
  O   O41       1.0  0.67890  0.11720  0.59614  1.0000
  O   O42       1.0  0.32110  0.11720  0.90386  1.0000
  O   O43       1.0  0.17890  0.61720  0.59614  1.0000
  O   O44       1.0  0.82110  0.61720  0.90386  1.0000
  O   O45       1.0  0.32110  0.88280  0.40386  1.0000
  O   O46       1.0  0.67890  0.88280  0.09614  1.0000
  O   O47       1.0  0.82110  0.38280  0.40386  1.0000
  O   O48       1.0  0.17890  0.38280  0.09614  1.0000
  O   O49       1.0  0.80350  0.05890  0.53232  1.0000
  O   O50       1.0  0.19650  0.05890  0.96768  1.0000
  O   O51       1.0  0.30350  0.55890  0.53232  1.0000
  O   O52       1.0  0.69650  0.55890  0.96768  1.0000
  O   O53       1.0  0.19650  0.94110  0.46768  1.0000
  O   O54       1.0  0.80350  0.94110  0.03232  1.0000
  O   O55       1.0  0.69650  0.44110  0.46768  1.0000
  O   O56       1.0  0.30350  0.44110  0.03232  1.0000
  O   O57       1.0  0.78030  0.21610  0.54484  1.0000
  O   O58       1.0  0.21970  0.21610  0.95516  1.0000
  O   O59       1.0  0.28030  0.71610  0.54484  1.0000
  O   O60       1.0  0.71970  0.71610  0.95516  1.0000
  O   O61       1.0  0.21970  0.78390  0.45516  1.0000
  O   O62       1.0  0.78030  0.78390  0.04484  1.0000
  O   O63       1.0  0.71970  0.28390  0.45516  1.0000
  O   O64       1.0  0.28030  0.28390  0.04484  1.0000
  O   O65       1.0  0.00390  0.94670  0.46920  1.0000
  O   O66       1.0  0.99610  0.94670  0.03080  1.0000
  O   O67       1.0  0.50390  0.44670  0.46920  1.0000
  O   O68       1.0  0.49610  0.44670  0.03080  1.0000
  O   O69       1.0  0.99610  0.05330  0.53080  1.0000
  O   O70       1.0  0.00390  0.05330  0.96920  1.0000
  O   O71       1.0  0.49610  0.55330  0.53080  1.0000
  O   O72       1.0  0.50390  0.55330  0.96920  1.0000
  H   H1        1.0  0.00120  0.93970  0.44360  1.0000
  H   H2        1.0  0.99880  0.93970  0.05640  1.0000
  H   H3        1.0  0.50120  0.43970  0.44360  1.0000
  H   H4        1.0  0.49880  0.43970  0.05640  1.0000
  H   H5        1.0  0.99880  0.06030  0.55640  1.0000
  H   H6        1.0  0.00120  0.06030  0.94360  1.0000
  H   H7        1.0  0.49880  0.56030  0.55640  1.0000
  H   H8        1.0  0.50120  0.56030  0.94360  1.0000
  O   O73       1.0  0.73040  0.15330  0.38174  1.0000
  O   O74       1.0  0.26960  0.15330  0.11826  1.0000
  O   O75       1.0  0.23040  0.65330  0.38174  1.0000
  O   O76       1.0  0.76960  0.65330  0.11826  1.0000
  O   O77       1.0  0.26960  0.84670  0.61826  1.0000
  O   O78       1.0  0.73040  0.84670  0.88174  1.0000
  O   O79       1.0  0.76960  0.34670  0.61826  1.0000
  O   O80       1.0  0.23040  0.34670  0.88174  1.0000
  O   O81       1.0  0.69260  0.26650  0.34129  1.0000
  O   O82       1.0  0.30740  0.26650  0.15871  1.0000
  O   O83       1.0  0.19260  0.76650  0.34129  1.0000
  O   O84       1.0  0.80740  0.76650  0.15871  1.0000
  O   O85       1.0  0.30740  0.73350  0.65871  1.0000
  O   O86       1.0  0.69260  0.73350  0.84129  1.0000
  O   O87       1.0  0.80740  0.23350  0.65871  1.0000
  O   O88       1.0  0.19260  0.23350  0.84129  1.0000
  O   O89       1.0  0.81530  0.06530  0.68805  1.0000
  O   O90       1.0  0.18470  0.06530  0.81195  1.0000
  O   O91       1.0  0.31530  0.56530  0.68805  1.0000
  O   O92       1.0  0.68470  0.56530  0.81195  1.0000
  O   O93       1.0  0.18470  0.93470  0.31195  1.0000
  O   O94       1.0  0.81530  0.93470  0.18805  1.0000
  O   O95       1.0  0.68470  0.43470  0.31195  1.0000
  O   O96       1.0  0.31530  0.43470  0.18805  1.0000
  O   O97       1.0  0.80130  0.98060  0.62902  1.0000
  O   O98       1.0  0.19870  0.98060  0.87098  1.0000
  O   O99       1.0  0.30130  0.48060  0.62902  1.0000
  O   O100      1.0  0.69870  0.48060  0.87098  1.0000
  O   O101      1.0  0.19870  0.01940  0.37098  1.0000
  O   O102      1.0  0.80130  0.01940  0.12902  1.0000
  O   O103      1.0  0.69870  0.51940  0.37098  1.0000
  O   O104      1.0  0.30130  0.51940  0.12902  1.0000
  O   O105      1.0  0.79550  0.93980  0.70253  1.0000
  O   O106      1.0  0.20450  0.93980  0.79747  1.0000
  O   O107      1.0  0.29550  0.43980  0.70253  1.0000
  O   O108      1.0  0.70450  0.43980  0.79747  1.0000
  O   O109      1.0  0.20450  0.06020  0.29747  1.0000
  O   O110      1.0  0.79550  0.06020  0.20253  1.0000
  O   O111      1.0  0.70450  0.56020  0.29747  1.0000
  O   O112      1.0  0.29550  0.56020  0.20253  1.0000
  N   N1        1.0  0.84350  0.83220  0.45065  1.0000
  N   N2        1.0  0.15650  0.83220  0.04935  1.0000
  N   N3        1.0  0.34350  0.33220  0.45065  1.0000
  N   N4        1.0  0.65650  0.33220  0.04935  1.0000
  N   N5        1.0  0.15650  0.16780  0.54935  1.0000
  N   N6        1.0  0.84350  0.16780  0.95065  1.0000
  N   N7        1.0  0.65650  0.66780  0.54935  1.0000
  N   N8        1.0  0.34350  0.66780  0.95065  1.0000
  N   N9        1.0  0.70600  0.90330  0.48393  1.0000
  N   N10       1.0  0.29400  0.90330  0.01607  1.0000
  N   N11       1.0  0.20600  0.40330  0.48393  1.0000
  N   N12       1.0  0.79400  0.40330  0.01607  1.0000
  N   N13       1.0  0.29400  0.09670  0.51607  1.0000
  N   N14       1.0  0.70600  0.09670  0.98393  1.0000
  N   N15       1.0  0.79400  0.59670  0.51607  1.0000
  N   N16       1.0  0.20600  0.59670  0.98393  1.0000
  N   N17       1.0  0.80400  0.99350  0.67400  1.0000
  N   N18       1.0  0.19600  0.99350  0.82600  1.0000
  N   N19       1.0  0.30400  0.49350  0.67400  1.0000
  N   N20       1.0  0.69600  0.49350  0.82600  1.0000
  N   N21       1.0  0.19600  0.00650  0.32600  1.0000
  N   N22       1.0  0.80400  0.00650  0.17400  1.0000
  N   N23       1.0  0.69600  0.50650  0.32600  1.0000
  N   N24       1.0  0.30400  0.50650  0.17400  1.0000
  C   C1        1.0  0.70440  0.19230  0.34340  1.0000
  C   C2        1.0  0.29560  0.19230  0.15660  1.0000
  C   C3        1.0  0.20440  0.69230  0.34340  1.0000
  C   C4        1.0  0.79560  0.69230  0.15660  1.0000
  C   C5        1.0  0.29560  0.80770  0.65660  1.0000
  C   C6        1.0  0.70440  0.80770  0.84340  1.0000
  C   C7        1.0  0.79560  0.30770  0.65660  1.0000
  C   C8        1.0  0.20440  0.30770  0.84340  1.0000
  C   C9        1.0  0.68440  0.14500  0.29660  1.0000
  C   C10       1.0  0.31560  0.14500  0.20340  1.0000
  C   C11       1.0  0.18440  0.64500  0.29660  1.0000
  C   C12       1.0  0.81560  0.64500  0.20340  1.0000
  C   C13       1.0  0.31560  0.85500  0.70340  1.0000
  C   C14       1.0  0.68440  0.85500  0.79660  1.0000
  C   C15       1.0  0.81560  0.35500  0.70340  1.0000
  C   C16       1.0  0.18440  0.35500  0.79660  1.0000
  H   H9        1.0  0.74240  0.13070  0.28810  1.0000
  H   H10       1.0  0.25760  0.13070  0.21190  1.0000
  H   H11       1.0  0.24240  0.63070  0.28810  1.0000
  H   H12       1.0  0.75760  0.63070  0.21190  1.0000
  H   H13       1.0  0.25760  0.86930  0.71190  1.0000
  H   H14       1.0  0.74240  0.86930  0.78810  1.0000
  H   H15       1.0  0.75760  0.36930  0.71190  1.0000
  H   H16       1.0  0.24240  0.36930  0.78810  1.0000
  H   H17       1.0  0.64760  0.17620  0.27080  1.0000
  H   H18       1.0  0.35240  0.17620  0.22920  1.0000
  H   H19       1.0  0.14760  0.67620  0.27080  1.0000
  H   H20       1.0  0.85240  0.67620  0.22920  1.0000
  H   H21       1.0  0.35240  0.82380  0.72920  1.0000
  H   H22       1.0  0.64760  0.82380  0.77080  1.0000
  H   H23       1.0  0.85240  0.32380  0.72920  1.0000
  H   H24       1.0  0.14760  0.32380  0.77080  1.0000
  H   H25       1.0  0.65040  0.09790  0.30110  1.0000
  H   H26       1.0  0.34960  0.09790  0.19890  1.0000
  H   H27       1.0  0.15040  0.59790  0.30110  1.0000
  H   H28       1.0  0.84960  0.59790  0.19890  1.0000
  H   H29       1.0  0.34960  0.90210  0.69890  1.0000
  H   H30       1.0  0.65040  0.90210  0.80110  1.0000
  H   H31       1.0  0.84960  0.40210  0.69890  1.0000
  H   H32       1.0  0.15040  0.40210  0.80110  1.0000
  C   C17       1.0  0.91350  0.79490  0.43460  1.0000
  C   C18       1.0  0.08650  0.79490  0.06540  1.0000
  C   C19       1.0  0.41350  0.29490  0.43460  1.0000
  C   C20       1.0  0.58650  0.29490  0.06540  1.0000
  C   C21       1.0  0.08650  0.20510  0.56540  1.0000
  C   C22       1.0  0.91350  0.20510  0.93460  1.0000
  C   C23       1.0  0.58650  0.70510  0.56540  1.0000
  C   C24       1.0  0.41350  0.70510  0.93460  1.0000
  H   H33       1.0  0.97380  0.81500  0.44460  1.0000
  H   H34       1.0  0.02620  0.81500  0.05540  1.0000
  H   H35       1.0  0.47380  0.31500  0.44460  1.0000
  H   H36       1.0  0.52620  0.31500  0.05540  1.0000
  H   H37       1.0  0.02620  0.18500  0.55540  1.0000
  H   H38       1.0  0.97380  0.18500  0.94460  1.0000
  H   H39       1.0  0.52620  0.68500  0.55540  1.0000
  H   H40       1.0  0.47380  0.68500  0.94460  1.0000
  C   C25       1.0  0.90210  0.73060  0.40500  1.0000
  C   C26       1.0  0.09790  0.73060  0.09500  1.0000
  C   C27       1.0  0.40210  0.23060  0.40500  1.0000
  C   C28       1.0  0.59790  0.23060  0.09500  1.0000
  C   C29       1.0  0.09790  0.26940  0.59500  1.0000
  C   C30       1.0  0.90210  0.26940  0.90500  1.0000
  C   C31       1.0  0.59790  0.76940  0.59500  1.0000
  C   C32       1.0  0.40210  0.76940  0.90500  1.0000
  H   H41       1.0  0.95300  0.70840  0.39490  1.0000
  H   H42       1.0  0.04700  0.70840  0.10510  1.0000
  H   H43       1.0  0.45300  0.20840  0.39490  1.0000
  H   H44       1.0  0.54700  0.20840  0.10510  1.0000
  H   H45       1.0  0.04700  0.29160  0.60510  1.0000
  H   H46       1.0  0.95300  0.29160  0.89490  1.0000
  H   H47       1.0  0.54700  0.79160  0.60510  1.0000
  H   H48       1.0  0.45300  0.79160  0.89490  1.0000
  C   C33       1.0  0.81360  0.69880  0.39030  1.0000
  C   C34       1.0  0.18640  0.69880  0.10970  1.0000
  C   C35       1.0  0.31360  0.19880  0.39030  1.0000
  C   C36       1.0  0.68640  0.19880  0.10970  1.0000
  C   C37       1.0  0.18640  0.30120  0.60970  1.0000
  C   C38       1.0  0.81360  0.30120  0.89030  1.0000
  C   C39       1.0  0.68640  0.80120  0.60970  1.0000
  C   C40       1.0  0.31360  0.80120  0.89030  1.0000
  H   H49       1.0  0.80290  0.65610  0.36880  1.0000
  H   H50       1.0  0.19710  0.65610  0.13120  1.0000
  H   H51       1.0  0.30290  0.15610  0.36880  1.0000
  H   H52       1.0  0.69710  0.15610  0.13120  1.0000
  H   H53       1.0  0.19710  0.34390  0.63120  1.0000
  H   H54       1.0  0.80290  0.34390  0.86880  1.0000
  H   H55       1.0  0.69710  0.84390  0.63120  1.0000
  H   H56       1.0  0.30290  0.84390  0.86880  1.0000
  C   C41       1.0  0.74160  0.73170  0.40810  1.0000
  C   C42       1.0  0.25840  0.73170  0.09190  1.0000
  C   C43       1.0  0.24160  0.23170  0.40810  1.0000
  C   C44       1.0  0.75840  0.23170  0.09190  1.0000
  C   C45       1.0  0.25840  0.26830  0.59190  1.0000
  C   C46       1.0  0.74160  0.26830  0.90810  1.0000
  C   C47       1.0  0.75840  0.76830  0.59190  1.0000
  C   C48       1.0  0.24160  0.76830  0.90810  1.0000
  H   H57       1.0  0.68190  0.70980  0.40020  1.0000
  H   H58       1.0  0.31810  0.70980  0.09980  1.0000
  H   H59       1.0  0.18190  0.20980  0.40020  1.0000
  H   H60       1.0  0.81810  0.20980  0.09980  1.0000
  H   H61       1.0  0.31810  0.29020  0.59980  1.0000
  H   H62       1.0  0.68190  0.29020  0.90020  1.0000
  H   H63       1.0  0.81810  0.79020  0.59980  1.0000
  H   H64       1.0  0.18190  0.79020  0.90020  1.0000
  C   C49       1.0  0.75880  0.79770  0.43800  1.0000
  C   C50       1.0  0.24120  0.79770  0.06200  1.0000
  C   C51       1.0  0.25880  0.29770  0.43800  1.0000
  C   C52       1.0  0.74120  0.29770  0.06200  1.0000
  C   C53       1.0  0.24120  0.20230  0.56200  1.0000
  C   C54       1.0  0.75880  0.20230  0.93800  1.0000
  C   C55       1.0  0.74120  0.70230  0.56200  1.0000
  C   C56       1.0  0.25880  0.70230  0.93800  1.0000
  C   C57       1.0  0.68390  0.83620  0.45870  1.0000
  C   C58       1.0  0.31610  0.83620  0.04130  1.0000
  C   C59       1.0  0.18390  0.33620  0.45870  1.0000
  C   C60       1.0  0.81610  0.33620  0.04130  1.0000
  C   C61       1.0  0.31610  0.16380  0.54130  1.0000
  C   C62       1.0  0.68390  0.16380  0.95870  1.0000
  C   C63       1.0  0.81610  0.66380  0.54130  1.0000
  C   C64       1.0  0.18390  0.66380  0.95870  1.0000
  C   C65       1.0  0.59460  0.80190  0.45320  1.0000
  C   C66       1.0  0.40540  0.80190  0.04680  1.0000
  C   C67       1.0  0.09460  0.30190  0.45320  1.0000
  C   C68       1.0  0.90540  0.30190  0.04680  1.0000
  C   C69       1.0  0.40540  0.19810  0.54680  1.0000
  C   C70       1.0  0.59460  0.19810  0.95320  1.0000
  C   C71       1.0  0.90540  0.69810  0.54680  1.0000
  C   C72       1.0  0.09460  0.69810  0.95320  1.0000
  H   H65       1.0  0.58120  0.75450  0.43630  1.0000
  H   H66       1.0  0.41880  0.75450  0.06370  1.0000
  H   H67       1.0  0.08120  0.25450  0.43630  1.0000
  H   H68       1.0  0.91880  0.25450  0.06370  1.0000
  H   H69       1.0  0.41880  0.24550  0.56370  1.0000
  H   H70       1.0  0.58120  0.24550  0.93630  1.0000
  H   H71       1.0  0.91880  0.74550  0.56370  1.0000
  H   H72       1.0  0.08120  0.74550  0.93630  1.0000
  C   C73       1.0  0.52740  0.83800  0.47270  1.0000
  C   C74       1.0  0.47260  0.83800  0.02730  1.0000
  C   C75       1.0  0.02740  0.33800  0.47270  1.0000
  C   C76       1.0  0.97260  0.33800  0.02730  1.0000
  C   C77       1.0  0.47260  0.16200  0.52730  1.0000
  C   C78       1.0  0.52740  0.16200  0.97270  1.0000
  C   C79       1.0  0.97260  0.66200  0.52730  1.0000
  C   C80       1.0  0.02740  0.66200  0.97270  1.0000
  H   H73       1.0  0.46770  0.81650  0.46870  1.0000
  H   H74       1.0  0.53230  0.81650  0.03130  1.0000
  H   H75       1.0  0.96770  0.31650  0.46870  1.0000
  H   H76       1.0  0.03230  0.31650  0.03130  1.0000
  H   H77       1.0  0.53230  0.18350  0.53130  1.0000
  H   H78       1.0  0.46770  0.18350  0.96870  1.0000
  H   H79       1.0  0.03230  0.68350  0.53130  1.0000
  H   H80       1.0  0.96770  0.68350  0.96870  1.0000
  C   C81       1.0  0.55100  0.90790  0.49890  1.0000
  C   C82       1.0  0.44900  0.90790  0.00110  1.0000
  C   C83       1.0  0.05100  0.40790  0.49890  1.0000
  C   C84       1.0  0.94900  0.40790  0.00110  1.0000
  C   C85       1.0  0.44900  0.09210  0.50110  1.0000
  C   C86       1.0  0.55100  0.09210  0.99890  1.0000
  C   C87       1.0  0.94900  0.59210  0.50110  1.0000
  C   C88       1.0  0.05100  0.59210  0.99890  1.0000
  H   H81       1.0  0.50740  0.93350  0.51330  1.0000
  H   H82       1.0  0.49260  0.93350  0.98670  1.0000
  H   H83       1.0  0.00740  0.43350  0.51330  1.0000
  H   H84       1.0  0.99260  0.43350  0.98670  1.0000
  H   H85       1.0  0.49260  0.06650  0.48670  1.0000
  H   H86       1.0  0.50740  0.06650  0.01330  1.0000
  H   H87       1.0  0.99260  0.56650  0.48670  1.0000
  H   H88       1.0  0.00740  0.56650  0.01330  1.0000
  C   C89       1.0  0.63960  0.93840  0.50330  1.0000
  C   C90       1.0  0.36040  0.93840  0.99670  1.0000
  C   C91       1.0  0.13960  0.43840  0.50330  1.0000
  C   C92       1.0  0.86040  0.43840  0.99670  1.0000
  C   C93       1.0  0.36040  0.06160  0.49670  1.0000
  C   C94       1.0  0.63960  0.06160  0.00330  1.0000
  C   C95       1.0  0.86040  0.56160  0.49670  1.0000
  C   C96       1.0  0.13960  0.56160  0.00330  1.0000
  H   H89       1.0  0.65440  0.98550  0.52030  1.0000
  H   H90       1.0  0.34560  0.98550  0.97970  1.0000
  H   H91       1.0  0.15440  0.48550  0.52030  1.0000
  H   H92       1.0  0.84560  0.48550  0.97970  1.0000
  H   H93       1.0  0.34560  0.01450  0.47970  1.0000
  H   H94       1.0  0.65440  0.01450  0.02030  1.0000
  H   H95       1.0  0.84560  0.51450  0.47970  1.0000
  H   H96       1.0  0.15440  0.51450  0.02030  1.0000
