data_image0
_chemical_formula_structural       Cd36O192C96
_chemical_formula_sum              "Cd36 O192 C96"
_cell_length_a       18.518
_cell_length_b       18.518
_cell_length_c       18.518
_cell_angle_alpha    90
_cell_angle_beta     90
_cell_angle_gamma    90

_space_group_name_H-M_alt    "P 1"
_space_group_IT_number       1

loop_
  _space_group_symop_operation_xyz
  'x, y, z'

loop_
  _atom_site_type_symbol
  _atom_site_label
  _atom_site_symmetry_multiplicity
  _atom_site_fract_x
  _atom_site_fract_y
  _atom_site_fract_z
  _atom_site_occupancy
  Cd  Cd1       1.0  0.00000  0.25000  0.37500  1.0000
  Cd  Cd2       1.0  0.50000  0.75000  0.87500  1.0000
  Cd  Cd3       1.0  0.00000  0.75000  0.12500  1.0000
  Cd  Cd4       1.0  0.50000  0.25000  0.62500  1.0000
  Cd  Cd5       1.0  0.37500  0.00000  0.25000  1.0000
  Cd  Cd6       1.0  0.87500  0.50000  0.75000  1.0000
  Cd  Cd7       1.0  0.12500  0.00000  0.75000  1.0000
  Cd  Cd8       1.0  0.62500  0.50000  0.25000  1.0000
  Cd  Cd9       1.0  0.25000  0.37500  0.00000  1.0000
  Cd  Cd10      1.0  0.75000  0.87500  0.50000  1.0000
  Cd  Cd11      1.0  0.75000  0.12500  0.00000  1.0000
  Cd  Cd12      1.0  0.25000  0.62500  0.50000  1.0000
  Cd  Cd13      1.0  0.00000  0.25000  0.58240  1.0000
  Cd  Cd14      1.0  0.50000  0.75000  0.08240  1.0000
  Cd  Cd15      1.0  0.00000  0.75000  0.91760  1.0000
  Cd  Cd16      1.0  0.50000  0.25000  0.41760  1.0000
  Cd  Cd17      1.0  0.58240  0.00000  0.25000  1.0000
  Cd  Cd18      1.0  0.08240  0.50000  0.75000  1.0000
  Cd  Cd19      1.0  0.91760  0.00000  0.75000  1.0000
  Cd  Cd20      1.0  0.41760  0.50000  0.25000  1.0000
  Cd  Cd21      1.0  0.25000  0.58240  0.00000  1.0000
  Cd  Cd22      1.0  0.75000  0.08240  0.50000  1.0000
  Cd  Cd23      1.0  0.75000  0.91760  0.00000  1.0000
  Cd  Cd24      1.0  0.25000  0.41760  0.50000  1.0000
  Cd  Cd25      1.0  0.50000  0.25000  0.83240  1.0000
  Cd  Cd26      1.0  0.00000  0.75000  0.33240  1.0000
  Cd  Cd27      1.0  0.00000  0.25000  0.16760  1.0000
  Cd  Cd28      1.0  0.50000  0.75000  0.66760  1.0000
  Cd  Cd29      1.0  0.25000  0.83240  0.50000  1.0000
  Cd  Cd30      1.0  0.75000  0.33240  0.00000  1.0000
  Cd  Cd31      1.0  0.25000  0.16760  0.00000  1.0000
  Cd  Cd32      1.0  0.75000  0.66760  0.50000  1.0000
  Cd  Cd33      1.0  0.83240  0.50000  0.25000  1.0000
  Cd  Cd34      1.0  0.33240  0.00000  0.75000  1.0000
  Cd  Cd35      1.0  0.16760  0.00000  0.25000  1.0000
  Cd  Cd36      1.0  0.66760  0.50000  0.75000  1.0000
  O   O1        1.0  0.94180  0.20880  0.48330  1.0000
  O   O2        1.0  0.55820  0.79120  0.98330  1.0000
  O   O3        1.0  0.05820  0.70880  0.01670  1.0000
  O   O4        1.0  0.44180  0.29120  0.51670  1.0000
  O   O5        1.0  0.48330  0.94180  0.20880  1.0000
  O   O6        1.0  0.98330  0.55820  0.79120  1.0000
  O   O7        1.0  0.01670  0.05820  0.70880  1.0000
  O   O8        1.0  0.51670  0.44180  0.29120  1.0000
  O   O9        1.0  0.20880  0.48330  0.94180  1.0000
  O   O10       1.0  0.79120  0.98330  0.55820  1.0000
  O   O11       1.0  0.70880  0.01670  0.05820  1.0000
  O   O12       1.0  0.29120  0.51670  0.44180  1.0000
  O   O13       1.0  0.45880  0.19180  0.73330  1.0000
  O   O14       1.0  0.04120  0.80820  0.23330  1.0000
  O   O15       1.0  0.95880  0.30820  0.26670  1.0000
  O   O16       1.0  0.54120  0.69180  0.76670  1.0000
  O   O17       1.0  0.19180  0.73330  0.45880  1.0000
  O   O18       1.0  0.80820  0.23330  0.04120  1.0000
  O   O19       1.0  0.30820  0.26670  0.95880  1.0000
  O   O20       1.0  0.69180  0.76670  0.54120  1.0000
  O   O21       1.0  0.73330  0.45880  0.19180  1.0000
  O   O22       1.0  0.23330  0.04120  0.80820  1.0000
  O   O23       1.0  0.26670  0.95880  0.30820  1.0000
  O   O24       1.0  0.76670  0.54120  0.69180  1.0000
  O   O25       1.0  0.44180  0.70880  0.98330  1.0000
  O   O26       1.0  0.05820  0.29120  0.48330  1.0000
  O   O27       1.0  0.55820  0.20880  0.51670  1.0000
  O   O28       1.0  0.94180  0.79120  0.01670  1.0000
  O   O29       1.0  0.98330  0.44180  0.70880  1.0000
  O   O30       1.0  0.48330  0.05820  0.29120  1.0000
  O   O31       1.0  0.51670  0.55820  0.20880  1.0000
  O   O32       1.0  0.01670  0.94180  0.79120  1.0000
  O   O33       1.0  0.70880  0.98330  0.44180  1.0000
  O   O34       1.0  0.29120  0.48330  0.05820  1.0000
  O   O35       1.0  0.20880  0.51670  0.55820  1.0000
  O   O36       1.0  0.79120  0.01670  0.94180  1.0000
  O   O37       1.0  0.95880  0.69180  0.23330  1.0000
  O   O38       1.0  0.54120  0.30820  0.73330  1.0000
  O   O39       1.0  0.45880  0.80820  0.76670  1.0000
  O   O40       1.0  0.04120  0.19180  0.26670  1.0000
  O   O41       1.0  0.69180  0.23330  0.95880  1.0000
  O   O42       1.0  0.30820  0.73330  0.54120  1.0000
  O   O43       1.0  0.80820  0.76670  0.45880  1.0000
  O   O44       1.0  0.19180  0.26670  0.04120  1.0000
  O   O45       1.0  0.23330  0.95880  0.69180  1.0000
  O   O46       1.0  0.73330  0.54120  0.30820  1.0000
  O   O47       1.0  0.76670  0.45880  0.80820  1.0000
  O   O48       1.0  0.26670  0.04120  0.19180  1.0000
  O   O49       1.0  0.89680  0.17770  0.35120  1.0000
  O   O50       1.0  0.60320  0.82230  0.85120  1.0000
  O   O51       1.0  0.10320  0.67770  0.14880  1.0000
  O   O52       1.0  0.39680  0.32230  0.64880  1.0000
  O   O53       1.0  0.35120  0.89680  0.17770  1.0000
  O   O54       1.0  0.85120  0.60320  0.82230  1.0000
  O   O55       1.0  0.14880  0.10320  0.67770  1.0000
  O   O56       1.0  0.64880  0.39680  0.32230  1.0000
  O   O57       1.0  0.17770  0.35120  0.89680  1.0000
  O   O58       1.0  0.82230  0.85120  0.60320  1.0000
  O   O59       1.0  0.67770  0.14880  0.10320  1.0000
  O   O60       1.0  0.32230  0.64880  0.39680  1.0000
  O   O61       1.0  0.42770  0.14680  0.60120  1.0000
  O   O62       1.0  0.07230  0.85320  0.10120  1.0000
  O   O63       1.0  0.92770  0.35320  0.39880  1.0000
  O   O64       1.0  0.57230  0.64680  0.89880  1.0000
  O   O65       1.0  0.14680  0.60120  0.42770  1.0000
  O   O66       1.0  0.85320  0.10120  0.07230  1.0000
  O   O67       1.0  0.35320  0.39880  0.92770  1.0000
  O   O68       1.0  0.64680  0.89880  0.57230  1.0000
  O   O69       1.0  0.60120  0.42770  0.14680  1.0000
  O   O70       1.0  0.10120  0.07230  0.85320  1.0000
  O   O71       1.0  0.39880  0.92770  0.35320  1.0000
  O   O72       1.0  0.89880  0.57230  0.64680  1.0000
  O   O73       1.0  0.39680  0.67770  0.85120  1.0000
  O   O74       1.0  0.10320  0.32230  0.35120  1.0000
  O   O75       1.0  0.60320  0.17770  0.64880  1.0000
  O   O76       1.0  0.89680  0.82230  0.14880  1.0000
  O   O77       1.0  0.85120  0.39680  0.67770  1.0000
  O   O78       1.0  0.35120  0.10320  0.32230  1.0000
  O   O79       1.0  0.64880  0.60320  0.17770  1.0000
  O   O80       1.0  0.14880  0.89680  0.82230  1.0000
  O   O81       1.0  0.67770  0.85120  0.39680  1.0000
  O   O82       1.0  0.32230  0.35120  0.10320  1.0000
  O   O83       1.0  0.17770  0.64880  0.60320  1.0000
  O   O84       1.0  0.82230  0.14880  0.89680  1.0000
  O   O85       1.0  0.92770  0.64680  0.10120  1.0000
  O   O86       1.0  0.57230  0.35320  0.60120  1.0000
  O   O87       1.0  0.42770  0.85320  0.89880  1.0000
  O   O88       1.0  0.07230  0.14680  0.39880  1.0000
  O   O89       1.0  0.64680  0.10120  0.92770  1.0000
  O   O90       1.0  0.35320  0.60120  0.57230  1.0000
  O   O91       1.0  0.85320  0.89880  0.42770  1.0000
  O   O92       1.0  0.14680  0.39880  0.07230  1.0000
  O   O93       1.0  0.10120  0.92770  0.64680  1.0000
  O   O94       1.0  0.60120  0.57230  0.35320  1.0000
  O   O95       1.0  0.89880  0.42770  0.85320  1.0000
  O   O96       1.0  0.39880  0.07230  0.14680  1.0000
  O   O97       1.0  0.80060  0.11950  0.39650  1.0000
  O   O98       1.0  0.69940  0.88050  0.89650  1.0000
  O   O99       1.0  0.19940  0.61950  0.10350  1.0000
  O   O100      1.0  0.30060  0.38050  0.60350  1.0000
  O   O101      1.0  0.39650  0.80060  0.11950  1.0000
  O   O102      1.0  0.89650  0.69940  0.88050  1.0000
  O   O103      1.0  0.10350  0.19940  0.61950  1.0000
  O   O104      1.0  0.60350  0.30060  0.38050  1.0000
  O   O105      1.0  0.11950  0.39650  0.80060  1.0000
  O   O106      1.0  0.88050  0.89650  0.69940  1.0000
  O   O107      1.0  0.61950  0.10350  0.19940  1.0000
  O   O108      1.0  0.38050  0.60350  0.30060  1.0000
  O   O109      1.0  0.36950  0.05060  0.64650  1.0000
  O   O110      1.0  0.13050  0.94940  0.14650  1.0000
  O   O111      1.0  0.86950  0.44940  0.35350  1.0000
  O   O112      1.0  0.63050  0.55060  0.85350  1.0000
  O   O113      1.0  0.05060  0.64650  0.36950  1.0000
  O   O114      1.0  0.94940  0.14650  0.13050  1.0000
  O   O115      1.0  0.44940  0.35350  0.86950  1.0000
  O   O116      1.0  0.55060  0.85350  0.63050  1.0000
  O   O117      1.0  0.64650  0.36950  0.05060  1.0000
  O   O118      1.0  0.14650  0.13050  0.94940  1.0000
  O   O119      1.0  0.35350  0.86950  0.44940  1.0000
  O   O120      1.0  0.85350  0.63050  0.55060  1.0000
  O   O121      1.0  0.30060  0.61950  0.89650  1.0000
  O   O122      1.0  0.19940  0.38050  0.39650  1.0000
  O   O123      1.0  0.69940  0.11950  0.60350  1.0000
  O   O124      1.0  0.80060  0.88050  0.10350  1.0000
  O   O125      1.0  0.89650  0.30060  0.61950  1.0000
  O   O126      1.0  0.39650  0.19940  0.38050  1.0000
  O   O127      1.0  0.60350  0.69940  0.11950  1.0000
  O   O128      1.0  0.10350  0.80060  0.88050  1.0000
  O   O129      1.0  0.61950  0.89650  0.30060  1.0000
  O   O130      1.0  0.38050  0.39650  0.19940  1.0000
  O   O131      1.0  0.11950  0.60350  0.69940  1.0000
  O   O132      1.0  0.88050  0.10350  0.80060  1.0000
  O   O133      1.0  0.86950  0.55060  0.14650  1.0000
  O   O134      1.0  0.63050  0.44940  0.64650  1.0000
  O   O135      1.0  0.36950  0.94940  0.85350  1.0000
  O   O136      1.0  0.13050  0.05060  0.35350  1.0000
  O   O137      1.0  0.55060  0.14650  0.86950  1.0000
  O   O138      1.0  0.44940  0.64650  0.63050  1.0000
  O   O139      1.0  0.94940  0.85350  0.36950  1.0000
  O   O140      1.0  0.05060  0.35350  0.13050  1.0000
  O   O141      1.0  0.14650  0.86950  0.55060  1.0000
  O   O142      1.0  0.64650  0.63050  0.44940  1.0000
  O   O143      1.0  0.85350  0.36950  0.94940  1.0000
  O   O144      1.0  0.35350  0.13050  0.05060  1.0000
  O   O145      1.0  0.84540  0.15390  0.53090  1.0000
  O   O146      1.0  0.65460  0.84610  0.03090  1.0000
  O   O147      1.0  0.15460  0.65390  0.96910  1.0000
  O   O148      1.0  0.34540  0.34610  0.46910  1.0000
  O   O149      1.0  0.53090  0.84540  0.15390  1.0000
  O   O150      1.0  0.03090  0.65460  0.84610  1.0000
  O   O151      1.0  0.96910  0.15460  0.65390  1.0000
  O   O152      1.0  0.46910  0.34540  0.34610  1.0000
  O   O153      1.0  0.15390  0.53090  0.84540  1.0000
  O   O154      1.0  0.84610  0.03090  0.65460  1.0000
  O   O155      1.0  0.65390  0.96910  0.15460  1.0000
  O   O156      1.0  0.34610  0.46910  0.34540  1.0000
  O   O157      1.0  0.40390  0.09540  0.78090  1.0000
  O   O158      1.0  0.09610  0.90460  0.28090  1.0000
  O   O159      1.0  0.90390  0.40460  0.21910  1.0000
  O   O160      1.0  0.59610  0.59540  0.71910  1.0000
  O   O161      1.0  0.09540  0.78090  0.40390  1.0000
  O   O162      1.0  0.90460  0.28090  0.09610  1.0000
  O   O163      1.0  0.40460  0.21910  0.90390  1.0000
  O   O164      1.0  0.59540  0.71910  0.59610  1.0000
  O   O165      1.0  0.78090  0.40390  0.09540  1.0000
  O   O166      1.0  0.28090  0.09610  0.90460  1.0000
  O   O167      1.0  0.21910  0.90390  0.40460  1.0000
  O   O168      1.0  0.71910  0.59610  0.59540  1.0000
  O   O169      1.0  0.34540  0.65390  0.03090  1.0000
  O   O170      1.0  0.15460  0.34610  0.53090  1.0000
  O   O171      1.0  0.65460  0.15390  0.46910  1.0000
  O   O172      1.0  0.84540  0.84610  0.96910  1.0000
  O   O173      1.0  0.03090  0.34540  0.65390  1.0000
  O   O174      1.0  0.53090  0.15460  0.34610  1.0000
  O   O175      1.0  0.46910  0.65460  0.15390  1.0000
  O   O176      1.0  0.96910  0.84540  0.84610  1.0000
  O   O177      1.0  0.65390  0.03090  0.34540  1.0000
  O   O178      1.0  0.34610  0.53090  0.15460  1.0000
  O   O179      1.0  0.15390  0.46910  0.65460  1.0000
  O   O180      1.0  0.84610  0.96910  0.84540  1.0000
  O   O181      1.0  0.90390  0.59540  0.28090  1.0000
  O   O182      1.0  0.59610  0.40460  0.78090  1.0000
  O   O183      1.0  0.40390  0.90460  0.71910  1.0000
  O   O184      1.0  0.09610  0.09540  0.21910  1.0000
  O   O185      1.0  0.59540  0.28090  0.90390  1.0000
  O   O186      1.0  0.40460  0.78090  0.59610  1.0000
  O   O187      1.0  0.90460  0.71910  0.40390  1.0000
  O   O188      1.0  0.09540  0.21910  0.09610  1.0000
  O   O189      1.0  0.28090  0.90390  0.59540  1.0000
  O   O190      1.0  0.78090  0.59610  0.40460  1.0000
  O   O191      1.0  0.71910  0.40390  0.90460  1.0000
  O   O192      1.0  0.21910  0.09610  0.09540  1.0000
  C   C1        1.0  0.88400  0.17320  0.47870  1.0000
  C   C2        1.0  0.61600  0.82680  0.97870  1.0000
  C   C3        1.0  0.11600  0.67320  0.02130  1.0000
  C   C4        1.0  0.38400  0.32680  0.52130  1.0000
  C   C5        1.0  0.47870  0.88400  0.17320  1.0000
  C   C6        1.0  0.97870  0.61600  0.82680  1.0000
  C   C7        1.0  0.02130  0.11600  0.67320  1.0000
  C   C8        1.0  0.52130  0.38400  0.32680  1.0000
  C   C9        1.0  0.17320  0.47870  0.88400  1.0000
  C   C10       1.0  0.82680  0.97870  0.61600  1.0000
  C   C11       1.0  0.67320  0.02130  0.11600  1.0000
  C   C12       1.0  0.32680  0.52130  0.38400  1.0000
  C   C13       1.0  0.42320  0.13400  0.72870  1.0000
  C   C14       1.0  0.07680  0.86600  0.22870  1.0000
  C   C15       1.0  0.92320  0.36600  0.27130  1.0000
  C   C16       1.0  0.57680  0.63400  0.77130  1.0000
  C   C17       1.0  0.13400  0.72870  0.42320  1.0000
  C   C18       1.0  0.86600  0.22870  0.07680  1.0000
  C   C19       1.0  0.36600  0.27130  0.92320  1.0000
  C   C20       1.0  0.63400  0.77130  0.57680  1.0000
  C   C21       1.0  0.72870  0.42320  0.13400  1.0000
  C   C22       1.0  0.22870  0.07680  0.86600  1.0000
  C   C23       1.0  0.27130  0.92320  0.36600  1.0000
  C   C24       1.0  0.77130  0.57680  0.63400  1.0000
  C   C25       1.0  0.38400  0.67320  0.97870  1.0000
  C   C26       1.0  0.11600  0.32680  0.47870  1.0000
  C   C27       1.0  0.61600  0.17320  0.52130  1.0000
  C   C28       1.0  0.88400  0.82680  0.02130  1.0000
  C   C29       1.0  0.97870  0.38400  0.67320  1.0000
  C   C30       1.0  0.47870  0.11600  0.32680  1.0000
  C   C31       1.0  0.52130  0.61600  0.17320  1.0000
  C   C32       1.0  0.02130  0.88400  0.82680  1.0000
  C   C33       1.0  0.67320  0.97870  0.38400  1.0000
  C   C34       1.0  0.32680  0.47870  0.11600  1.0000
  C   C35       1.0  0.17320  0.52130  0.61600  1.0000
  C   C36       1.0  0.82680  0.02130  0.88400  1.0000
  C   C37       1.0  0.92320  0.63400  0.22870  1.0000
  C   C38       1.0  0.57680  0.36600  0.72870  1.0000
  C   C39       1.0  0.42320  0.86600  0.77130  1.0000
  C   C40       1.0  0.07680  0.13400  0.27130  1.0000
  C   C41       1.0  0.63400  0.22870  0.92320  1.0000
  C   C42       1.0  0.36600  0.72870  0.57680  1.0000
  C   C43       1.0  0.86600  0.77130  0.42320  1.0000
  C   C44       1.0  0.13400  0.27130  0.07680  1.0000
  C   C45       1.0  0.22870  0.92320  0.63400  1.0000
  C   C46       1.0  0.72870  0.57680  0.36600  1.0000
  C   C47       1.0  0.77130  0.42320  0.86600  1.0000
  C   C48       1.0  0.27130  0.07680  0.13400  1.0000
  C   C49       1.0  0.85850  0.15520  0.40230  1.0000
  C   C50       1.0  0.64150  0.84480  0.90230  1.0000
  C   C51       1.0  0.14150  0.65520  0.09770  1.0000
  C   C52       1.0  0.35850  0.34480  0.59770  1.0000
  C   C53       1.0  0.40230  0.85850  0.15520  1.0000
  C   C54       1.0  0.90230  0.64150  0.84480  1.0000
  C   C55       1.0  0.09770  0.14150  0.65520  1.0000
  C   C56       1.0  0.59770  0.35850  0.34480  1.0000
  C   C57       1.0  0.15520  0.40230  0.85850  1.0000
  C   C58       1.0  0.84480  0.90230  0.64150  1.0000
  C   C59       1.0  0.65520  0.09770  0.14150  1.0000
  C   C60       1.0  0.34480  0.59770  0.35850  1.0000
  C   C61       1.0  0.40520  0.10850  0.65230  1.0000
  C   C62       1.0  0.09480  0.89150  0.15230  1.0000
  C   C63       1.0  0.90520  0.39150  0.34770  1.0000
  C   C64       1.0  0.59480  0.60850  0.84770  1.0000
  C   C65       1.0  0.10850  0.65230  0.40520  1.0000
  C   C66       1.0  0.89150  0.15230  0.09480  1.0000
  C   C67       1.0  0.39150  0.34770  0.90520  1.0000
  C   C68       1.0  0.60850  0.84770  0.59480  1.0000
  C   C69       1.0  0.65230  0.40520  0.10850  1.0000
  C   C70       1.0  0.15230  0.09480  0.89150  1.0000
  C   C71       1.0  0.34770  0.90520  0.39150  1.0000
  C   C72       1.0  0.84770  0.59480  0.60850  1.0000
  C   C73       1.0  0.35850  0.65520  0.90230  1.0000
  C   C74       1.0  0.14150  0.34480  0.40230  1.0000
  C   C75       1.0  0.64150  0.15520  0.59770  1.0000
  C   C76       1.0  0.85850  0.84480  0.09770  1.0000
  C   C77       1.0  0.90230  0.35850  0.65520  1.0000
  C   C78       1.0  0.40230  0.14150  0.34480  1.0000
  C   C79       1.0  0.59770  0.64150  0.15520  1.0000
  C   C80       1.0  0.09770  0.85850  0.84480  1.0000
  C   C81       1.0  0.65520  0.90230  0.35850  1.0000
  C   C82       1.0  0.34480  0.40230  0.14150  1.0000
  C   C83       1.0  0.15520  0.59770  0.64150  1.0000
  C   C84       1.0  0.84480  0.09770  0.85850  1.0000
  C   C85       1.0  0.90520  0.60850  0.15230  1.0000
  C   C86       1.0  0.59480  0.39150  0.65230  1.0000
  C   C87       1.0  0.40520  0.89150  0.84770  1.0000
  C   C88       1.0  0.09480  0.10850  0.34770  1.0000
  C   C89       1.0  0.60850  0.15230  0.90520  1.0000
  C   C90       1.0  0.39150  0.65230  0.59480  1.0000
  C   C91       1.0  0.89150  0.84770  0.40520  1.0000
  C   C92       1.0  0.10850  0.34770  0.09480  1.0000
  C   C93       1.0  0.15230  0.90520  0.60850  1.0000
  C   C94       1.0  0.65230  0.59480  0.39150  1.0000
  C   C95       1.0  0.84770  0.40520  0.89150  1.0000
  C   C96       1.0  0.34770  0.09480  0.10850  1.0000
