data_image0
_chemical_formula_structural       CoO12H4C6H2C2H2C4H2C2H2C2H4C2
_chemical_formula_sum              "Co1 O12 H16 C18"
_cell_length_a       7.6417
_cell_length_b       10.106
_cell_length_c       10.638
_cell_angle_alpha    93.557
_cell_angle_beta     101.146
_cell_angle_gamma    101.551

_space_group_name_H-M_alt    "P 1"
_space_group_IT_number       1

loop_
  _space_group_symop_operation_xyz
  'x, y, z'

loop_
  _atom_site_type_symbol
  _atom_site_label
  _atom_site_symmetry_multiplicity
  _atom_site_fract_x
  _atom_site_fract_y
  _atom_site_fract_z
  _atom_site_occupancy
  Co  Co1       1.0  0.50000  0.50000  0.50000  1.0000
  O   O1        1.0  0.42810  0.60220  0.33240  1.0000
  O   O2        1.0  0.57190  0.39780  0.66760  1.0000
  O   O3        1.0  0.53260  0.59720  0.15250  1.0000
  O   O4        1.0  0.46740  0.40280  0.84750  1.0000
  O   O5        1.0  0.94880  0.18990  0.39280  1.0000
  O   O6        1.0  0.05120  0.81010  0.60720  1.0000
  O   O7        1.0  0.14080  0.46480  0.63420  1.0000
  O   O8        1.0  0.85920  0.53520  0.36580  1.0000
  O   O9        1.0  0.22990  0.39270  0.46020  1.0000
  O   O10       1.0  0.77010  0.60730  0.53980  1.0000
  O   O11       1.0  0.43940  0.65100  0.61650  1.0000
  O   O12       1.0  0.56060  0.34900  0.38350  1.0000
  H   H1        1.0  0.52220  0.68900  0.68020  1.0000
  H   H2        1.0  0.47780  0.31100  0.31980  1.0000
  H   H3        1.0  0.34650  0.59810  0.63180  1.0000
  H   H4        1.0  0.65350  0.40190  0.36820  1.0000
  C   C1        1.0  0.52960  0.65560  0.25850  1.0000
  C   C2        1.0  0.47040  0.34440  0.74150  1.0000
  C   C3        1.0  0.64160  0.79570  0.29890  1.0000
  C   C4        1.0  0.35840  0.20430  0.70110  1.0000
  C   C5        1.0  0.63180  0.86970  0.40910  1.0000
  C   C6        1.0  0.36820  0.13030  0.59090  1.0000
  H   H5        1.0  0.55580  0.82990  0.46120  1.0000
  H   H6        1.0  0.44420  0.17010  0.53880  1.0000
  C   C7        1.0  0.73090  0.00160  0.44540  1.0000
  C   C8        1.0  0.26910  0.99840  0.55460  1.0000
  H   H7        1.0  0.72090  0.04960  0.52020  1.0000
  H   H8        1.0  0.27910  0.95040  0.47980  1.0000
  C   C9        1.0  0.84530  0.06060  0.36840  1.0000
  C   C10       1.0  0.15470  0.93940  0.63160  1.0000
  C   C11       1.0  0.85940  0.98890  0.25700  1.0000
  C   C12       1.0  0.14060  0.01110  0.74300  1.0000
  H   H9        1.0  0.93740  0.02830  0.20590  1.0000
  H   H10       1.0  0.06260  0.97170  0.79410  1.0000
  C   C13       1.0  0.75700  0.85860  0.22230  1.0000
  C   C14       1.0  0.24300  0.14140  0.77770  1.0000
  H   H11       1.0  0.76460  0.81130  0.14640  1.0000
  H   H12       1.0  0.23540  0.18870  0.85360  1.0000
  C   C15       1.0  0.96070  0.26520  0.51220  1.0000
  C   C16       1.0  0.03930  0.73480  0.48780  1.0000
  H   H13       1.0  0.97480  0.20740  0.58120  1.0000
  H   H14       1.0  0.02520  0.79260  0.41880  1.0000
  H   H15       1.0  0.84930  0.29770  0.51100  1.0000
  H   H16       1.0  0.15070  0.70230  0.48900  1.0000
  C   C17       1.0  0.12210  0.38420  0.53570  1.0000
  C   C18       1.0  0.87790  0.61580  0.46430  1.0000
