data_image0
_chemical_formula_structural       Cu2S6N4C4N2C2Cu2
_chemical_formula_sum              "Cu4 S6 N6 C6"
_cell_length_a       7.6824
_cell_length_b       7.8094
_cell_length_c       9.9541
_cell_angle_alpha    79.712
_cell_angle_beta     86.34
_cell_angle_gamma    71.114

_space_group_name_H-M_alt    "P 1"
_space_group_IT_number       1

loop_
  _space_group_symop_operation_xyz
  'x, y, z'

loop_
  _atom_site_type_symbol
  _atom_site_label
  _atom_site_symmetry_multiplicity
  _atom_site_fract_x
  _atom_site_fract_y
  _atom_site_fract_z
  _atom_site_occupancy
  Cu  Cu1       1.0  0.09430  0.54432  0.08974  1.0000
  Cu  Cu2       1.0  0.90570  0.45568  0.91026  1.0000
  S   S1        1.0  0.18670  0.24530  0.16270  1.0000
  S   S2        1.0  0.81330  0.75470  0.83730  1.0000
  S   S3        1.0  0.92030  0.69330  0.26810  1.0000
  S   S4        1.0  0.07970  0.30670  0.73190  1.0000
  S   S5        1.0  0.57990  0.28840  0.92050  1.0000
  S   S6        1.0  0.42010  0.71160  0.07950  1.0000
  N   N1        1.0  0.87880  0.25060  0.04990  1.0000
  N   N2        1.0  0.12120  0.74940  0.95010  1.0000
  N   N3        1.0  0.76040  0.00140  0.10290  1.0000
  N   N4        1.0  0.23960  0.99860  0.89710  1.0000
  C   C1        1.0  0.01200  0.16040  0.14270  1.0000
  C   C2        1.0  0.98800  0.83960  0.85730  1.0000
  C   C3        1.0  0.89640  0.91500  0.19240  1.0000
  C   C4        1.0  0.10360  0.08500  0.80760  1.0000
  N   N5        1.0  0.01900  0.99680  0.21850  1.0000
  N   N6        1.0  0.98100  0.00320  0.78150  1.0000
  C   C5        1.0  0.74930  0.17130  0.03410  1.0000
  C   C6        1.0  0.25070  0.82870  0.96590  1.0000
  Cu  Cu3       1.0  0.36561  0.15710  0.95595  1.0000
  Cu  Cu4       1.0  0.63439  0.84290  0.04405  1.0000
