data_image0
_chemical_formula_structural       U4O40H4C8H8C4H8C4H8C4H8C4H8C12H8C4H8C4H8C4H8C4H8C4
_chemical_formula_sum              "U4 O40 H84 C56"
_cell_length_a       14.158
_cell_length_b       15.2308
_cell_length_c       14.9688
_cell_angle_alpha    90
_cell_angle_beta     90.051
_cell_angle_gamma    90

_space_group_name_H-M_alt    "P 1"
_space_group_IT_number       1

loop_
  _space_group_symop_operation_xyz
  'x, y, z'

loop_
  _atom_site_type_symbol
  _atom_site_label
  _atom_site_symmetry_multiplicity
  _atom_site_fract_x
  _atom_site_fract_y
  _atom_site_fract_z
  _atom_site_occupancy
  U   U1        1.0  0.77162  0.52156  0.29369  1.0000
  U   U2        1.0  0.22838  0.02156  0.20631  1.0000
  U   U3        1.0  0.22838  0.47844  0.70631  1.0000
  U   U4        1.0  0.77162  0.97844  0.79369  1.0000
  O   O1        1.0  0.83655  0.42351  0.27546  1.0000
  O   O2        1.0  0.16345  0.92351  0.22454  1.0000
  O   O3        1.0  0.16345  0.57649  0.72454  1.0000
  O   O4        1.0  0.83655  0.07649  0.77546  1.0000
  O   O5        1.0  0.70680  0.61945  0.31238  1.0000
  O   O6        1.0  0.29320  0.11945  0.18762  1.0000
  O   O7        1.0  0.29320  0.38055  0.68762  1.0000
  O   O8        1.0  0.70680  0.88055  0.81238  1.0000
  O   O9        1.0  0.79307  0.50614  0.45591  1.0000
  O   O10       1.0  0.20693  0.00614  0.04409  1.0000
  O   O11       1.0  0.20693  0.49386  0.54409  1.0000
  O   O12       1.0  0.79307  0.99386  0.95591  1.0000
  O   O13       1.0  0.90230  0.58229  0.38750  1.0000
  O   O14       1.0  0.09770  0.08229  0.11250  1.0000
  O   O15       1.0  0.09770  0.41771  0.61250  1.0000
  O   O16       1.0  0.90230  0.91771  0.88750  1.0000
  O   O17       1.0  0.89276  0.90015  0.70472  1.0000
  O   O18       1.0  0.10724  0.40015  0.79528  1.0000
  O   O19       1.0  0.10724  0.09985  0.29528  1.0000
  O   O20       1.0  0.89276  0.59985  0.20472  1.0000
  O   O21       1.0  0.76870  0.94898  0.63141  1.0000
  O   O22       1.0  0.23130  0.44898  0.86859  1.0000
  O   O23       1.0  0.23130  0.05102  0.36859  1.0000
  O   O24       1.0  0.76870  0.55102  0.13141  1.0000
  O   O25       1.0  0.63547  0.44986  0.22045  1.0000
  O   O26       1.0  0.36453  0.94986  0.27955  1.0000
  O   O27       1.0  0.36453  0.55014  0.77955  1.0000
  O   O28       1.0  0.63547  0.05014  0.72045  1.0000
  O   O29       1.0  0.64693  0.43635  0.36526  1.0000
  O   O30       1.0  0.35307  0.93635  0.13474  1.0000
  O   O31       1.0  0.35307  0.56365  0.63474  1.0000
  O   O32       1.0  0.64693  0.06365  0.86526  1.0000
  O   O33       1.0  0.51435  0.10274  0.46124  1.0000
  O   O34       1.0  0.48565  0.60274  0.03876  1.0000
  O   O35       1.0  0.48565  0.89726  0.53876  1.0000
  O   O36       1.0  0.51435  0.39726  0.96124  1.0000
  O   O37       1.0  0.42721  0.05832  0.57636  1.0000
  O   O38       1.0  0.57279  0.55832  0.92364  1.0000
  O   O39       1.0  0.57279  0.94168  0.42364  1.0000
  O   O40       1.0  0.42721  0.44168  0.07636  1.0000
  H   H1        1.0  0.44350  0.00110  0.55870  1.0000
  H   H2        1.0  0.55650  0.50110  0.94130  1.0000
  H   H3        1.0  0.55650  0.99890  0.44130  1.0000
  H   H4        1.0  0.44350  0.49890  0.05870  1.0000
  C   C1        1.0  0.86712  0.55270  0.45922  1.0000
  C   C2        1.0  0.13288  0.05270  0.04078  1.0000
  C   C3        1.0  0.13288  0.44730  0.54078  1.0000
  C   C4        1.0  0.86712  0.94730  0.95922  1.0000
  C   C5        1.0  0.91291  0.57076  0.54869  1.0000
  C   C6        1.0  0.08709  0.07076  0.95131  1.0000
  C   C7        1.0  0.08709  0.42924  0.45131  1.0000
  C   C8        1.0  0.91291  0.92924  0.04869  1.0000
  H   H5        1.0  0.95300  0.51990  0.56490  1.0000
  H   H6        1.0  0.04700  0.01990  0.93510  1.0000
  H   H7        1.0  0.04700  0.48010  0.43510  1.0000
  H   H8        1.0  0.95300  0.98010  0.06490  1.0000
  H   H9        1.0  0.86280  0.57590  0.59450  1.0000
  H   H10       1.0  0.13720  0.07590  0.90550  1.0000
  H   H11       1.0  0.13720  0.42410  0.40550  1.0000
  H   H12       1.0  0.86280  0.92410  0.09450  1.0000
  C   C9        1.0  0.97335  0.65375  0.55114  1.0000
  C   C10       1.0  0.02665  0.15375  0.94886  1.0000
  C   C11       1.0  0.02665  0.34625  0.44886  1.0000
  C   C12       1.0  0.97335  0.84625  0.05114  1.0000
  H   H13       1.0  0.01190  0.65400  0.60630  1.0000
  H   H14       1.0  0.98810  0.15400  0.89370  1.0000
  H   H15       1.0  0.98810  0.34600  0.39370  1.0000
  H   H16       1.0  0.01190  0.84600  0.10630  1.0000
  H   H17       1.0  0.01690  0.65390  0.49940  1.0000
  H   H18       1.0  0.98310  0.15390  0.00060  1.0000
  H   H19       1.0  0.98310  0.34610  0.50060  1.0000
  H   H20       1.0  0.01690  0.84610  0.99940  1.0000
  C   C13       1.0  0.91204  0.73575  0.54848  1.0000
  C   C14       1.0  0.08796  0.23575  0.95152  1.0000
  C   C15       1.0  0.08796  0.26425  0.45152  1.0000
  C   C16       1.0  0.91204  0.76425  0.04848  1.0000
  H   H21       1.0  0.87130  0.73650  0.60220  1.0000
  H   H22       1.0  0.12870  0.23650  0.89780  1.0000
  H   H23       1.0  0.12870  0.26350  0.39780  1.0000
  H   H24       1.0  0.87130  0.76350  0.10220  1.0000
  H   H25       1.0  0.87030  0.73250  0.49550  1.0000
  H   H26       1.0  0.12970  0.23250  0.00450  1.0000
  H   H27       1.0  0.12970  0.26750  0.50450  1.0000
  H   H28       1.0  0.87030  0.76750  0.99550  1.0000
  C   C17       1.0  0.96759  0.82127  0.54476  1.0000
  C   C18       1.0  0.03241  0.32127  0.95524  1.0000
  C   C19       1.0  0.03241  0.17873  0.45524  1.0000
  C   C20       1.0  0.96759  0.67873  0.04476  1.0000
  H   H29       1.0  0.00720  0.82180  0.49030  1.0000
  H   H30       1.0  0.99280  0.32180  0.00970  1.0000
  H   H31       1.0  0.99280  0.17820  0.50970  1.0000
  H   H32       1.0  0.00720  0.67820  0.99030  1.0000
  H   H33       1.0  0.01010  0.82470  0.59720  1.0000
  H   H34       1.0  0.98990  0.32470  0.90280  1.0000
  H   H35       1.0  0.98990  0.17530  0.40280  1.0000
  H   H36       1.0  0.01010  0.67530  0.09720  1.0000
  C   C21       1.0  0.90250  0.90110  0.54404  1.0000
  C   C22       1.0  0.09750  0.40110  0.95596  1.0000
  C   C23       1.0  0.09750  0.09890  0.45596  1.0000
  C   C24       1.0  0.90250  0.59890  0.04404  1.0000
  H   H37       1.0  0.94040  0.95390  0.52980  1.0000
  H   H38       1.0  0.05960  0.45390  0.97020  1.0000
  H   H39       1.0  0.05960  0.04610  0.47020  1.0000
  H   H40       1.0  0.94040  0.54610  0.02980  1.0000
  H   H41       1.0  0.85520  0.89370  0.49590  1.0000
  H   H42       1.0  0.14480  0.39370  0.00410  1.0000
  H   H43       1.0  0.14480  0.10630  0.50410  1.0000
  H   H44       1.0  0.85520  0.60630  0.99590  1.0000
  C   C25       1.0  0.85136  0.91638  0.63104  1.0000
  C   C26       1.0  0.14864  0.41638  0.86896  1.0000
  C   C27       1.0  0.14864  0.08362  0.36896  1.0000
  C   C28       1.0  0.85136  0.58362  0.13104  1.0000
  C   C29       1.0  0.60422  0.41857  0.29289  1.0000
  C   C30       1.0  0.39578  0.91857  0.20711  1.0000
  C   C31       1.0  0.39578  0.58143  0.70711  1.0000
  C   C32       1.0  0.60422  0.08143  0.79289  1.0000
  C   C33       1.0  0.51800  0.36040  0.29446  1.0000
  C   C34       1.0  0.48200  0.86040  0.20554  1.0000
  C   C35       1.0  0.48200  0.63960  0.70554  1.0000
  C   C36       1.0  0.51800  0.13960  0.79446  1.0000
  H   H45       1.0  0.53050  0.30800  0.25710  1.0000
  H   H46       1.0  0.46950  0.80800  0.24290  1.0000
  H   H47       1.0  0.46950  0.69200  0.74290  1.0000
  H   H48       1.0  0.53050  0.19200  0.75710  1.0000
  H   H49       1.0  0.46460  0.39260  0.26700  1.0000
  H   H50       1.0  0.53540  0.89260  0.23300  1.0000
  H   H51       1.0  0.53540  0.60740  0.73300  1.0000
  H   H52       1.0  0.46460  0.10740  0.76700  1.0000
  C   C37       1.0  0.48840  0.32990  0.38757  1.0000
  C   C38       1.0  0.51160  0.82990  0.11243  1.0000
  C   C39       1.0  0.51160  0.67010  0.61243  1.0000
  C   C40       1.0  0.48840  0.17010  0.88757  1.0000
  H   H53       1.0  0.54180  0.29800  0.41530  1.0000
  H   H54       1.0  0.45820  0.79800  0.08470  1.0000
  H   H55       1.0  0.45820  0.70200  0.58470  1.0000
  H   H56       1.0  0.54180  0.20200  0.91530  1.0000
  H   H57       1.0  0.47530  0.38220  0.42480  1.0000
  H   H58       1.0  0.52470  0.88220  0.07520  1.0000
  H   H59       1.0  0.52470  0.61780  0.57520  1.0000
  H   H60       1.0  0.47530  0.11780  0.92480  1.0000
  C   C41       1.0  0.40170  0.27060  0.38820  1.0000
  C   C42       1.0  0.59830  0.77060  0.11180  1.0000
  C   C43       1.0  0.59830  0.72940  0.61180  1.0000
  C   C44       1.0  0.40170  0.22940  0.88820  1.0000
  H   H61       1.0  0.41800  0.21420  0.35910  1.0000
  H   H62       1.0  0.58200  0.71420  0.14090  1.0000
  H   H63       1.0  0.58200  0.78580  0.64090  1.0000
  H   H64       1.0  0.41800  0.28580  0.85910  1.0000
  H   H65       1.0  0.35120  0.29860  0.35240  1.0000
  H   H66       1.0  0.64880  0.79860  0.14760  1.0000
  H   H67       1.0  0.64880  0.70140  0.64760  1.0000
  H   H68       1.0  0.35120  0.20140  0.85240  1.0000
  C   C45       1.0  0.36390  0.25180  0.48260  1.0000
  C   C46       1.0  0.63610  0.75180  0.01740  1.0000
  C   C47       1.0  0.63610  0.74820  0.51740  1.0000
  C   C48       1.0  0.36390  0.24820  0.98260  1.0000
  H   H69       1.0  0.34070  0.30770  0.50840  1.0000
  H   H70       1.0  0.65930  0.80770  0.99160  1.0000
  H   H71       1.0  0.65930  0.69230  0.49160  1.0000
  H   H72       1.0  0.34070  0.19230  0.00840  1.0000
  H   H73       1.0  0.30900  0.21190  0.47720  1.0000
  H   H74       1.0  0.69100  0.71190  0.02280  1.0000
  H   H75       1.0  0.69100  0.78810  0.52280  1.0000
  H   H76       1.0  0.30900  0.28810  0.97720  1.0000
  C   C49       1.0  0.43480  0.21100  0.54830  1.0000
  C   C50       1.0  0.56520  0.71100  0.95170  1.0000
  C   C51       1.0  0.56520  0.78900  0.45170  1.0000
  C   C52       1.0  0.43480  0.28900  0.04830  1.0000
  H   H77       1.0  0.49250  0.24760  0.54940  1.0000
  H   H78       1.0  0.50750  0.74760  0.95060  1.0000
  H   H79       1.0  0.50750  0.75240  0.45060  1.0000
  H   H80       1.0  0.49250  0.25240  0.04940  1.0000
  H   H81       1.0  0.40710  0.21200  0.60900  1.0000
  H   H82       1.0  0.59290  0.71200  0.89100  1.0000
  H   H83       1.0  0.59290  0.78800  0.39100  1.0000
  H   H84       1.0  0.40710  0.28800  0.10900  1.0000
  C   C53       1.0  0.46180  0.11830  0.52560  1.0000
  C   C54       1.0  0.53820  0.61830  0.97440  1.0000
  C   C55       1.0  0.53820  0.88170  0.47440  1.0000
  C   C56       1.0  0.46180  0.38170  0.02560  1.0000
