data_image0
_chemical_formula_structural       Cu12O18H6N24C6O12C12H6C6H6C6H6C6H6C12
_chemical_formula_sum              "Cu12 O30 H30 N24 C48"
_cell_length_a       13.831
_cell_length_b       13.831
_cell_length_c       11.996
_cell_angle_alpha    90
_cell_angle_beta     90
_cell_angle_gamma    120

_space_group_name_H-M_alt    "P 1"
_space_group_IT_number       1

loop_
  _space_group_symop_operation_xyz
  'x, y, z'

loop_
  _atom_site_type_symbol
  _atom_site_label
  _atom_site_symmetry_multiplicity
  _atom_site_fract_x
  _atom_site_fract_y
  _atom_site_fract_z
  _atom_site_occupancy
  Cu  Cu1       1.0  0.29974  0.80644  0.06386  1.0000
  Cu  Cu2       1.0  0.19356  0.49330  0.06386  1.0000
  Cu  Cu3       1.0  0.50670  0.70026  0.06386  1.0000
  Cu  Cu4       1.0  0.70026  0.19356  0.93614  1.0000
  Cu  Cu5       1.0  0.80644  0.50670  0.93614  1.0000
  Cu  Cu6       1.0  0.49330  0.29974  0.93614  1.0000
  Cu  Cu7       1.0  0.42321  0.01566  0.92206  1.0000
  Cu  Cu8       1.0  0.98434  0.40755  0.92206  1.0000
  Cu  Cu9       1.0  0.59245  0.57679  0.92206  1.0000
  Cu  Cu10      1.0  0.57679  0.98434  0.07794  1.0000
  Cu  Cu11      1.0  0.01566  0.59245  0.07794  1.0000
  Cu  Cu12      1.0  0.40755  0.42321  0.07794  1.0000
  O   O1        1.0  0.30460  0.91440  0.82400  1.0000
  O   O2        1.0  0.08560  0.39020  0.82400  1.0000
  O   O3        1.0  0.60980  0.69540  0.82400  1.0000
  O   O4        1.0  0.69540  0.08560  0.17600  1.0000
  O   O5        1.0  0.91440  0.60980  0.17600  1.0000
  O   O6        1.0  0.39020  0.30460  0.17600  1.0000
  O   O7        1.0  0.23940  0.74900  0.90990  1.0000
  O   O8        1.0  0.25100  0.49040  0.90990  1.0000
  O   O9        1.0  0.50960  0.76060  0.90990  1.0000
  O   O10       1.0  0.76060  0.25100  0.09010  1.0000
  O   O11       1.0  0.74900  0.50960  0.09010  1.0000
  O   O12       1.0  0.49040  0.23940  0.09010  1.0000
  O   O13       1.0  0.44370  0.89570  0.98720  1.0000
  O   O14       1.0  0.10430  0.54800  0.98720  1.0000
  O   O15       1.0  0.45200  0.55630  0.98720  1.0000
  O   O16       1.0  0.55630  0.10430  0.01280  1.0000
  O   O17       1.0  0.89570  0.45200  0.01280  1.0000
  O   O18       1.0  0.54800  0.44370  0.01280  1.0000
  H   H1        1.0  0.45610  0.85250  0.92990  1.0000
  H   H2        1.0  0.14750  0.60360  0.92990  1.0000
  H   H3        1.0  0.39640  0.54390  0.92990  1.0000
  H   H4        1.0  0.54390  0.14750  0.07010  1.0000
  H   H5        1.0  0.85250  0.39640  0.07010  1.0000
  H   H6        1.0  0.60360  0.45610  0.07010  1.0000
  N   N1        1.0  0.14640  0.73190  0.12980  1.0000
  N   N2        1.0  0.26810  0.41450  0.12980  1.0000
  N   N3        1.0  0.58550  0.85360  0.12980  1.0000
  N   N4        1.0  0.85360  0.26810  0.87020  1.0000
  N   N5        1.0  0.73190  0.58550  0.87020  1.0000
  N   N6        1.0  0.41450  0.14640  0.87020  1.0000
  N   N7        1.0  0.13100  0.77830  0.20900  1.0000
  N   N8        1.0  0.22170  0.35270  0.20900  1.0000
  N   N9        1.0  0.64730  0.86900  0.20900  1.0000
  N   N10       1.0  0.86900  0.22170  0.79100  1.0000
  N   N11       1.0  0.77830  0.64730  0.79100  1.0000
  N   N12       1.0  0.35270  0.13100  0.79100  1.0000
  N   N13       1.0  0.11790  0.82200  0.28270  1.0000
  N   N14       1.0  0.17800  0.29590  0.28270  1.0000
  N   N15       1.0  0.70410  0.88210  0.28270  1.0000
  N   N16       1.0  0.88210  0.17800  0.71730  1.0000
  N   N17       1.0  0.82200  0.70410  0.71730  1.0000
  N   N18       1.0  0.29590  0.11790  0.71730  1.0000
  N   N19       1.0  0.33330  0.66670  0.11520  1.0000
  N   N20       1.0  0.66670  0.33330  0.88480  1.0000
  N   N21       1.0  0.33330  0.66670  0.21730  1.0000
  N   N22       1.0  0.66670  0.33330  0.78270  1.0000
  N   N23       1.0  0.33330  0.66670  0.31130  1.0000
  N   N24       1.0  0.66670  0.33330  0.68870  1.0000
  C   C1        1.0  0.24600  0.80940  0.82710  1.0000
  C   C2        1.0  0.19060  0.43660  0.82710  1.0000
  C   C3        1.0  0.56340  0.75400  0.82710  1.0000
  C   C4        1.0  0.75400  0.19060  0.17290  1.0000
  C   C5        1.0  0.80940  0.56340  0.17290  1.0000
  C   C6        1.0  0.43660  0.24600  0.17290  1.0000
  O   O19       1.0  0.90860  0.53910  0.80780  1.0000
  O   O20       1.0  0.46090  0.36950  0.80780  1.0000
  O   O21       1.0  0.63050  0.09140  0.80780  1.0000
  O   O22       1.0  0.09140  0.46090  0.19220  1.0000
  O   O23       1.0  0.53910  0.63050  0.19220  1.0000
  O   O24       1.0  0.36950  0.90860  0.19220  1.0000
  O   O25       1.0  0.01270  0.69940  0.89620  1.0000
  O   O26       1.0  0.30060  0.31330  0.89620  1.0000
  O   O27       1.0  0.68670  0.98730  0.89620  1.0000
  O   O28       1.0  0.98730  0.30060  0.10380  1.0000
  O   O29       1.0  0.69940  0.68670  0.10380  1.0000
  O   O30       1.0  0.31330  0.01270  0.10380  1.0000
  C   C7        1.0  0.07220  0.67140  0.71500  1.0000
  C   C8        1.0  0.32860  0.40080  0.71500  1.0000
  C   C9        1.0  0.59920  0.92780  0.71500  1.0000
  C   C10       1.0  0.92780  0.32860  0.28500  1.0000
  C   C11       1.0  0.67140  0.59920  0.28500  1.0000
  C   C12       1.0  0.40080  0.07220  0.28500  1.0000
  C   C13       1.0  0.02730  0.62390  0.61200  1.0000
  C   C14       1.0  0.37610  0.40340  0.61200  1.0000
  C   C15       1.0  0.59660  0.97270  0.61200  1.0000
  C   C16       1.0  0.97270  0.37610  0.38800  1.0000
  C   C17       1.0  0.62390  0.59660  0.38800  1.0000
  C   C18       1.0  0.40340  0.02730  0.38800  1.0000
  H   H7        1.0  0.95170  0.57130  0.60620  1.0000
  H   H8        1.0  0.42870  0.38040  0.60620  1.0000
  H   H9        1.0  0.61960  0.04830  0.60620  1.0000
  H   H10       1.0  0.04830  0.42870  0.39380  1.0000
  H   H11       1.0  0.57130  0.61960  0.39380  1.0000
  H   H12       1.0  0.38040  0.95170  0.39380  1.0000
  C   C19       1.0  0.09420  0.65430  0.51840  1.0000
  C   C20       1.0  0.34570  0.43990  0.51840  1.0000
  C   C21       1.0  0.56010  0.90580  0.51840  1.0000
  C   C22       1.0  0.90580  0.34570  0.48160  1.0000
  C   C23       1.0  0.65430  0.56010  0.48160  1.0000
  C   C24       1.0  0.43990  0.09420  0.48160  1.0000
  H   H13       1.0  0.06310  0.62070  0.45050  1.0000
  H   H14       1.0  0.37930  0.44240  0.45050  1.0000
  H   H15       1.0  0.55760  0.93690  0.45050  1.0000
  H   H16       1.0  0.93690  0.37930  0.54950  1.0000
  H   H17       1.0  0.62070  0.55760  0.54950  1.0000
  H   H18       1.0  0.44240  0.06310  0.54950  1.0000
  C   C25       1.0  0.20550  0.73270  0.52310  1.0000
  C   C26       1.0  0.26730  0.47280  0.52310  1.0000
  C   C27       1.0  0.52720  0.79450  0.52310  1.0000
  C   C28       1.0  0.79450  0.26730  0.47690  1.0000
  C   C29       1.0  0.73270  0.52720  0.47690  1.0000
  C   C30       1.0  0.47280  0.20550  0.47690  1.0000
  H   H19       1.0  0.24950  0.75290  0.45920  1.0000
  H   H20       1.0  0.24710  0.49660  0.45920  1.0000
  H   H21       1.0  0.50340  0.75050  0.45920  1.0000
  H   H22       1.0  0.75050  0.24710  0.54080  1.0000
  H   H23       1.0  0.75290  0.50340  0.54080  1.0000
  H   H24       1.0  0.49660  0.24950  0.54080  1.0000
  C   C31       1.0  0.25120  0.78150  0.62550  1.0000
  C   C32       1.0  0.21850  0.46970  0.62550  1.0000
  C   C33       1.0  0.53030  0.74880  0.62550  1.0000
  C   C34       1.0  0.74880  0.21850  0.37450  1.0000
  C   C35       1.0  0.78150  0.53030  0.37450  1.0000
  C   C36       1.0  0.46970  0.25120  0.37450  1.0000
  H   H25       1.0  0.32670  0.83460  0.62990  1.0000
  H   H26       1.0  0.16540  0.49210  0.62990  1.0000
  H   H27       1.0  0.50790  0.67330  0.62990  1.0000
  H   H28       1.0  0.67330  0.16540  0.37010  1.0000
  H   H29       1.0  0.83460  0.50790  0.37010  1.0000
  H   H30       1.0  0.49210  0.32670  0.37010  1.0000
  C   C37       1.0  0.18610  0.75230  0.72120  1.0000
  C   C38       1.0  0.24770  0.43380  0.72120  1.0000
  C   C39       1.0  0.56620  0.81390  0.72120  1.0000
  C   C40       1.0  0.81390  0.24770  0.27880  1.0000
  C   C41       1.0  0.75230  0.56620  0.27880  1.0000
  C   C42       1.0  0.43380  0.18610  0.27880  1.0000
  C   C43       1.0  0.99380  0.63700  0.81390  1.0000
  C   C44       1.0  0.36300  0.35680  0.81390  1.0000
  C   C45       1.0  0.64320  0.00620  0.81390  1.0000
  C   C46       1.0  0.00620  0.36300  0.18610  1.0000
  C   C47       1.0  0.63700  0.64320  0.18610  1.0000
  C   C48       1.0  0.35680  0.99380  0.18610  1.0000
