data_image0
_chemical_formula_structural       Mn2Cr2Mn2Cr2O4C4O8C4O8C4O8C4O8C4O8C4O4
_chemical_formula_sum              "Mn4 Cr4 O48 C24"
_cell_length_a       9.3876
_cell_length_b       17.8144
_cell_length_c       16.2318
_cell_angle_alpha    90
_cell_angle_beta     90.623
_cell_angle_gamma    90

_space_group_name_H-M_alt    "P 1"
_space_group_IT_number       1

loop_
  _space_group_symop_operation_xyz
  'x, y, z'

loop_
  _atom_site_type_symbol
  _atom_site_label
  _atom_site_symmetry_multiplicity
  _atom_site_fract_x
  _atom_site_fract_y
  _atom_site_fract_z
  _atom_site_occupancy
  Mn  Mn1       1.0  0.16077  0.80070  0.91991  1.0000
  Mn  Mn2       1.0  0.83923  0.30070  0.08009  1.0000
  Cr  Cr1       1.0  0.66357  0.81625  0.08603  1.0000
  Cr  Cr2       1.0  0.33643  0.31625  0.91397  1.0000
  Mn  Mn3       1.0  0.65391  0.82470  0.41987  1.0000
  Mn  Mn4       1.0  0.34609  0.32470  0.58013  1.0000
  Cr  Cr3       1.0  0.15698  0.81103  0.58681  1.0000
  Cr  Cr4       1.0  0.84302  0.31103  0.41319  1.0000
  O   O1        1.0  0.07400  0.86440  0.82230  1.0000
  O   O2        1.0  0.92600  0.36440  0.17770  1.0000
  O   O3        1.0  0.22970  0.73850  0.81860  1.0000
  O   O4        1.0  0.77030  0.23850  0.18140  1.0000
  C   C1        1.0  0.10860  0.84140  0.75330  1.0000
  C   C2        1.0  0.89140  0.34140  0.24670  1.0000
  C   C3        1.0  0.19710  0.76720  0.75110  1.0000
  C   C4        1.0  0.80290  0.26720  0.24890  1.0000
  O   O5        1.0  0.07900  0.86930  0.68440  1.0000
  O   O6        1.0  0.92100  0.36930  0.31560  1.0000
  O   O7        1.0  0.22770  0.74330  0.68080  1.0000
  O   O8        1.0  0.77230  0.24330  0.31920  1.0000
  O   O9        1.0  0.28200  0.73930  0.00690  1.0000
  O   O10       1.0  0.71800  0.23930  0.99310  1.0000
  O   O11       1.0  0.34460  0.86630  0.92620  1.0000
  O   O12       1.0  0.65540  0.36630  0.07380  1.0000
  C   C5        1.0  0.39580  0.76850  0.02530  1.0000
  C   C6        1.0  0.60420  0.26850  0.97470  1.0000
  C   C7        1.0  0.43590  0.84190  0.97820  1.0000
  C   C8        1.0  0.56410  0.34190  0.02180  1.0000
  O   O13       1.0  0.48590  0.74780  0.07830  1.0000
  O   O14       1.0  0.51410  0.24780  0.92170  1.0000
  O   O15       1.0  0.55270  0.87170  0.99530  1.0000
  O   O16       1.0  0.44730  0.37170  0.00470  1.0000
  O   O17       1.0  0.05400  0.87060  0.00500  1.0000
  O   O18       1.0  0.94600  0.37060  0.99500  1.0000
  O   O19       1.0  0.97710  0.73690  0.93970  1.0000
  O   O20       1.0  0.02290  0.23690  0.06030  1.0000
  C   C9        1.0  0.93680  0.84580  0.02240  1.0000
  C   C10       1.0  0.06320  0.34580  0.97760  1.0000
  C   C11       1.0  0.89110  0.77040  0.98620  1.0000
  C   C12       1.0  0.10890  0.27040  0.01380  1.0000
  O   O21       1.0  0.84520  0.87780  0.06850  1.0000
  O   O22       1.0  0.15480  0.37780  0.93150  1.0000
  O   O23       1.0  0.76690  0.74690  0.00420  1.0000
  O   O24       1.0  0.23310  0.24690  0.99580  1.0000
  O   O25       1.0  0.33730  0.87410  0.58120  1.0000
  O   O26       1.0  0.66270  0.37410  0.41880  1.0000
  O   O27       1.0  0.26360  0.75270  0.49680  1.0000
  O   O28       1.0  0.73640  0.25270  0.50320  1.0000
  C   C13       1.0  0.42660  0.85200  0.52760  1.0000
  C   C14       1.0  0.57340  0.35200  0.47240  1.0000
  C   C15       1.0  0.38330  0.78120  0.48040  1.0000
  C   C16       1.0  0.61670  0.28120  0.51960  1.0000
  O   O29       1.0  0.53920  0.88420  0.50990  1.0000
  O   O30       1.0  0.46080  0.38420  0.49010  1.0000
  O   O31       1.0  0.46980  0.75660  0.42840  1.0000
  O   O32       1.0  0.53020  0.25660  0.57160  1.0000
  O   O33       1.0  0.05260  0.87880  0.50350  1.0000
  O   O34       1.0  0.94740  0.37880  0.49650  1.0000
  O   O35       1.0  0.97350  0.74960  0.57170  1.0000
  O   O36       1.0  0.02650  0.24960  0.42830  1.0000
  C   C17       1.0  0.88540  0.77990  0.52480  1.0000
  C   C18       1.0  0.11460  0.27990  0.47520  1.0000
  C   C19       1.0  0.92830  0.85510  0.48510  1.0000
  C   C20       1.0  0.07170  0.35510  0.51490  1.0000
  O   O37       1.0  0.76390  0.75570  0.50530  1.0000
  O   O38       1.0  0.23610  0.25570  0.49470  1.0000
  O   O39       1.0  0.83820  0.88650  0.43770  1.0000
  O   O40       1.0  0.16180  0.38650  0.56230  1.0000
  O   O41       1.0  0.74020  0.76140  0.32400  1.0000
  O   O42       1.0  0.25980  0.26140  0.67600  1.0000
  O   O43       1.0  0.58170  0.88800  0.31800  1.0000
  O   O44       1.0  0.41830  0.38800  0.68200  1.0000
  C   C21       1.0  0.70660  0.78840  0.25370  1.0000
  C   C22       1.0  0.29340  0.28840  0.74630  1.0000
  C   C23       1.0  0.61670  0.85970  0.25010  1.0000
  C   C24       1.0  0.38330  0.35970  0.74990  1.0000
  O   O45       1.0  0.74320  0.76060  0.18600  1.0000
  O   O46       1.0  0.25680  0.26060  0.81400  1.0000
  O   O47       1.0  0.58680  0.88420  0.18000  1.0000
  O   O48       1.0  0.41320  0.38420  0.82000  1.0000
