data_image0
_chemical_formula_structural       C24Mn4Cr4O48
_chemical_formula_sum              "C24 Mn4 Cr4 O48"
_cell_length_a       16.033
_cell_length_b       9.4755
_cell_length_c       17.77
_cell_angle_alpha    90
_cell_angle_beta     104.56
_cell_angle_gamma    90

_space_group_name_H-M_alt    "P 1"
_space_group_IT_number       1

loop_
  _space_group_symop_operation_xyz
  'x, y, z'

loop_
  _atom_site_type_symbol
  _atom_site_label
  _atom_site_symmetry_multiplicity
  _atom_site_fract_x
  _atom_site_fract_y
  _atom_site_fract_z
  _atom_site_occupancy
  C   C1        1.0  0.96700  0.02280  0.83660  1.0000
  C   C2        1.0  0.96700  0.97720  0.33660  1.0000
  C   C3        1.0  0.93930  0.11080  0.76170  1.0000
  C   C4        1.0  0.93930  0.88920  0.26170  1.0000
  C   C5        1.0  0.21490  0.31390  0.75670  1.0000
  C   C6        1.0  0.21490  0.68610  0.25670  1.0000
  C   C7        1.0  0.18600  0.35420  0.83140  1.0000
  C   C8        1.0  0.18600  0.64580  0.33140  1.0000
  C   C9        1.0  0.44960  0.62360  0.77620  1.0000
  C   C10       1.0  0.44960  0.37640  0.27620  1.0000
  C   C11       1.0  0.46350  0.53620  0.85180  1.0000
  C   C12       1.0  0.46350  0.46380  0.35180  1.0000
  C   C13       1.0  0.17240  0.80660  0.75360  1.0000
  C   C14       1.0  0.17240  0.19340  0.25360  1.0000
  C   C15       1.0  0.23640  0.85060  0.83190  1.0000
  C   C16       1.0  0.23640  0.14940  0.33190  1.0000
  C   C17       1.0  0.70440  0.84060  0.86120  1.0000
  C   C18       1.0  0.70440  0.15940  0.36120  1.0000
  C   C19       1.0  0.72330  0.79750  0.78320  1.0000
  C   C20       1.0  0.72330  0.20250  0.28320  1.0000
  C   C21       1.0  0.67240  0.29020  0.78460  1.0000
  C   C22       1.0  0.67240  0.70980  0.28460  1.0000
  C   C23       1.0  0.74360  0.33410  0.85820  1.0000
  C   C24       1.0  0.74360  0.66590  0.35820  1.0000
  Mn  Mn1       1.0  0.11964  0.07808  0.78892  1.0000
  Mn  Mn2       1.0  0.11964  0.92192  0.28892  1.0000
  Mn  Mn3       1.0  0.62897  0.56970  0.82487  1.0000
  Mn  Mn4       1.0  0.62897  0.43030  0.32487  1.0000
  Cr  Cr1       1.0  0.28559  0.57886  0.80107  1.0000
  Cr  Cr2       1.0  0.28559  0.42114  0.30107  1.0000
  Cr  Cr3       1.0  0.79001  0.06812  0.81377  1.0000
  Cr  Cr4       1.0  0.79001  0.93188  0.31377  1.0000
  O   O1        1.0  0.90830  0.99410  0.87040  1.0000
  O   O2        1.0  0.90830  0.00590  0.37040  1.0000
  O   O3        1.0  0.85920  0.14550  0.74080  1.0000
  O   O4        1.0  0.85920  0.85450  0.24080  1.0000
  O   O5        1.0  0.99460  0.14480  0.72750  1.0000
  O   O6        1.0  0.99460  0.85520  0.22750  1.0000
  O   O7        1.0  0.04420  0.99040  0.85880  1.0000
  O   O8        1.0  0.04420  0.00960  0.35880  1.0000
  O   O9        1.0  0.22820  0.97070  0.85630  1.0000
  O   O10       1.0  0.22820  0.02930  0.35630  1.0000
  O   O11       1.0  0.11700  0.89100  0.72320  1.0000
  O   O12       1.0  0.11700  0.10900  0.22320  1.0000
  O   O13       1.0  0.18500  0.68490  0.72980  1.0000
  O   O14       1.0  0.18500  0.31510  0.22980  1.0000
  O   O15       1.0  0.29160  0.76000  0.86390  1.0000
  O   O16       1.0  0.29160  0.24000  0.36390  1.0000
  O   O17       1.0  0.39660  0.50360  0.87370  1.0000
  O   O18       1.0  0.39660  0.49640  0.37370  1.0000
  O   O19       1.0  0.37040  0.65480  0.74310  1.0000
  O   O20       1.0  0.37040  0.34520  0.24310  1.0000
  O   O21       1.0  0.51470  0.65570  0.75450  1.0000
  O   O22       1.0  0.51470  0.34430  0.25450  1.0000
  O   O23       1.0  0.53970  0.50600  0.88670  1.0000
  O   O24       1.0  0.53970  0.49400  0.38670  1.0000
  O   O25       1.0  0.80390  0.24620  0.88150  1.0000
  O   O26       1.0  0.80390  0.75380  0.38150  1.0000
  O   O27       1.0  0.68140  0.17240  0.75660  1.0000
  O   O28       1.0  0.68140  0.82760  0.25660  1.0000
  O   O29       1.0  0.61410  0.37800  0.75880  1.0000
  O   O30       1.0  0.61410  0.62200  0.25880  1.0000
  O   O31       1.0  0.73550  0.45150  0.88830  1.0000
  O   O32       1.0  0.73550  0.54850  0.38830  1.0000
  O   O33       1.0  0.76160  0.88520  0.75100  1.0000
  O   O34       1.0  0.76160  0.11480  0.25100  1.0000
  O   O35       1.0  0.73120  0.96190  0.88590  1.0000
  O   O36       1.0  0.73120  0.03810  0.38590  1.0000
  O   O37       1.0  0.69970  0.67620  0.75730  1.0000
  O   O38       1.0  0.69970  0.32380  0.25730  1.0000
  O   O39       1.0  0.66490  0.75320  0.89100  1.0000
  O   O40       1.0  0.66490  0.24680  0.39100  1.0000
  O   O41       1.0  0.14170  0.26560  0.85620  1.0000
  O   O42       1.0  0.14170  0.73440  0.35620  1.0000
  O   O43       1.0  0.19220  0.19530  0.72710  1.0000
  O   O44       1.0  0.19220  0.80470  0.22710  1.0000
  O   O45       1.0  0.21070  0.47310  0.85920  1.0000
  O   O46       1.0  0.21070  0.52690  0.35920  1.0000
  O   O47       1.0  0.26160  0.40000  0.73210  1.0000
  O   O48       1.0  0.26160  0.60000  0.23210  1.0000
