data_image0
_chemical_formula_structural       C8O16C8O16C8O16Cu8H4C8O16
_chemical_formula_sum              "C32 O64 Cu8 H4"
_cell_length_a       9.3783
_cell_length_b       21.8365
_cell_length_c       21.6778
_cell_angle_alpha    90
_cell_angle_beta     91.696
_cell_angle_gamma    90

_space_group_name_H-M_alt    "P 1"
_space_group_IT_number       1

loop_
  _space_group_symop_operation_xyz
  'x, y, z'

loop_
  _atom_site_type_symbol
  _atom_site_label
  _atom_site_symmetry_multiplicity
  _atom_site_fract_x
  _atom_site_fract_y
  _atom_site_fract_z
  _atom_site_occupancy
  C   C1        1.0  0.34350  0.82929  0.20831  1.0000
  C   C2        1.0  0.15650  0.32929  0.29169  1.0000
  C   C3        1.0  0.65650  0.17071  0.79169  1.0000
  C   C4        1.0  0.84350  0.67071  0.70831  1.0000
  C   C5        1.0  0.21690  0.83873  0.16150  1.0000
  C   C6        1.0  0.28310  0.33873  0.33850  1.0000
  C   C7        1.0  0.78310  0.16127  0.83850  1.0000
  C   C8        1.0  0.71690  0.66127  0.66150  1.0000
  O   O1        1.0  0.37690  0.86996  0.24464  1.0000
  O   O2        1.0  0.12310  0.36996  0.25536  1.0000
  O   O3        1.0  0.62310  0.13004  0.75536  1.0000
  O   O4        1.0  0.87690  0.63004  0.74464  1.0000
  O   O5        1.0  0.18702  0.89379  0.14848  1.0000
  O   O6        1.0  0.31298  0.39379  0.35152  1.0000
  O   O7        1.0  0.81298  0.10621  0.85152  1.0000
  O   O8        1.0  0.68702  0.60621  0.64848  1.0000
  O   O9        1.0  0.40430  0.77659  0.20320  1.0000
  O   O10       1.0  0.09570  0.27659  0.29680  1.0000
  O   O11       1.0  0.59570  0.22341  0.79680  1.0000
  O   O12       1.0  0.90430  0.72341  0.70320  1.0000
  O   O13       1.0  0.15670  0.79276  0.13946  1.0000
  O   O14       1.0  0.34330  0.29276  0.36054  1.0000
  O   O15       1.0  0.84330  0.20724  0.86054  1.0000
  O   O16       1.0  0.65670  0.70724  0.63946  1.0000
  C   C9        1.0  0.01880  0.00764  0.22863  1.0000
  C   C10       1.0  0.48120  0.50764  0.27137  1.0000
  C   C11       1.0  0.98120  0.99236  0.77137  1.0000
  C   C12       1.0  0.51880  0.49236  0.72863  1.0000
  C   C13       1.0  0.04620  0.04437  0.16887  1.0000
  C   C14       1.0  0.45380  0.54437  0.33113  1.0000
  C   C15       1.0  0.95380  0.95563  0.83113  1.0000
  C   C16       1.0  0.54620  0.45563  0.66887  1.0000
  O   O17       1.0  0.90288  0.01762  0.25493  1.0000
  O   O18       1.0  0.59712  0.51762  0.24507  1.0000
  O   O19       1.0  0.09712  0.98238  0.74507  1.0000
  O   O20       1.0  0.40288  0.48238  0.75493  1.0000
  O   O21       1.0  0.94633  0.08154  0.15303  1.0000
  O   O22       1.0  0.55367  0.58154  0.34697  1.0000
  O   O23       1.0  0.05367  0.91846  0.84697  1.0000
  O   O24       1.0  0.44633  0.41846  0.65303  1.0000
  O   O25       1.0  0.11217  0.97070  0.24787  1.0000
  O   O26       1.0  0.38783  0.47070  0.25213  1.0000
  O   O27       1.0  0.88783  0.02930  0.75213  1.0000
  O   O28       1.0  0.61217  0.52930  0.74787  1.0000
  O   O29       1.0  0.15903  0.03603  0.14267  1.0000
  O   O30       1.0  0.34097  0.53603  0.35733  1.0000
  O   O31       1.0  0.84097  0.96397  0.85733  1.0000
  O   O32       1.0  0.65903  0.46397  0.64267  1.0000
  C   C17       1.0  0.51650  0.02642  0.22991  1.0000
  C   C18       1.0  0.98350  0.52642  0.27009  1.0000
  C   C19       1.0  0.48350  0.97358  0.77009  1.0000
  C   C20       1.0  0.01650  0.47358  0.72991  1.0000
  C   C21       1.0  0.54660  0.99823  0.16561  1.0000
  C   C22       1.0  0.95340  0.49823  0.33439  1.0000
  C   C23       1.0  0.45340  0.00177  0.83439  1.0000
  C   C24       1.0  0.04660  0.50177  0.66561  1.0000
  O   O33       1.0  0.61184  0.05791  0.25657  1.0000
  O   O34       1.0  0.88816  0.55791  0.24343  1.0000
  O   O35       1.0  0.38816  0.94209  0.74343  1.0000
  O   O36       1.0  0.11184  0.44209  0.75657  1.0000
  O   O37       1.0  0.66054  0.01108  0.14161  1.0000
  O   O38       1.0  0.83946  0.51108  0.35839  1.0000
  O   O39       1.0  0.33946  0.98892  0.85839  1.0000
  O   O40       1.0  0.16054  0.48892  0.64161  1.0000
  O   O41       1.0  0.39618  0.01545  0.25128  1.0000
  O   O42       1.0  0.10382  0.51545  0.24872  1.0000
  O   O43       1.0  0.60382  0.98455  0.74872  1.0000
  O   O44       1.0  0.89618  0.48455  0.75128  1.0000
  O   O45       1.0  0.44951  0.96293  0.14414  1.0000
  O   O46       1.0  0.05049  0.46293  0.35586  1.0000
  O   O47       1.0  0.55049  0.03707  0.85586  1.0000
  O   O48       1.0  0.94951  0.53707  0.64414  1.0000
  Cu  Cu1       1.0  0.28151  0.96035  0.19619  1.0000
  Cu  Cu2       1.0  0.21849  0.46035  0.30381  1.0000
  Cu  Cu3       1.0  0.71849  0.03965  0.80381  1.0000
  Cu  Cu4       1.0  0.78151  0.53965  0.69619  1.0000
  Cu  Cu5       1.0  0.78375  0.07675  0.20860  1.0000
  Cu  Cu6       1.0  0.71625  0.57675  0.29140  1.0000
  Cu  Cu7       1.0  0.21625  0.92325  0.79140  1.0000
  Cu  Cu8       1.0  0.28375  0.42325  0.70860  1.0000
  H   H1        1.0  0.49800  0.77000  0.23800  1.0000
  H   H2        1.0  0.00200  0.27000  0.26200  1.0000
  H   H3        1.0  0.50200  0.23000  0.76200  1.0000
  H   H4        1.0  0.99800  0.73000  0.73800  1.0000
  C   C25       1.0  0.83690  0.20704  0.22618  1.0000
  C   C26       1.0  0.66310  0.70704  0.27382  1.0000
  C   C27       1.0  0.16310  0.79296  0.77382  1.0000
  C   C28       1.0  0.33690  0.29296  0.72618  1.0000
  C   C29       1.0  0.71400  0.19803  0.17753  1.0000
  C   C30       1.0  0.78600  0.69803  0.32247  1.0000
  C   C31       1.0  0.28600  0.80197  0.82247  1.0000
  C   C32       1.0  0.21400  0.30197  0.67753  1.0000
  O   O49       1.0  0.86980  0.16444  0.26106  1.0000
  O   O50       1.0  0.63020  0.66444  0.23894  1.0000
  O   O51       1.0  0.13020  0.83556  0.73894  1.0000
  O   O52       1.0  0.36980  0.33556  0.76106  1.0000
  O   O53       1.0  0.68200  0.14306  0.16412  1.0000
  O   O54       1.0  0.81800  0.64306  0.33588  1.0000
  O   O55       1.0  0.31800  0.85694  0.83588  1.0000
  O   O56       1.0  0.18200  0.35694  0.66412  1.0000
  O   O57       1.0  0.89530  0.25994  0.22400  1.0000
  O   O58       1.0  0.60470  0.75994  0.27600  1.0000
  O   O59       1.0  0.10470  0.74006  0.77600  1.0000
  O   O60       1.0  0.39530  0.24006  0.72400  1.0000
  O   O61       1.0  0.65480  0.24354  0.15477  1.0000
  O   O62       1.0  0.84520  0.74354  0.34523  1.0000
  O   O63       1.0  0.34520  0.75646  0.84523  1.0000
  O   O64       1.0  0.15480  0.25646  0.65477  1.0000
