data_image0
_chemical_formula_structural       U4P16O16H8O32H8O8C20H8C8H8C16H8C8H8C16H8C8H8C16H8C8H8
_chemical_formula_sum              "U4 P16 O56 H80 C100"
_cell_length_a       15.9527
_cell_length_b       16.42
_cell_length_c       18.108
_cell_angle_alpha    90
_cell_angle_beta     106.085
_cell_angle_gamma    90

_space_group_name_H-M_alt    "P 1"
_space_group_IT_number       1

loop_
  _space_group_symop_operation_xyz
  'x, y, z'

loop_
  _atom_site_type_symbol
  _atom_site_label
  _atom_site_symmetry_multiplicity
  _atom_site_fract_x
  _atom_site_fract_y
  _atom_site_fract_z
  _atom_site_occupancy
  U   U1        1.0  0.75000  0.75000  0.75000  1.0000
  U   U2        1.0  0.75000  0.75000  0.25000  1.0000
  U   U3        1.0  0.25000  0.25000  0.25000  1.0000
  U   U4        1.0  0.25000  0.25000  0.75000  1.0000
  P   P1        1.0  0.67862  0.96027  0.75874  1.0000
  P   P2        1.0  0.82138  0.96027  0.24126  1.0000
  P   P3        1.0  0.17862  0.46027  0.25874  1.0000
  P   P4        1.0  0.32138  0.46027  0.74126  1.0000
  P   P5        1.0  0.32138  0.03973  0.24126  1.0000
  P   P6        1.0  0.17862  0.03973  0.75874  1.0000
  P   P7        1.0  0.82138  0.53973  0.74126  1.0000
  P   P8        1.0  0.67862  0.53973  0.25874  1.0000
  P   P9        1.0  0.44495  0.36815  0.29707  1.0000
  P   P10       1.0  0.05505  0.36815  0.70293  1.0000
  P   P11       1.0  0.94495  0.86815  0.79707  1.0000
  P   P12       1.0  0.55505  0.86815  0.20293  1.0000
  P   P13       1.0  0.55505  0.63185  0.70293  1.0000
  P   P14       1.0  0.94495  0.63185  0.29707  1.0000
  P   P15       1.0  0.05505  0.13185  0.20293  1.0000
  P   P16       1.0  0.44495  0.13185  0.79707  1.0000
  O   O1        1.0  0.68620  0.87350  0.73440  1.0000
  O   O2        1.0  0.81380  0.87350  0.26560  1.0000
  O   O3        1.0  0.18620  0.37350  0.23440  1.0000
  O   O4        1.0  0.31380  0.37350  0.76560  1.0000
  O   O5        1.0  0.31380  0.12650  0.26560  1.0000
  O   O6        1.0  0.18620  0.12650  0.73440  1.0000
  O   O7        1.0  0.81380  0.62650  0.76560  1.0000
  O   O8        1.0  0.68620  0.62650  0.23440  1.0000
  O   O9        1.0  0.75490  0.98000  0.83170  1.0000
  O   O10       1.0  0.74510  0.98000  0.16830  1.0000
  O   O11       1.0  0.25490  0.48000  0.33170  1.0000
  O   O12       1.0  0.24510  0.48000  0.66830  1.0000
  O   O13       1.0  0.24510  0.02000  0.16830  1.0000
  O   O14       1.0  0.25490  0.02000  0.83170  1.0000
  O   O15       1.0  0.74510  0.52000  0.66830  1.0000
  O   O16       1.0  0.75490  0.52000  0.33170  1.0000
  H   H1        1.0  0.80130  0.96550  0.82470  1.0000
  H   H2        1.0  0.69870  0.96550  0.17530  1.0000
  H   H3        1.0  0.30130  0.46550  0.32470  1.0000
  H   H4        1.0  0.19870  0.46550  0.67530  1.0000
  H   H5        1.0  0.19870  0.03450  0.17530  1.0000
  H   H6        1.0  0.30130  0.03450  0.82470  1.0000
  H   H7        1.0  0.69870  0.53450  0.67530  1.0000
  H   H8        1.0  0.80130  0.53450  0.32470  1.0000
  O   O17       1.0  0.59560  0.98070  0.77530  1.0000
  O   O18       1.0  0.90440  0.98070  0.22470  1.0000
  O   O19       1.0  0.09560  0.48070  0.27530  1.0000
  O   O20       1.0  0.40440  0.48070  0.72470  1.0000
  O   O21       1.0  0.40440  0.01930  0.22470  1.0000
  O   O22       1.0  0.09560  0.01930  0.77530  1.0000
  O   O23       1.0  0.90440  0.51930  0.72470  1.0000
  O   O24       1.0  0.59560  0.51930  0.27530  1.0000
  O   O25       1.0  0.40970  0.42330  0.34640  1.0000
  O   O26       1.0  0.09030  0.42330  0.65360  1.0000
  O   O27       1.0  0.90970  0.92330  0.84640  1.0000
  O   O28       1.0  0.59030  0.92330  0.15360  1.0000
  O   O29       1.0  0.59030  0.57670  0.65360  1.0000
  O   O30       1.0  0.90970  0.57670  0.34640  1.0000
  O   O31       1.0  0.09030  0.07670  0.15360  1.0000
  O   O32       1.0  0.40970  0.07670  0.84640  1.0000
  O   O33       1.0  0.37950  0.30810  0.25000  1.0000
  O   O34       1.0  0.12050  0.30810  0.75000  1.0000
  O   O35       1.0  0.87950  0.80810  0.75000  1.0000
  O   O36       1.0  0.62050  0.80810  0.25000  1.0000
  O   O37       1.0  0.62050  0.69190  0.75000  1.0000
  O   O38       1.0  0.87950  0.69190  0.25000  1.0000
  O   O39       1.0  0.12050  0.19190  0.25000  1.0000
  O   O40       1.0  0.37950  0.19190  0.75000  1.0000
  O   O41       1.0  0.48000  0.41340  0.23690  1.0000
  O   O42       1.0  0.02000  0.41340  0.76310  1.0000
  O   O43       1.0  0.98000  0.91340  0.73690  1.0000
  O   O44       1.0  0.52000  0.91340  0.26310  1.0000
  O   O45       1.0  0.52000  0.58660  0.76310  1.0000
  O   O46       1.0  0.98000  0.58660  0.23690  1.0000
  O   O47       1.0  0.02000  0.08660  0.26310  1.0000
  O   O48       1.0  0.48000  0.08660  0.73690  1.0000
  H   H9        1.0  0.51970  0.44390  0.25890  1.0000
  H   H10       1.0  0.98030  0.44390  0.74110  1.0000
  H   H11       1.0  0.01970  0.94390  0.75890  1.0000
  H   H12       1.0  0.48030  0.94390  0.24110  1.0000
  H   H13       1.0  0.48030  0.55610  0.74110  1.0000
  H   H14       1.0  0.01970  0.55610  0.25890  1.0000
  H   H15       1.0  0.98030  0.05610  0.24110  1.0000
  H   H16       1.0  0.51970  0.05610  0.75890  1.0000
  O   O49       1.0  0.72460  0.73940  0.64820  1.0000
  O   O50       1.0  0.77540  0.73940  0.35180  1.0000
  O   O51       1.0  0.22460  0.23940  0.14820  1.0000
  O   O52       1.0  0.27540  0.23940  0.85180  1.0000
  O   O53       1.0  0.27540  0.26060  0.35180  1.0000
  O   O54       1.0  0.22460  0.26060  0.64820  1.0000
  O   O55       1.0  0.77540  0.76060  0.85180  1.0000
  O   O56       1.0  0.72460  0.76060  0.14820  1.0000
  C   C1        1.0  0.75000  0.16920  0.50000  1.0000
  C   C2        1.0  0.25000  0.66920  0.00000  1.0000
  C   C3        1.0  0.25000  0.83080  0.50000  1.0000
  C   C4        1.0  0.75000  0.33080  0.00000  1.0000
  C   C5        1.0  0.72710  0.11610  0.56210  1.0000
  C   C6        1.0  0.77290  0.11610  0.43790  1.0000
  C   C7        1.0  0.22710  0.61610  0.06210  1.0000
  C   C8        1.0  0.27290  0.61610  0.93790  1.0000
  C   C9        1.0  0.27290  0.88390  0.43790  1.0000
  C   C10       1.0  0.22710  0.88390  0.56210  1.0000
  C   C11       1.0  0.77290  0.38390  0.93790  1.0000
  C   C12       1.0  0.72710  0.38390  0.06210  1.0000
  C   C13       1.0  0.66860  0.14110  0.60090  1.0000
  C   C14       1.0  0.83140  0.14110  0.39910  1.0000
  C   C15       1.0  0.16860  0.64110  0.10090  1.0000
  C   C16       1.0  0.33140  0.64110  0.89910  1.0000
  C   C17       1.0  0.33140  0.85890  0.39910  1.0000
  C   C18       1.0  0.16860  0.85890  0.60090  1.0000
  C   C19       1.0  0.83140  0.35890  0.89910  1.0000
  C   C20       1.0  0.66860  0.35890  0.10090  1.0000
  H   H17       1.0  0.63880  0.18990  0.58710  1.0000
  H   H18       1.0  0.86120  0.18990  0.41290  1.0000
  H   H19       1.0  0.13880  0.68990  0.08710  1.0000
  H   H20       1.0  0.36120  0.68990  0.91290  1.0000
  H   H21       1.0  0.36120  0.81010  0.41290  1.0000
  H   H22       1.0  0.13880  0.81010  0.58710  1.0000
  H   H23       1.0  0.86120  0.31010  0.91290  1.0000
  H   H24       1.0  0.63880  0.31010  0.08710  1.0000
  C   C21       1.0  0.65320  0.09500  0.66000  1.0000
  C   C22       1.0  0.84680  0.09500  0.34000  1.0000
  C   C23       1.0  0.15320  0.59500  0.16000  1.0000
  C   C24       1.0  0.34680  0.59500  0.84000  1.0000
  C   C25       1.0  0.34680  0.90500  0.34000  1.0000
  C   C26       1.0  0.15320  0.90500  0.66000  1.0000
  C   C27       1.0  0.84680  0.40500  0.84000  1.0000
  C   C28       1.0  0.65320  0.40500  0.16000  1.0000
  H   H25       1.0  0.61320  0.11350  0.68500  1.0000
  H   H26       1.0  0.88680  0.11350  0.31500  1.0000
  H   H27       1.0  0.11320  0.61350  0.18500  1.0000
  H   H28       1.0  0.38680  0.61350  0.81500  1.0000
  H   H29       1.0  0.38680  0.88650  0.31500  1.0000
  H   H30       1.0  0.11320  0.88650  0.68500  1.0000
  H   H31       1.0  0.88680  0.38650  0.81500  1.0000
  H   H32       1.0  0.61320  0.38650  0.18500  1.0000
  C   C29       1.0  0.69600  0.02240  0.68260  1.0000
  C   C30       1.0  0.80400  0.02240  0.31740  1.0000
  C   C31       1.0  0.19600  0.52240  0.18260  1.0000
  C   C32       1.0  0.30400  0.52240  0.81740  1.0000
  C   C33       1.0  0.30400  0.97760  0.31740  1.0000
  C   C34       1.0  0.19600  0.97760  0.68260  1.0000
  C   C35       1.0  0.80400  0.47760  0.81740  1.0000
  C   C36       1.0  0.69600  0.47760  0.18260  1.0000
  C   C37       1.0  0.75650  0.99820  0.64470  1.0000
  C   C38       1.0  0.74350  0.99820  0.35530  1.0000
  C   C39       1.0  0.25650  0.49820  0.14470  1.0000
  C   C40       1.0  0.24350  0.49820  0.85530  1.0000
  C   C41       1.0  0.24350  0.00180  0.35530  1.0000
  C   C42       1.0  0.25650  0.00180  0.64470  1.0000
  C   C43       1.0  0.74350  0.50180  0.85530  1.0000
  C   C44       1.0  0.75650  0.50180  0.14470  1.0000
  H   H33       1.0  0.78700  0.94980  0.65880  1.0000
  H   H34       1.0  0.71300  0.94980  0.34120  1.0000
  H   H35       1.0  0.28700  0.44980  0.15880  1.0000
  H   H36       1.0  0.21300  0.44980  0.84120  1.0000
  H   H37       1.0  0.21300  0.05020  0.34120  1.0000
  H   H38       1.0  0.28700  0.05020  0.65880  1.0000
  H   H39       1.0  0.71300  0.55020  0.84120  1.0000
  H   H40       1.0  0.78700  0.55020  0.15880  1.0000
  C   C45       1.0  0.77200  0.04460  0.58690  1.0000
  C   C46       1.0  0.72800  0.04460  0.41310  1.0000
  C   C47       1.0  0.27200  0.54460  0.08690  1.0000
  C   C48       1.0  0.22800  0.54460  0.91310  1.0000
  C   C49       1.0  0.22800  0.95540  0.41310  1.0000
  C   C50       1.0  0.27200  0.95540  0.58690  1.0000
  C   C51       1.0  0.72800  0.45540  0.91310  1.0000
  C   C52       1.0  0.77200  0.45540  0.08690  1.0000
  H   H41       1.0  0.81400  0.02730  0.56350  1.0000
  H   H42       1.0  0.68600  0.02730  0.43650  1.0000
  H   H43       1.0  0.31400  0.52730  0.06350  1.0000
  H   H44       1.0  0.18600  0.52730  0.93650  1.0000
  H   H45       1.0  0.18600  0.97270  0.43650  1.0000
  H   H46       1.0  0.31400  0.97270  0.56350  1.0000
  H   H47       1.0  0.68600  0.47270  0.93650  1.0000
  H   H48       1.0  0.81400  0.47270  0.06350  1.0000
  C   C53       1.0  0.67310  0.22120  0.45320  1.0000
  C   C54       1.0  0.82690  0.22120  0.54680  1.0000
  C   C55       1.0  0.17310  0.72120  0.95320  1.0000
  C   C56       1.0  0.32690  0.72120  0.04680  1.0000
  C   C57       1.0  0.32690  0.77880  0.54680  1.0000
  C   C58       1.0  0.17310  0.77880  0.45320  1.0000
  C   C59       1.0  0.82690  0.27880  0.04680  1.0000
  C   C60       1.0  0.67310  0.27880  0.95320  1.0000
  C   C61       1.0  0.68740  0.29420  0.42070  1.0000
  C   C62       1.0  0.81260  0.29420  0.57930  1.0000
  C   C63       1.0  0.18740  0.79420  0.92070  1.0000
  C   C64       1.0  0.31260  0.79420  0.07930  1.0000
  C   C65       1.0  0.31260  0.70580  0.57930  1.0000
  C   C66       1.0  0.18740  0.70580  0.42070  1.0000
  C   C67       1.0  0.81260  0.20580  0.07930  1.0000
  C   C68       1.0  0.68740  0.20580  0.92070  1.0000
  H   H49       1.0  0.74400  0.31440  0.43100  1.0000
  H   H50       1.0  0.75600  0.31440  0.56900  1.0000
  H   H51       1.0  0.24400  0.81440  0.93100  1.0000
  H   H52       1.0  0.25600  0.81440  0.06900  1.0000
  H   H53       1.0  0.25600  0.68560  0.56900  1.0000
  H   H54       1.0  0.24400  0.68560  0.43100  1.0000
  H   H55       1.0  0.75600  0.18560  0.06900  1.0000
  H   H56       1.0  0.74400  0.18560  0.93100  1.0000
  C   C69       1.0  0.61970  0.33790  0.37330  1.0000
  C   C70       1.0  0.88030  0.33790  0.62670  1.0000
  C   C71       1.0  0.11970  0.83790  0.87330  1.0000
  C   C72       1.0  0.38030  0.83790  0.12670  1.0000
  C   C73       1.0  0.38030  0.66210  0.62670  1.0000
  C   C74       1.0  0.11970  0.66210  0.37330  1.0000
  C   C75       1.0  0.88030  0.16210  0.12670  1.0000
  C   C76       1.0  0.61970  0.16210  0.87330  1.0000
  H   H57       1.0  0.63160  0.38710  0.35290  1.0000
  H   H58       1.0  0.86840  0.38710  0.64710  1.0000
  H   H59       1.0  0.13160  0.88710  0.85290  1.0000
  H   H60       1.0  0.36840  0.88710  0.14710  1.0000
  H   H61       1.0  0.36840  0.61290  0.64710  1.0000
  H   H62       1.0  0.13160  0.61290  0.35290  1.0000
  H   H63       1.0  0.86840  0.11290  0.14710  1.0000
  H   H64       1.0  0.63160  0.11290  0.85290  1.0000
  C   C77       1.0  0.53390  0.31000  0.35540  1.0000
  C   C78       1.0  0.96610  0.31000  0.64460  1.0000
  C   C79       1.0  0.03390  0.81000  0.85540  1.0000
  C   C80       1.0  0.46610  0.81000  0.14460  1.0000
  C   C81       1.0  0.46610  0.69000  0.64460  1.0000
  C   C82       1.0  0.03390  0.69000  0.35540  1.0000
  C   C83       1.0  0.96610  0.19000  0.14460  1.0000
  C   C84       1.0  0.53390  0.19000  0.85540  1.0000
  C   C85       1.0  0.52050  0.23540  0.38560  1.0000
  C   C86       1.0  0.97950  0.23540  0.61440  1.0000
  C   C87       1.0  0.02050  0.73540  0.88560  1.0000
  C   C88       1.0  0.47950  0.73540  0.11440  1.0000
  C   C89       1.0  0.47950  0.76460  0.61440  1.0000
  C   C90       1.0  0.02050  0.76460  0.38560  1.0000
  C   C91       1.0  0.97950  0.26460  0.11440  1.0000
  C   C92       1.0  0.52050  0.26460  0.88560  1.0000
  H   H65       1.0  0.46440  0.21380  0.37350  1.0000
  H   H66       1.0  0.03560  0.21380  0.62650  1.0000
  H   H67       1.0  0.96440  0.71380  0.87350  1.0000
  H   H68       1.0  0.53560  0.71380  0.12650  1.0000
  H   H69       1.0  0.53560  0.78620  0.62650  1.0000
  H   H70       1.0  0.96440  0.78620  0.37350  1.0000
  H   H71       1.0  0.03560  0.28620  0.12650  1.0000
  H   H72       1.0  0.46440  0.28620  0.87350  1.0000
  C   C93       1.0  0.58860  0.19190  0.43350  1.0000
  C   C94       1.0  0.91140  0.19190  0.56650  1.0000
  C   C95       1.0  0.08860  0.69190  0.93350  1.0000
  C   C96       1.0  0.41140  0.69190  0.06650  1.0000
  C   C97       1.0  0.41140  0.80810  0.56650  1.0000
  C   C98       1.0  0.08860  0.80810  0.43350  1.0000
  C   C99       1.0  0.91140  0.30810  0.06650  1.0000
  C   C100      1.0  0.58860  0.30810  0.93350  1.0000
  H   H73       1.0  0.57710  0.14190  0.45290  1.0000
  H   H74       1.0  0.92290  0.14190  0.54710  1.0000
  H   H75       1.0  0.07710  0.64190  0.95290  1.0000
  H   H76       1.0  0.42290  0.64190  0.04710  1.0000
  H   H77       1.0  0.42290  0.85810  0.54710  1.0000
  H   H78       1.0  0.07710  0.85810  0.45290  1.0000
  H   H79       1.0  0.92290  0.35810  0.04710  1.0000
  H   H80       1.0  0.57710  0.35810  0.95290  1.0000
