data_image0
_chemical_formula_structural       Sb4Cl24O8C24
_chemical_formula_sum              "Sb4 Cl24 O8 C24"
_cell_length_a       14.051
_cell_length_b       8.494
_cell_length_c       16.508
_cell_angle_alpha    90
_cell_angle_beta     98.21
_cell_angle_gamma    90

_space_group_name_H-M_alt    "P 1"
_space_group_IT_number       1

loop_
  _space_group_symop_operation_xyz
  'x, y, z'

loop_
  _atom_site_type_symbol
  _atom_site_label
  _atom_site_symmetry_multiplicity
  _atom_site_fract_x
  _atom_site_fract_y
  _atom_site_fract_z
  _atom_site_occupancy
  Sb  Sb1       1.0  0.09500  0.07540  0.17010  1.0000
  Sb  Sb2       1.0  0.90500  0.57540  0.32990  1.0000
  Sb  Sb3       1.0  0.90500  0.92460  0.82990  1.0000
  Sb  Sb4       1.0  0.09500  0.42460  0.67010  1.0000
  Cl  Cl1       1.0  0.99290  0.30780  0.26420  1.0000
  Cl  Cl2       1.0  0.00710  0.80780  0.23580  1.0000
  Cl  Cl3       1.0  0.00710  0.69220  0.73580  1.0000
  Cl  Cl4       1.0  0.99290  0.19220  0.76420  1.0000
  Cl  Cl5       1.0  0.19990  0.28170  0.12540  1.0000
  Cl  Cl6       1.0  0.80010  0.78170  0.37460  1.0000
  Cl  Cl7       1.0  0.80010  0.71830  0.87460  1.0000
  Cl  Cl8       1.0  0.19990  0.21830  0.62540  1.0000
  Cl  Cl9       1.0  0.35220  0.69740  0.11080  1.0000
  Cl  Cl10      1.0  0.64780  0.19740  0.38920  1.0000
  Cl  Cl11      1.0  0.64780  0.30260  0.88920  1.0000
  Cl  Cl12      1.0  0.35220  0.80260  0.61080  1.0000
  Cl  Cl13      1.0  0.51430  0.66200  0.26150  1.0000
  Cl  Cl14      1.0  0.48570  0.16200  0.23850  1.0000
  Cl  Cl15      1.0  0.48570  0.33800  0.73850  1.0000
  Cl  Cl16      1.0  0.51430  0.83800  0.76150  1.0000
  Cl  Cl17      1.0  0.49230  0.82980  0.42500  1.0000
  Cl  Cl18      1.0  0.50770  0.32980  0.07500  1.0000
  Cl  Cl19      1.0  0.50770  0.17020  0.57500  1.0000
  Cl  Cl20      1.0  0.49230  0.67020  0.92500  1.0000
  Cl  Cl21      1.0  0.31070  0.03820  0.43690  1.0000
  Cl  Cl22      1.0  0.68930  0.53820  0.06310  1.0000
  Cl  Cl23      1.0  0.68930  0.96180  0.56310  1.0000
  Cl  Cl24      1.0  0.31070  0.46180  0.93690  1.0000
  O   O1        1.0  0.18210  0.06380  0.28080  1.0000
  O   O2        1.0  0.81790  0.56380  0.21920  1.0000
  O   O3        1.0  0.81790  0.93620  0.71920  1.0000
  O   O4        1.0  0.18210  0.43620  0.78080  1.0000
  O   O5        1.0  0.19390  0.91040  0.14360  1.0000
  O   O6        1.0  0.80610  0.41040  0.35640  1.0000
  O   O7        1.0  0.80610  0.08960  0.85640  1.0000
  O   O8        1.0  0.19390  0.58960  0.64360  1.0000
  C   C1        1.0  0.25430  0.97490  0.28000  1.0000
  C   C2        1.0  0.74570  0.47490  0.22000  1.0000
  C   C3        1.0  0.74570  0.02510  0.72000  1.0000
  C   C4        1.0  0.25430  0.52510  0.78000  1.0000
  C   C5        1.0  0.26410  0.88610  0.20620  1.0000
  C   C6        1.0  0.73590  0.38610  0.29380  1.0000
  C   C7        1.0  0.73590  0.11390  0.79380  1.0000
  C   C8        1.0  0.26410  0.61390  0.70620  1.0000
  C   C9        1.0  0.34300  0.78980  0.20030  1.0000
  C   C10       1.0  0.65700  0.28980  0.29970  1.0000
  C   C11       1.0  0.65700  0.21020  0.79970  1.0000
  C   C12       1.0  0.34300  0.71020  0.70030  1.0000
  C   C13       1.0  0.41460  0.77160  0.26980  1.0000
  C   C14       1.0  0.58540  0.27160  0.23020  1.0000
  C   C15       1.0  0.58540  0.22840  0.73020  1.0000
  C   C16       1.0  0.41460  0.72840  0.76980  1.0000
  C   C17       1.0  0.40440  0.85280  0.34250  1.0000
  C   C18       1.0  0.59560  0.35280  0.15750  1.0000
  C   C19       1.0  0.59560  0.14720  0.65750  1.0000
  C   C20       1.0  0.40440  0.64720  0.84250  1.0000
  C   C21       1.0  0.32560  0.94790  0.34570  1.0000
  C   C22       1.0  0.67440  0.44790  0.15430  1.0000
  C   C23       1.0  0.67440  0.05210  0.65430  1.0000
  C   C24       1.0  0.32560  0.55210  0.84570  1.0000
