data_image0
_chemical_formula_structural       Sb4Br24O8C24
_chemical_formula_sum              "Sb4 Br24 O8 C24"
_cell_length_a       14.319
_cell_length_b       8.967
_cell_length_c       17.048
_cell_angle_alpha    90
_cell_angle_beta     97.56
_cell_angle_gamma    90

_space_group_name_H-M_alt    "P 1"
_space_group_IT_number       1

loop_
  _space_group_symop_operation_xyz
  'x, y, z'

loop_
  _atom_site_type_symbol
  _atom_site_label
  _atom_site_symmetry_multiplicity
  _atom_site_fract_x
  _atom_site_fract_y
  _atom_site_fract_z
  _atom_site_occupancy
  Sb  Sb1       1.0  0.09880  0.08140  0.16880  1.0000
  Sb  Sb2       1.0  0.90120  0.58140  0.33120  1.0000
  Sb  Sb3       1.0  0.90120  0.91860  0.83120  1.0000
  Sb  Sb4       1.0  0.09880  0.41860  0.66880  1.0000
  Br  Br1       1.0  0.99660  0.30470  0.26220  1.0000
  Br  Br2       1.0  0.00340  0.80470  0.23780  1.0000
  Br  Br3       1.0  0.00340  0.69530  0.73780  1.0000
  Br  Br4       1.0  0.99660  0.19530  0.76220  1.0000
  Br  Br5       1.0  0.20760  0.28590  0.11910  1.0000
  Br  Br6       1.0  0.79240  0.78590  0.38090  1.0000
  Br  Br7       1.0  0.79240  0.71410  0.88090  1.0000
  Br  Br8       1.0  0.20760  0.21410  0.61910  1.0000
  Br  Br9       1.0  0.34380  0.69650  0.10380  1.0000
  Br  Br10      1.0  0.65620  0.19650  0.39620  1.0000
  Br  Br11      1.0  0.65620  0.30350  0.89620  1.0000
  Br  Br12      1.0  0.34380  0.80350  0.60380  1.0000
  Br  Br13      1.0  0.51700  0.65940  0.25670  1.0000
  Br  Br14      1.0  0.48300  0.15940  0.24330  1.0000
  Br  Br15      1.0  0.48300  0.34060  0.74330  1.0000
  Br  Br16      1.0  0.51700  0.84060  0.75670  1.0000
  Br  Br17      1.0  0.49200  0.83060  0.42780  1.0000
  Br  Br18      1.0  0.50800  0.33060  0.07220  1.0000
  Br  Br19      1.0  0.50800  0.16940  0.57220  1.0000
  Br  Br20      1.0  0.49200  0.66940  0.92780  1.0000
  Br  Br21      1.0  0.30500  0.04740  0.43690  1.0000
  Br  Br22      1.0  0.69500  0.54740  0.06310  1.0000
  Br  Br23      1.0  0.69500  0.95260  0.56310  1.0000
  Br  Br24      1.0  0.30500  0.45260  0.93690  1.0000
  O   O1        1.0  0.18270  0.06600  0.28050  1.0000
  O   O2        1.0  0.81730  0.56600  0.21950  1.0000
  O   O3        1.0  0.81730  0.93400  0.71950  1.0000
  O   O4        1.0  0.18270  0.43400  0.78050  1.0000
  O   O5        1.0  0.19270  0.91520  0.14300  1.0000
  O   O6        1.0  0.80730  0.41520  0.35700  1.0000
  O   O7        1.0  0.80730  0.08480  0.85700  1.0000
  O   O8        1.0  0.19270  0.58480  0.64300  1.0000
  C   C1        1.0  0.25270  0.97390  0.28020  1.0000
  C   C2        1.0  0.74730  0.47390  0.21980  1.0000
  C   C3        1.0  0.74730  0.02610  0.71980  1.0000
  C   C4        1.0  0.25270  0.52610  0.78020  1.0000
  C   C5        1.0  0.26330  0.88660  0.20520  1.0000
  C   C6        1.0  0.73670  0.38660  0.29480  1.0000
  C   C7        1.0  0.73670  0.11340  0.79480  1.0000
  C   C8        1.0  0.26330  0.61340  0.70520  1.0000
  C   C9        1.0  0.34300  0.79390  0.20120  1.0000
  C   C10       1.0  0.65700  0.29390  0.29880  1.0000
  C   C11       1.0  0.65700  0.20610  0.79880  1.0000
  C   C12       1.0  0.34300  0.70610  0.70120  1.0000
  C   C13       1.0  0.41580  0.77230  0.26700  1.0000
  C   C14       1.0  0.58420  0.27230  0.23300  1.0000
  C   C15       1.0  0.58420  0.22770  0.73300  1.0000
  C   C16       1.0  0.41580  0.72770  0.76700  1.0000
  C   C17       1.0  0.40560  0.85020  0.34220  1.0000
  C   C18       1.0  0.59440  0.35020  0.15780  1.0000
  C   C19       1.0  0.59440  0.14980  0.65780  1.0000
  C   C20       1.0  0.40560  0.64980  0.84220  1.0000
  C   C21       1.0  0.32530  0.94810  0.34540  1.0000
  C   C22       1.0  0.67470  0.44810  0.15460  1.0000
  C   C23       1.0  0.67470  0.05190  0.65460  1.0000
  C   C24       1.0  0.32530  0.55190  0.84540  1.0000
