data_image0
_chemical_formula_structural       Cu14C30O12H4O12H4O12H4O2H2O2H2O2H2O2H2O2H2O2H4O12H4O12H4O2H4
_chemical_formula_sum              "Cu14 C30 O74 H38"
_cell_length_a       8.0421
_cell_length_b       16.749
_cell_length_c       17.859
_cell_angle_alpha    63.935
_cell_angle_beta     85.106
_cell_angle_gamma    84.616

_space_group_name_H-M_alt    "P 1"
_space_group_IT_number       1

loop_
  _space_group_symop_operation_xyz
  'x, y, z'

loop_
  _atom_site_type_symbol
  _atom_site_label
  _atom_site_symmetry_multiplicity
  _atom_site_fract_x
  _atom_site_fract_y
  _atom_site_fract_z
  _atom_site_occupancy
  Cu  Cu1       1.0  0.33385  0.09224  0.44194  1.0000
  Cu  Cu2       1.0  0.66615  0.90776  0.55806  1.0000
  Cu  Cu3       1.0  0.44465  0.20756  0.23082  1.0000
  Cu  Cu4       1.0  0.55535  0.79244  0.76918  1.0000
  Cu  Cu5       1.0  0.63643  0.25696  0.36016  1.0000
  Cu  Cu6       1.0  0.36357  0.74304  0.63984  1.0000
  Cu  Cu7       1.0  0.59411  0.11762  0.70376  1.0000
  Cu  Cu8       1.0  0.40589  0.88238  0.29624  1.0000
  Cu  Cu9       1.0  0.80942  0.49218  0.03707  1.0000
  Cu  Cu10      1.0  0.19058  0.50782  0.96293  1.0000
  Cu  Cu11      1.0  0.75249  0.86976  0.02820  1.0000
  Cu  Cu12      1.0  0.24751  0.13024  0.97180  1.0000
  Cu  Cu13      1.0  0.50104  0.71669  0.09533  1.0000
  Cu  Cu14      1.0  0.49896  0.28331  0.90467  1.0000
  C   C1        1.0  0.26270  0.07560  0.23640  1.0000
  C   C2        1.0  0.73730  0.92440  0.76360  1.0000
  C   C3        1.0  0.60500  0.34580  0.11500  1.0000
  C   C4        1.0  0.39500  0.65420  0.88500  1.0000
  C   C5        1.0  0.45750  0.07620  0.58390  1.0000
  C   C6        1.0  0.54250  0.92380  0.41610  1.0000
  C   C7        1.0  0.59530  0.91060  0.14900  1.0000
  C   C8        1.0  0.40470  0.08940  0.85100  1.0000
  C   C9        1.0  0.81170  0.64270  0.89300  1.0000
  C   C10       1.0  0.18830  0.35730  0.10700  1.0000
  C   C11       1.0  0.18290  0.10110  0.30610  1.0000
  C   C12       1.0  0.81710  0.89890  0.69390  1.0000
  C   C13       1.0  0.58670  0.36780  0.19160  1.0000
  C   C14       1.0  0.41330  0.63220  0.80840  1.0000
  C   C15       1.0  0.49060  0.17260  0.52010  1.0000
  C   C16       1.0  0.50940  0.82740  0.47990  1.0000
  C   C17       1.0  0.57600  0.80950  0.18470  1.0000
  C   C18       1.0  0.42400  0.19050  0.81530  1.0000
  C   C19       1.0  0.91500  0.66110  0.95280  1.0000
  C   C20       1.0  0.08500  0.33890  0.04720  1.0000
  C   C21       1.0  0.12460  0.01880  0.38410  1.0000
  C   C22       1.0  0.87540  0.98120  0.61590  1.0000
  C   C23       1.0  0.76380  0.37990  0.21210  1.0000
  C   C24       1.0  0.23620  0.62010  0.78790  1.0000
  C   C25       1.0  0.66620  0.19750  0.52740  1.0000
  C   C26       1.0  0.33380  0.80250  0.47260  1.0000
  C   C27       1.0  0.38550  0.79610  0.19570  1.0000
  C   C28       1.0  0.61450  0.20390  0.80430  1.0000
  C   C29       1.0  0.79850  0.71150  0.99500  1.0000
  C   C30       1.0  0.20150  0.28850  0.00500  1.0000
  O   O1        1.0  0.37830  0.12520  0.19070  1.0000
  O   O2        1.0  0.62170  0.87480  0.80930  1.0000
  O   O3        1.0  0.56650  0.27100  0.12550  1.0000
  O   O4        1.0  0.43350  0.72900  0.87450  1.0000
  O   O5        1.0  0.39180  0.02820  0.55840  1.0000
  O   O6        1.0  0.60820  0.97180  0.44160  1.0000
  O   O7        1.0  0.66430  0.95040  0.07720  1.0000
  O   O8        1.0  0.33570  0.04960  0.92280  1.0000
  O   O9        1.0  0.74260  0.56790  0.92403  1.0000
  O   O10       1.0  0.25740  0.43210  0.07597  1.0000
  O   O11       1.0  0.70470  0.13950  0.32280  1.0000
  O   O12       1.0  0.29530  0.86050  0.67720  1.0000
  H   H1        1.0  0.80880  0.14020  0.30370  1.0000
  H   H2        1.0  0.19120  0.85980  0.69630  1.0000
  H   H3        1.0  0.69170  0.08820  0.36600  1.0000
  H   H4        1.0  0.30830  0.91180  0.63400  1.0000
  O   O13       1.0  0.21150  0.01280  0.22790  1.0000
  O   O14       1.0  0.78850  0.98720  0.77210  1.0000
  O   O15       1.0  0.65480  0.40490  0.04592  1.0000
  O   O16       1.0  0.34520  0.59510  0.95408  1.0000
  O   O17       1.0  0.48830  0.04940  0.65930  1.0000
  O   O18       1.0  0.51170  0.95060  0.34070  1.0000
  O   O19       1.0  0.53900  0.94910  0.19290  1.0000
  O   O20       1.0  0.46100  0.05090  0.80710  1.0000
  O   O21       1.0  0.79930  0.69900  0.82010  1.0000
  O   O22       1.0  0.20070  0.30100  0.17990  1.0000
  O   O23       1.0  0.50220  0.87220  0.96300  1.0000
  O   O24       1.0  0.49780  0.12780  0.03700  1.0000
  H   H5        1.0  0.43380  0.91820  0.95850  1.0000
  H   H6        1.0  0.56620  0.08180  0.04150  1.0000
  H   H7        1.0  0.52540  0.87580  0.91260  1.0000
  H   H8        1.0  0.47460  0.12420  0.08740  1.0000
  O   O25       1.0  0.29780  0.14540  0.32604  1.0000
  O   O26       1.0  0.70220  0.85460  0.67396  1.0000
  O   O27       1.0  0.51060  0.30080  0.25927  1.0000
  O   O28       1.0  0.48940  0.69920  0.74073  1.0000
  O   O29       1.0  0.47140  0.18230  0.44054  1.0000
  O   O30       1.0  0.52860  0.81770  0.55946  1.0000
  O   O31       1.0  0.65450  0.77660  0.13090  1.0000
  O   O32       1.0  0.34550  0.22340  0.86910  1.0000
  O   O33       1.0  0.97040  0.57940  0.01508  1.0000
  O   O34       1.0  0.02960  0.42060  0.98492  1.0000
  O   O35       1.0  0.82420  0.97420  0.92650  1.0000
  O   O36       1.0  0.17580  0.02580  0.07350  1.0000
  H   H9        1.0  0.88340  0.00510  0.93990  1.0000
  H   H10       1.0  0.11660  0.99490  0.06010  1.0000
  H   H11       1.0  0.88200  0.95690  0.89340  1.0000
  H   H12       1.0  0.11800  0.04310  0.10660  1.0000
  O   O37       1.0  0.03600  0.15530  0.27380  1.0000
  O   O38       1.0  0.96400  0.84470  0.72620  1.0000
  H   H13       1.0  0.06120  0.20350  0.23580  1.0000
  H   H14       1.0  0.93880  0.79650  0.76420  1.0000
  O   O39       1.0  0.49690  0.45140  0.16800  1.0000
  O   O40       1.0  0.50310  0.54860  0.83200  1.0000
  H   H15       1.0  0.41810  0.45430  0.14040  1.0000
  H   H16       1.0  0.58190  0.54570  0.85960  1.0000
  O   O41       1.0  0.37540  0.22880  0.54310  1.0000
  O   O42       1.0  0.62460  0.77120  0.45690  1.0000
  H   H17       1.0  0.27960  0.21910  0.53840  1.0000
  H   H18       1.0  0.72040  0.78090  0.46160  1.0000
  O   O43       1.0  0.63350  0.76720  0.26610  1.0000
  O   O44       1.0  0.36650  0.23280  0.73390  1.0000
  H   H19       1.0  0.73030  0.77960  0.26570  1.0000
  H   H20       1.0  0.26970  0.22040  0.73430  1.0000
  O   O45       1.0  0.04340  0.71270  0.90520  1.0000
  O   O46       1.0  0.95660  0.28730  0.09480  1.0000
  H   H21       1.0  0.05070  0.75380  0.91770  1.0000
  H   H22       1.0  0.94930  0.24620  0.08230  1.0000
  O   O47       1.0  0.52860  0.58260  0.22000  1.0000
  O   O48       1.0  0.47140  0.41740  0.78000  1.0000
  H   H23       1.0  0.44050  0.57690  0.25470  1.0000
  H   H24       1.0  0.55950  0.42310  0.74530  1.0000
  H   H25       1.0  0.53820  0.53560  0.20930  1.0000
  H   H26       1.0  0.46180  0.46440  0.79070  1.0000
  O   O49       1.0  0.00340  0.98140  0.37990  1.0000
  O   O50       1.0  0.99660  0.01860  0.62010  1.0000
  O   O51       1.0  0.85580  0.43350  0.15600  1.0000
  O   O52       1.0  0.14420  0.56650  0.84400  1.0000
  O   O53       1.0  0.71530  0.18450  0.59750  1.0000
  O   O54       1.0  0.28470  0.81550  0.40250  1.0000
  O   O55       1.0  0.29860  0.82110  0.24450  1.0000
  O   O56       1.0  0.70140  0.17890  0.75550  1.0000
  O   O57       1.0  0.67050  0.67340  0.03500  1.0000
  O   O58       1.0  0.32950  0.32660  0.96500  1.0000
  O   O59       1.0  0.32290  0.67430  0.05920  1.0000
  O   O60       1.0  0.67710  0.32570  0.94080  1.0000
  H   H27       1.0  0.33930  0.65460  0.01650  1.0000
  H   H28       1.0  0.66070  0.34540  0.98350  1.0000
  H   H29       1.0  0.24900  0.65390  0.09890  1.0000
  H   H30       1.0  0.75100  0.34610  0.90110  1.0000
  O   O61       1.0  0.20930  0.99570  0.44840  1.0000
  O   O62       1.0  0.79070  0.00430  0.55160  1.0000
  O   O63       1.0  0.80590  0.33490  0.28590  1.0000
  O   O64       1.0  0.19410  0.66510  0.71410  1.0000
  O   O65       1.0  0.75330  0.23390  0.46020  1.0000
  O   O66       1.0  0.24670  0.76610  0.53980  1.0000
  O   O67       1.0  0.32680  0.76160  0.15460  1.0000
  O   O68       1.0  0.67320  0.23840  0.84540  1.0000
  O   O69       1.0  0.84500  0.78470  0.98560  1.0000
  O   O70       1.0  0.15500  0.21530  0.01440  1.0000
  O   O71       1.0  0.10770  0.16590  0.49490  1.0000
  O   O72       1.0  0.89230  0.83410  0.50510  1.0000
  H   H31       1.0  0.06560  0.11280  0.53180  1.0000
  H   H32       1.0  0.93440  0.88720  0.46820  1.0000
  H   H33       1.0  0.08670  0.15200  0.46320  1.0000
  H   H34       1.0  0.91330  0.84800  0.53680  1.0000
  O   O73       1.0  0.03690  0.87830  0.06390  1.0000
  O   O74       1.0  0.96310  0.12170  0.93610  1.0000
  H   H35       1.0  0.11510  0.83830  0.06950  1.0000
  H   H36       1.0  0.88490  0.16170  0.93050  1.0000
  H   H37       1.0  0.99850  0.87170  0.11220  1.0000
  H   H38       1.0  0.00150  0.12830  0.88780  1.0000
