data_image0
_chemical_formula_structural       Zn3O6H2O8N4O6C4H2C6H2C4H2C4H2C6H2C4H8
_chemical_formula_sum              "Zn3 O20 H20 N4 C28"
_cell_length_a       8.25
_cell_length_b       10.9869
_cell_length_c       11.5083
_cell_angle_alpha    113.131
_cell_angle_beta     108.515
_cell_angle_gamma    94.301

_space_group_name_H-M_alt    "P 1"
_space_group_IT_number       1

loop_
  _space_group_symop_operation_xyz
  'x, y, z'

loop_
  _atom_site_type_symbol
  _atom_site_label
  _atom_site_symmetry_multiplicity
  _atom_site_fract_x
  _atom_site_fract_y
  _atom_site_fract_z
  _atom_site_occupancy
  Zn  Zn1       1.0  0.76356  0.54544  0.43176  1.0000
  Zn  Zn2       1.0  0.23644  0.45456  0.56824  1.0000
  Zn  Zn3       1.0  0.50000  0.00000  0.00000  1.0000
  O   O1        1.0  0.49238  0.12616  0.19132  1.0000
  O   O2        1.0  0.50762  0.87384  0.80868  1.0000
  O   O3        1.0  0.90382  0.60843  0.63094  1.0000
  O   O4        1.0  0.09618  0.39157  0.36906  1.0000
  O   O5        1.0  0.71378  0.35077  0.41257  1.0000
  O   O6        1.0  0.28622  0.64923  0.58743  1.0000
  H   H1        1.0  0.80837  0.33320  0.45693  1.0000
  H   H2        1.0  0.19163  0.66680  0.54307  1.0000
  O   O7        1.0  0.32959  0.14280  0.31592  1.0000
  O   O8        1.0  0.67041  0.85720  0.68408  1.0000
  O   O9        1.0  0.95979  0.67787  0.43749  1.0000
  O   O10       1.0  0.04021  0.32213  0.56251  1.0000
  O   O11       1.0  0.55397  0.62139  0.44096  1.0000
  O   O12       1.0  0.44603  0.37861  0.55904  1.0000
  O   O13       1.0  0.37144  0.12425  0.89946  1.0000
  O   O14       1.0  0.62856  0.87575  0.10054  1.0000
  N   N1        1.0  0.25748  0.91258  0.97763  1.0000
  N   N2        1.0  0.74252  0.08742  0.02237  1.0000
  N   N3        1.0  0.70562  0.48128  0.22180  1.0000
  N   N4        1.0  0.29438  0.51872  0.77820  1.0000
  O   O15       1.0  0.72323  0.57788  0.73217  1.0000
  O   O16       1.0  0.27677  0.42212  0.26783  1.0000
  O   O17       1.0  0.05450  0.74564  0.30704  1.0000
  O   O18       1.0  0.94550  0.25436  0.69296  1.0000
  O   O19       1.0  0.40520  0.19586  0.75065  1.0000
  O   O20       1.0  0.59480  0.80414  0.24935  1.0000
  C   C1        1.0  0.35820  0.08710  0.21039  1.0000
  C   C2        1.0  0.64180  0.91290  0.78961  1.0000
  C   C3        1.0  0.14060  0.80888  0.86645  1.0000
  C   C4        1.0  0.85940  0.19112  0.13355  1.0000
  H   H3        1.0  0.16433  0.77540  0.78726  1.0000
  H   H4        1.0  0.83567  0.22460  0.21274  1.0000
  C   C5        1.0  0.98490  0.74876  0.86399  1.0000
  C   C6        1.0  0.01510  0.25124  0.13601  1.0000
  C   C7        1.0  0.22270  0.96343  0.09188  1.0000
  C   C8        1.0  0.77730  0.03657  0.90812  1.0000
  C   C9        1.0  0.95110  0.79956  0.98229  1.0000
  C   C10       1.0  0.04890  0.20044  0.01771  1.0000
  H   H5        1.0  0.84841  0.76078  0.98423  1.0000
  H   H6        1.0  0.15159  0.23922  0.01577  1.0000
  C   C11       1.0  0.81880  0.55322  0.19735  1.0000
  C   C12       1.0  0.18120  0.44678  0.80265  1.0000
  C   C13       1.0  0.07110  0.90862  0.09798  1.0000
  C   C14       1.0  0.92890  0.09138  0.90202  1.0000
  H   H7        1.0  0.04996  0.94423  0.17822  1.0000
  H   H8        1.0  0.95004  0.05577  0.82178  1.0000
  C   C15       1.0  0.57090  0.33472  0.98231  1.0000
  C   C16       1.0  0.42910  0.66528  0.01769  1.0000
  C   C17       1.0  0.58300  0.37511  0.11562  1.0000
  C   C18       1.0  0.41700  0.62489  0.88438  1.0000
  H   H9        1.0  0.50277  0.32650  0.13202  1.0000
  H   H10       1.0  0.49723  0.67350  0.86798  1.0000
  C   C19       1.0  0.95650  0.66973  0.32251  1.0000
  C   C20       1.0  0.04350  0.33027  0.67749  1.0000
  C   C21       1.0  0.85720  0.63424  0.73113  1.0000
  C   C22       1.0  0.14280  0.36576  0.26887  1.0000
  C   C23       1.0  0.81240  0.52120  0.06729  1.0000
  C   C24       1.0  0.18760  0.47880  0.93271  1.0000
  H   H11       1.0  0.89162  0.57327  0.05321  1.0000
  H   H12       1.0  0.10838  0.42673  0.94679  1.0000
  C   C25       1.0  0.43810  0.20779  0.86695  1.0000
  C   C26       1.0  0.56190  0.79221  0.13305  1.0000
  C   C27       1.0  0.68670  0.41079  0.95796  1.0000
  C   C28       1.0  0.31330  0.58921  0.04204  1.0000
  H   H13       1.0  0.68001  0.38789  0.86943  1.0000
  H   H14       1.0  0.31999  0.61211  0.13057  1.0000
  H   H15       1.0  0.45800  0.56500  0.40100  1.0000
  H   H16       1.0  0.54200  0.43500  0.59900  1.0000
  H   H17       1.0  0.56400  0.67000  0.51300  1.0000
  H   H18       1.0  0.43600  0.33000  0.48700  1.0000
  H   H19       1.0  0.65200  0.28500  0.34700  1.0000
  H   H20       1.0  0.34800  0.71500  0.65300  1.0000
