data_image0
_chemical_formula_structural       Co12O32H8O28C4H4C4H4C8H4C8H4C8H4C12H4C4H4C4
_chemical_formula_sum              "Co12 O60 H36 C52"
_cell_length_a       9.6159
_cell_length_b       13.904
_cell_length_c       15.346
_cell_angle_alpha    90
_cell_angle_beta     91.18
_cell_angle_gamma    90

_space_group_name_H-M_alt    "P 1"
_space_group_IT_number       1

loop_
  _space_group_symop_operation_xyz
  'x, y, z'

loop_
  _atom_site_type_symbol
  _atom_site_label
  _atom_site_symmetry_multiplicity
  _atom_site_fract_x
  _atom_site_fract_y
  _atom_site_fract_z
  _atom_site_occupancy
  Co  Co1       1.0  0.28871  0.88503  0.05273  1.0000
  Co  Co2       1.0  0.71129  0.38503  0.44727  1.0000
  Co  Co3       1.0  0.71129  0.11497  0.94727  1.0000
  Co  Co4       1.0  0.28871  0.61497  0.55273  1.0000
  Co  Co5       1.0  0.96514  0.73549  0.51998  1.0000
  Co  Co6       1.0  0.03486  0.23549  0.98002  1.0000
  Co  Co7       1.0  0.03486  0.26451  0.48002  1.0000
  Co  Co8       1.0  0.96514  0.76451  0.01998  1.0000
  Co  Co9       1.0  0.19454  0.10371  0.15281  1.0000
  Co  Co10      1.0  0.80546  0.60371  0.34719  1.0000
  Co  Co11      1.0  0.80546  0.89629  0.84719  1.0000
  Co  Co12      1.0  0.19454  0.39629  0.65281  1.0000
  O   O1        1.0  0.92440  0.82206  0.41152  1.0000
  O   O2        1.0  0.07560  0.32206  0.08848  1.0000
  O   O3        1.0  0.07560  0.17794  0.58848  1.0000
  O   O4        1.0  0.92440  0.67794  0.91152  1.0000
  O   O5        1.0  0.40990  0.07732  0.15795  1.0000
  O   O6        1.0  0.59010  0.57732  0.34205  1.0000
  O   O7        1.0  0.59010  0.92268  0.84205  1.0000
  O   O8        1.0  0.40990  0.42268  0.65795  1.0000
  O   O9        1.0  0.43960  0.91818  0.14434  1.0000
  O   O10       1.0  0.56040  0.41818  0.35566  1.0000
  O   O11       1.0  0.56040  0.08182  0.85566  1.0000
  O   O12       1.0  0.43960  0.58182  0.64434  1.0000
  O   O13       1.0  0.87540  0.16776  0.44980  1.0000
  O   O14       1.0  0.12460  0.66776  0.05020  1.0000
  O   O15       1.0  0.12460  0.83224  0.55020  1.0000
  O   O16       1.0  0.87540  0.33224  0.94980  1.0000
  O   O17       1.0  0.71580  0.25331  0.37579  1.0000
  O   O18       1.0  0.28420  0.75331  0.12421  1.0000
  O   O19       1.0  0.28420  0.74669  0.62421  1.0000
  O   O20       1.0  0.71580  0.24669  0.87579  1.0000
  O   O21       1.0  0.83530  0.82825  0.58991  1.0000
  O   O22       1.0  0.16470  0.32825  0.91009  1.0000
  O   O23       1.0  0.16470  0.17175  0.41009  1.0000
  O   O24       1.0  0.83530  0.67175  0.08991  1.0000
  O   O25       1.0  0.02240  0.87531  0.83496  1.0000
  O   O26       1.0  0.97760  0.37531  0.66504  1.0000
  O   O27       1.0  0.97760  0.12469  0.16504  1.0000
  O   O28       1.0  0.02240  0.62469  0.33496  1.0000
  O   O29       1.0  0.42760  0.82209  0.96651  1.0000
  O   O30       1.0  0.57240  0.32209  0.53349  1.0000
  O   O31       1.0  0.57240  0.17791  0.03349  1.0000
  O   O32       1.0  0.42760  0.67791  0.46651  1.0000
  H   H1        1.0  0.47550  0.86130  0.94080  1.0000
  H   H2        1.0  0.52450  0.36130  0.55920  1.0000
  H   H3        1.0  0.52450  0.13870  0.05920  1.0000
  H   H4        1.0  0.47550  0.63870  0.44080  1.0000
  H   H5        1.0  0.47650  0.78080  0.99000  1.0000
  H   H6        1.0  0.52350  0.28080  0.51000  1.0000
  H   H7        1.0  0.52350  0.21920  0.01000  1.0000
  H   H8        1.0  0.47650  0.71920  0.49000  1.0000
  O   O33       1.0  0.18870  0.13245  0.01845  1.0000
  O   O34       1.0  0.81130  0.63245  0.48155  1.0000
  O   O35       1.0  0.81130  0.86755  0.98155  1.0000
  O   O36       1.0  0.18870  0.36755  0.51845  1.0000
  O   O37       1.0  0.80820  0.91529  0.70922  1.0000
  O   O38       1.0  0.19180  0.41529  0.79078  1.0000
  O   O39       1.0  0.19180  0.08471  0.29078  1.0000
  O   O40       1.0  0.80820  0.58471  0.20922  1.0000
  O   O41       1.0  0.14800  0.95597  0.13253  1.0000
  O   O42       1.0  0.85200  0.45597  0.36747  1.0000
  O   O43       1.0  0.85200  0.04403  0.86747  1.0000
  O   O44       1.0  0.14800  0.54403  0.63253  1.0000
  O   O45       1.0  0.98510  0.84223  0.13943  1.0000
  O   O46       1.0  0.01490  0.34223  0.36057  1.0000
  O   O47       1.0  0.01490  0.15777  0.86057  1.0000
  O   O48       1.0  0.98510  0.65777  0.63943  1.0000
  O   O49       1.0  0.11940  0.84958  0.96658  1.0000
  O   O50       1.0  0.88060  0.34958  0.53342  1.0000
  O   O51       1.0  0.88060  0.15042  0.03342  1.0000
  O   O52       1.0  0.11940  0.65042  0.46658  1.0000
  O   O53       1.0  0.76270  0.74579  0.32943  1.0000
  O   O54       1.0  0.23730  0.24579  0.17057  1.0000
  O   O55       1.0  0.23730  0.25421  0.67057  1.0000
  O   O56       1.0  0.76270  0.75421  0.82943  1.0000
  O   O57       1.0  0.31640  0.00781  0.97446  1.0000
  O   O58       1.0  0.68360  0.50781  0.52554  1.0000
  O   O59       1.0  0.68360  0.99219  0.02554  1.0000
  O   O60       1.0  0.31640  0.49219  0.47446  1.0000
  C   C1        1.0  0.63130  0.08670  0.28100  1.0000
  C   C2        1.0  0.36870  0.58670  0.21900  1.0000
  C   C3        1.0  0.36870  0.91330  0.71900  1.0000
  C   C4        1.0  0.63130  0.41330  0.78100  1.0000
  H   H9        1.0  0.58820  0.14420  0.26530  1.0000
  H   H10       1.0  0.41180  0.64420  0.23470  1.0000
  H   H11       1.0  0.41180  0.85580  0.73470  1.0000
  H   H12       1.0  0.58820  0.35580  0.76530  1.0000
  C   C5        1.0  0.65340  0.91520  0.26590  1.0000
  C   C6        1.0  0.34660  0.41520  0.23410  1.0000
  C   C7        1.0  0.34660  0.08480  0.73410  1.0000
  C   C8        1.0  0.65340  0.58480  0.76590  1.0000
  H   H13       1.0  0.62450  0.85780  0.24010  1.0000
  H   H14       1.0  0.37550  0.35780  0.25990  1.0000
  H   H15       1.0  0.37550  0.14220  0.75990  1.0000
  H   H16       1.0  0.62450  0.64220  0.74010  1.0000
  C   C9        1.0  0.73730  0.08640  0.34460  1.0000
  C   C10       1.0  0.26270  0.58640  0.15540  1.0000
  C   C11       1.0  0.26270  0.91360  0.65540  1.0000
  C   C12       1.0  0.73730  0.41360  0.84460  1.0000
  C   C13       1.0  0.80320  0.00010  0.36670  1.0000
  C   C14       1.0  0.19680  0.50010  0.13330  1.0000
  C   C15       1.0  0.19680  0.99990  0.63330  1.0000
  C   C16       1.0  0.80320  0.49990  0.86670  1.0000
  H   H17       1.0  0.87670  0.00030  0.40700  1.0000
  H   H18       1.0  0.12330  0.50030  0.09300  1.0000
  H   H19       1.0  0.12330  0.99970  0.59300  1.0000
  H   H20       1.0  0.87670  0.49970  0.90700  1.0000
  C   C17       1.0  0.77900  0.17720  0.39330  1.0000
  C   C18       1.0  0.22100  0.67720  0.10670  1.0000
  C   C19       1.0  0.22100  0.82280  0.60670  1.0000
  C   C20       1.0  0.77900  0.32280  0.89330  1.0000
  C   C21       1.0  0.12230  0.87370  0.88660  1.0000
  C   C22       1.0  0.87770  0.37370  0.61340  1.0000
  C   C23       1.0  0.87770  0.12630  0.11340  1.0000
  C   C24       1.0  0.12230  0.62630  0.38660  1.0000
  H   H21       1.0  0.20810  0.89190  0.86510  1.0000
  H   H22       1.0  0.79190  0.39190  0.63490  1.0000
  H   H23       1.0  0.79190  0.10810  0.13490  1.0000
  H   H24       1.0  0.20810  0.60810  0.36510  1.0000
  C   C25       1.0  0.82250  0.81960  0.35830  1.0000
  C   C26       1.0  0.17750  0.31960  0.14170  1.0000
  C   C27       1.0  0.17750  0.18040  0.64170  1.0000
  C   C28       1.0  0.82250  0.68040  0.85830  1.0000
  C   C29       1.0  0.86420  0.84910  0.66700  1.0000
  C   C30       1.0  0.13580  0.34910  0.83300  1.0000
  C   C31       1.0  0.13580  0.15090  0.33300  1.0000
  C   C32       1.0  0.86420  0.65090  0.16700  1.0000
  H   H25       1.0  0.93240  0.81280  0.69560  1.0000
  H   H26       1.0  0.06760  0.31280  0.80440  1.0000
  H   H27       1.0  0.06760  0.18720  0.30440  1.0000
  H   H28       1.0  0.93240  0.68720  0.19560  1.0000
  C   C33       1.0  0.58980  0.00070  0.24110  1.0000
  C   C34       1.0  0.41020  0.50070  0.25890  1.0000
  C   C35       1.0  0.41020  0.99930  0.75890  1.0000
  C   C36       1.0  0.58980  0.49930  0.74110  1.0000
  C   C37       1.0  0.47100  0.99870  0.17560  1.0000
  C   C38       1.0  0.52900  0.49870  0.32440  1.0000
  C   C39       1.0  0.52900  0.00130  0.82440  1.0000
  C   C40       1.0  0.47100  0.50130  0.67560  1.0000
  C   C41       1.0  0.26290  0.08810  0.96400  1.0000
  C   C42       1.0  0.73710  0.58810  0.53600  1.0000
  C   C43       1.0  0.73710  0.91190  0.03600  1.0000
  C   C44       1.0  0.26290  0.41190  0.46400  1.0000
  H   H29       1.0  0.27860  0.11880  0.91130  1.0000
  H   H30       1.0  0.72140  0.61880  0.58870  1.0000
  H   H31       1.0  0.72140  0.88120  0.08870  1.0000
  H   H32       1.0  0.27860  0.38120  0.41130  1.0000
  C   C45       1.0  0.04160  0.91750  0.16430  1.0000
  C   C46       1.0  0.95840  0.41750  0.33570  1.0000
  C   C47       1.0  0.95840  0.08250  0.83570  1.0000
  C   C48       1.0  0.04160  0.58250  0.66430  1.0000
  H   H33       1.0  0.00170  0.94890  0.21110  1.0000
  H   H34       1.0  0.99830  0.44890  0.28890  1.0000
  H   H35       1.0  0.99830  0.05110  0.78890  1.0000
  H   H36       1.0  0.00170  0.55110  0.71110  1.0000
  C   C49       1.0  0.76020  0.91370  0.32890  1.0000
  C   C50       1.0  0.23980  0.41370  0.17110  1.0000
  C   C51       1.0  0.23980  0.08630  0.67110  1.0000
  C   C52       1.0  0.76020  0.58630  0.82890  1.0000
