data_image0
_chemical_formula_structural       Ni12O32H8O28C4H4C4H4C8H4C8H4C8H4C12H4C4H4C4
_chemical_formula_sum              "Ni12 O60 H36 C52"
_cell_length_a       9.5399
_cell_length_b       13.783
_cell_length_c       15.154
_cell_angle_alpha    90
_cell_angle_beta     91.02
_cell_angle_gamma    90

_space_group_name_H-M_alt    "P 1"
_space_group_IT_number       1

loop_
  _space_group_symop_operation_xyz
  'x, y, z'

loop_
  _atom_site_type_symbol
  _atom_site_label
  _atom_site_symmetry_multiplicity
  _atom_site_fract_x
  _atom_site_fract_y
  _atom_site_fract_z
  _atom_site_occupancy
  Ni  Ni1       1.0  0.78596  0.88571  0.05199  1.0000
  Ni  Ni2       1.0  0.21404  0.38571  0.44801  1.0000
  Ni  Ni3       1.0  0.21404  0.11429  0.94801  1.0000
  Ni  Ni4       1.0  0.78596  0.61429  0.55199  1.0000
  Ni  Ni5       1.0  0.46389  0.73324  0.52093  1.0000
  Ni  Ni6       1.0  0.53611  0.23324  0.97907  1.0000
  Ni  Ni7       1.0  0.53611  0.26676  0.47907  1.0000
  Ni  Ni8       1.0  0.46389  0.76676  0.02093  1.0000
  Ni  Ni9       1.0  0.69252  0.10290  0.15238  1.0000
  Ni  Ni10      1.0  0.30748  0.60290  0.34762  1.0000
  Ni  Ni11      1.0  0.30748  0.89710  0.84762  1.0000
  Ni  Ni12      1.0  0.69252  0.39710  0.65238  1.0000
  O   O1        1.0  0.42490  0.81990  0.41298  1.0000
  O   O2        1.0  0.57510  0.31990  0.08702  1.0000
  O   O3        1.0  0.57510  0.18010  0.58702  1.0000
  O   O4        1.0  0.42490  0.68010  0.91298  1.0000
  O   O5        1.0  0.90730  0.07820  0.15647  1.0000
  O   O6        1.0  0.09270  0.57820  0.34353  1.0000
  O   O7        1.0  0.09270  0.92180  0.84353  1.0000
  O   O8        1.0  0.90730  0.42180  0.65647  1.0000
  O   O9        1.0  0.93860  0.91710  0.14178  1.0000
  O   O10       1.0  0.06140  0.41710  0.35822  1.0000
  O   O11       1.0  0.06140  0.08290  0.85822  1.0000
  O   O12       1.0  0.93860  0.58290  0.64178  1.0000
  O   O13       1.0  0.38180  0.16886  0.44911  1.0000
  O   O14       1.0  0.61820  0.66886  0.05089  1.0000
  O   O15       1.0  0.61820  0.83114  0.55089  1.0000
  O   O16       1.0  0.38180  0.33114  0.94911  1.0000
  O   O17       1.0  0.21900  0.25650  0.37567  1.0000
  O   O18       1.0  0.78100  0.75650  0.12433  1.0000
  O   O19       1.0  0.78100  0.74350  0.62433  1.0000
  O   O20       1.0  0.21900  0.24350  0.87567  1.0000
  O   O21       1.0  0.33270  0.82560  0.58921  1.0000
  O   O22       1.0  0.66730  0.32560  0.91079  1.0000
  O   O23       1.0  0.66730  0.17440  0.41079  1.0000
  O   O24       1.0  0.33270  0.67440  0.08921  1.0000
  O   O25       1.0  0.51990  0.87630  0.83391  1.0000
  O   O26       1.0  0.48010  0.37630  0.66609  1.0000
  O   O27       1.0  0.48010  0.12370  0.16609  1.0000
  O   O28       1.0  0.51990  0.62370  0.33391  1.0000
  O   O29       1.0  0.92330  0.82080  0.96591  1.0000
  O   O30       1.0  0.07670  0.32080  0.53409  1.0000
  O   O31       1.0  0.07670  0.17920  0.03409  1.0000
  O   O32       1.0  0.92330  0.67920  0.46591  1.0000
  H   H1        1.0  0.97400  0.85150  0.93280  1.0000
  H   H2        1.0  0.02600  0.35150  0.56720  1.0000
  H   H3        1.0  0.02600  0.14850  0.06720  1.0000
  H   H4        1.0  0.97400  0.64850  0.43280  1.0000
  H   H5        1.0  0.96820  0.78180  0.99590  1.0000
  H   H6        1.0  0.03180  0.28180  0.50410  1.0000
  H   H7        1.0  0.03180  0.21820  0.00410  1.0000
  H   H8        1.0  0.96820  0.71820  0.49590  1.0000
  O   O33       1.0  0.68620  0.13160  0.01879  1.0000
  O   O34       1.0  0.31380  0.63160  0.48121  1.0000
  O   O35       1.0  0.31380  0.86840  0.98121  1.0000
  O   O36       1.0  0.68620  0.36840  0.51879  1.0000
  O   O37       1.0  0.30530  0.91450  0.71020  1.0000
  O   O38       1.0  0.69470  0.41450  0.78980  1.0000
  O   O39       1.0  0.69470  0.08550  0.28980  1.0000
  O   O40       1.0  0.30530  0.58550  0.21020  1.0000
  O   O41       1.0  0.64930  0.95710  0.13233  1.0000
  O   O42       1.0  0.35070  0.45710  0.36767  1.0000
  O   O43       1.0  0.35070  0.04290  0.86767  1.0000
  O   O44       1.0  0.64930  0.54290  0.63233  1.0000
  O   O45       1.0  0.48210  0.84280  0.13873  1.0000
  O   O46       1.0  0.51790  0.34280  0.36127  1.0000
  O   O47       1.0  0.51790  0.15720  0.86127  1.0000
  O   O48       1.0  0.48210  0.65720  0.63873  1.0000
  O   O49       1.0  0.61750  0.85050  0.96790  1.0000
  O   O50       1.0  0.38250  0.35050  0.53210  1.0000
  O   O51       1.0  0.38250  0.14950  0.03210  1.0000
  O   O52       1.0  0.61750  0.64950  0.46790  1.0000
  O   O53       1.0  0.26210  0.74310  0.32880  1.0000
  O   O54       1.0  0.73790  0.24310  0.17120  1.0000
  O   O55       1.0  0.73790  0.25690  0.67120  1.0000
  O   O56       1.0  0.26210  0.75690  0.82880  1.0000
  O   O57       1.0  0.81690  0.00620  0.97354  1.0000
  O   O58       1.0  0.18310  0.50620  0.52646  1.0000
  O   O59       1.0  0.18310  0.99380  0.02646  1.0000
  O   O60       1.0  0.81690  0.49380  0.47354  1.0000
  C   C1        1.0  0.13190  0.08780  0.27990  1.0000
  C   C2        1.0  0.86810  0.58780  0.22010  1.0000
  C   C3        1.0  0.86810  0.91220  0.72010  1.0000
  C   C4        1.0  0.13190  0.41220  0.77990  1.0000
  H   H9        1.0  0.08850  0.14580  0.26410  1.0000
  H   H10       1.0  0.91150  0.64580  0.23590  1.0000
  H   H11       1.0  0.91150  0.85420  0.73590  1.0000
  H   H12       1.0  0.08850  0.35420  0.76410  1.0000
  C   C5        1.0  0.15380  0.91360  0.26520  1.0000
  C   C6        1.0  0.84620  0.41360  0.23480  1.0000
  C   C7        1.0  0.84620  0.08640  0.73480  1.0000
  C   C8        1.0  0.15380  0.58640  0.76520  1.0000
  H   H13       1.0  0.12520  0.85550  0.23940  1.0000
  H   H14       1.0  0.87480  0.35550  0.26060  1.0000
  H   H15       1.0  0.87480  0.14450  0.76060  1.0000
  H   H16       1.0  0.12520  0.64450  0.73940  1.0000
  C   C9        1.0  0.24000  0.08780  0.34390  1.0000
  C   C10       1.0  0.76000  0.58780  0.15610  1.0000
  C   C11       1.0  0.76000  0.91220  0.65610  1.0000
  C   C12       1.0  0.24000  0.41220  0.84390  1.0000
  C   C13       1.0  0.30480  0.00010  0.36710  1.0000
  C   C14       1.0  0.69520  0.50010  0.13290  1.0000
  C   C15       1.0  0.69520  0.99990  0.63290  1.0000
  C   C16       1.0  0.30480  0.49990  0.86710  1.0000
  H   H17       1.0  0.37800  0.99970  0.40850  1.0000
  H   H18       1.0  0.62200  0.49970  0.09150  1.0000
  H   H19       1.0  0.62200  0.00030  0.59150  1.0000
  H   H20       1.0  0.37800  0.50030  0.90850  1.0000
  C   C17       1.0  0.28320  0.17940  0.39280  1.0000
  C   C18       1.0  0.71680  0.67940  0.10720  1.0000
  C   C19       1.0  0.71680  0.82060  0.60720  1.0000
  C   C20       1.0  0.28320  0.32060  0.89280  1.0000
  C   C21       1.0  0.62160  0.87410  0.88640  1.0000
  C   C22       1.0  0.37840  0.37410  0.61360  1.0000
  C   C23       1.0  0.37840  0.12590  0.11360  1.0000
  C   C24       1.0  0.62160  0.62590  0.38640  1.0000
  H   H21       1.0  0.70850  0.89120  0.86430  1.0000
  H   H22       1.0  0.29150  0.39120  0.63570  1.0000
  H   H23       1.0  0.29150  0.10880  0.13570  1.0000
  H   H24       1.0  0.70850  0.60880  0.36430  1.0000
  C   C25       1.0  0.32240  0.81810  0.35920  1.0000
  C   C26       1.0  0.67760  0.31810  0.14080  1.0000
  C   C27       1.0  0.67760  0.18190  0.64080  1.0000
  C   C28       1.0  0.32240  0.68190  0.85920  1.0000
  C   C29       1.0  0.36320  0.84680  0.66810  1.0000
  C   C30       1.0  0.63680  0.34680  0.83190  1.0000
  C   C31       1.0  0.63680  0.15320  0.33190  1.0000
  C   C32       1.0  0.36320  0.65320  0.16810  1.0000
  H   H25       1.0  0.43220  0.81050  0.69700  1.0000
  H   H26       1.0  0.56780  0.31050  0.80300  1.0000
  H   H27       1.0  0.56780  0.18950  0.30300  1.0000
  H   H28       1.0  0.43220  0.68950  0.19700  1.0000
  C   C33       1.0  0.08870  0.00070  0.23960  1.0000
  C   C34       1.0  0.91130  0.50070  0.26040  1.0000
  C   C35       1.0  0.91130  0.99930  0.76040  1.0000
  C   C36       1.0  0.08870  0.49930  0.73960  1.0000
  C   C37       1.0  0.96820  0.99880  0.17320  1.0000
  C   C38       1.0  0.03180  0.49880  0.32680  1.0000
  C   C39       1.0  0.03180  0.00120  0.82680  1.0000
  C   C40       1.0  0.96820  0.50120  0.67320  1.0000
  C   C41       1.0  0.76280  0.08740  0.96380  1.0000
  C   C42       1.0  0.23720  0.58740  0.53620  1.0000
  C   C43       1.0  0.23720  0.91260  0.03620  1.0000
  C   C44       1.0  0.76280  0.41260  0.46380  1.0000
  H   H29       1.0  0.77980  0.11920  0.91090  1.0000
  H   H30       1.0  0.22020  0.61920  0.58910  1.0000
  H   H31       1.0  0.22020  0.88080  0.08910  1.0000
  H   H32       1.0  0.77980  0.38080  0.41090  1.0000
  C   C45       1.0  0.54160  0.91840  0.16450  1.0000
  C   C46       1.0  0.45840  0.41840  0.33550  1.0000
  C   C47       1.0  0.45840  0.08160  0.83550  1.0000
  C   C48       1.0  0.54160  0.58160  0.66450  1.0000
  H   H33       1.0  0.50260  0.94970  0.21250  1.0000
  H   H34       1.0  0.49740  0.44970  0.28750  1.0000
  H   H35       1.0  0.49740  0.05030  0.78750  1.0000
  H   H36       1.0  0.50260  0.55030  0.71250  1.0000
  C   C49       1.0  0.26020  0.91340  0.32870  1.0000
  C   C50       1.0  0.73980  0.41340  0.17130  1.0000
  C   C51       1.0  0.73980  0.08660  0.67130  1.0000
  C   C52       1.0  0.26020  0.58660  0.82870  1.0000
