data_image0
_chemical_formula_structural       Mn12O32H8O28C4H4C4H4C8H4C8H4C8H4C12H4C4H4C4
_chemical_formula_sum              "Mn12 O60 H36 C52"
_cell_length_a       9.756
_cell_length_b       14.139
_cell_length_c       15.733
_cell_angle_alpha    90
_cell_angle_beta     90.96
_cell_angle_gamma    90

_space_group_name_H-M_alt    "P 1"
_space_group_IT_number       1

loop_
  _space_group_symop_operation_xyz
  'x, y, z'

loop_
  _atom_site_type_symbol
  _atom_site_label
  _atom_site_symmetry_multiplicity
  _atom_site_fract_x
  _atom_site_fract_y
  _atom_site_fract_z
  _atom_site_occupancy
  Mn  Mn1       1.0  0.79735  0.88226  0.05220  1.0000
  Mn  Mn2       1.0  0.20265  0.38226  0.44780  1.0000
  Mn  Mn3       1.0  0.20265  0.11774  0.94780  1.0000
  Mn  Mn4       1.0  0.79735  0.61774  0.55220  1.0000
  Mn  Mn5       1.0  0.69684  0.10292  0.15455  1.0000
  Mn  Mn6       1.0  0.30316  0.60292  0.34545  1.0000
  Mn  Mn7       1.0  0.30316  0.89708  0.84545  1.0000
  Mn  Mn8       1.0  0.69684  0.39708  0.65455  1.0000
  Mn  Mn9       1.0  0.46790  0.74040  0.51628  1.0000
  Mn  Mn10      1.0  0.53210  0.24040  0.98372  1.0000
  Mn  Mn11      1.0  0.53210  0.25960  0.48372  1.0000
  Mn  Mn12      1.0  0.46790  0.75960  0.01628  1.0000
  O   O1        1.0  0.42470  0.82523  0.40662  1.0000
  O   O2        1.0  0.57530  0.32523  0.09338  1.0000
  O   O3        1.0  0.57530  0.17477  0.59338  1.0000
  O   O4        1.0  0.42470  0.67477  0.90662  1.0000
  O   O5        1.0  0.91580  0.07546  0.16175  1.0000
  O   O6        1.0  0.08420  0.57546  0.33825  1.0000
  O   O7        1.0  0.08420  0.92454  0.83825  1.0000
  O   O8        1.0  0.91580  0.42454  0.66175  1.0000
  O   O9        1.0  0.94660  0.91955  0.14722  1.0000
  O   O10       1.0  0.05340  0.41955  0.35278  1.0000
  O   O11       1.0  0.05340  0.08045  0.85278  1.0000
  O   O12       1.0  0.94660  0.58045  0.64722  1.0000
  O   O13       1.0  0.36180  0.16443  0.45361  1.0000
  O   O14       1.0  0.63820  0.66443  0.04639  1.0000
  O   O15       1.0  0.63820  0.83557  0.54639  1.0000
  O   O16       1.0  0.36180  0.33557  0.95361  1.0000
  O   O17       1.0  0.20450  0.24660  0.38006  1.0000
  O   O18       1.0  0.79550  0.74660  0.11994  1.0000
  O   O19       1.0  0.79550  0.75340  0.61994  1.0000
  O   O20       1.0  0.20450  0.25340  0.88006  1.0000
  O   O21       1.0  0.65740  0.16220  0.41114  1.0000
  O   O22       1.0  0.34260  0.66220  0.08886  1.0000
  O   O23       1.0  0.34260  0.83780  0.58886  1.0000
  O   O24       1.0  0.65740  0.33780  0.91114  1.0000
  O   O25       1.0  0.52620  0.87860  0.83597  1.0000
  O   O26       1.0  0.47380  0.37860  0.66403  1.0000
  O   O27       1.0  0.47380  0.12140  0.16403  1.0000
  O   O28       1.0  0.52620  0.62140  0.33597  1.0000
  O   O29       1.0  0.94170  0.82070  0.96228  1.0000
  O   O30       1.0  0.05830  0.32070  0.53772  1.0000
  O   O31       1.0  0.05830  0.17930  0.03772  1.0000
  O   O32       1.0  0.94170  0.67930  0.46228  1.0000
  H   H1        1.0  0.99150  0.77660  0.97650  1.0000
  H   H2        1.0  0.00850  0.27660  0.52350  1.0000
  H   H3        1.0  0.00850  0.22340  0.02350  1.0000
  H   H4        1.0  0.99150  0.72340  0.47650  1.0000
  H   H5        1.0  0.98450  0.86270  0.93850  1.0000
  H   H6        1.0  0.01550  0.36270  0.56150  1.0000
  H   H7        1.0  0.01550  0.13730  0.06150  1.0000
  H   H8        1.0  0.98450  0.63730  0.43850  1.0000
  O   O33       1.0  0.69300  0.13485  0.01769  1.0000
  O   O34       1.0  0.30700  0.63485  0.48231  1.0000
  O   O35       1.0  0.30700  0.86515  0.98231  1.0000
  O   O36       1.0  0.69300  0.36515  0.51769  1.0000
  O   O37       1.0  0.68720  0.07969  0.29274  1.0000
  O   O38       1.0  0.31280  0.57969  0.20726  1.0000
  O   O39       1.0  0.31280  0.92031  0.70726  1.0000
  O   O40       1.0  0.68720  0.42031  0.79274  1.0000
  O   O41       1.0  0.64790  0.95196  0.13390  1.0000
  O   O42       1.0  0.35210  0.45196  0.36610  1.0000
  O   O43       1.0  0.35210  0.04804  0.86610  1.0000
  O   O44       1.0  0.64790  0.54804  0.63390  1.0000
  O   O45       1.0  0.48980  0.83759  0.13667  1.0000
  O   O46       1.0  0.51020  0.33759  0.36333  1.0000
  O   O47       1.0  0.51020  0.16241  0.86333  1.0000
  O   O48       1.0  0.48980  0.66241  0.63667  1.0000
  O   O49       1.0  0.62570  0.84880  0.96229  1.0000
  O   O50       1.0  0.37430  0.34880  0.53771  1.0000
  O   O51       1.0  0.37430  0.15120  0.03771  1.0000
  O   O52       1.0  0.62570  0.65120  0.46229  1.0000
  O   O53       1.0  0.26870  0.74939  0.32650  1.0000
  O   O54       1.0  0.73130  0.24939  0.17350  1.0000
  O   O55       1.0  0.73130  0.25061  0.67350  1.0000
  O   O56       1.0  0.26870  0.75061  0.82650  1.0000
  O   O57       1.0  0.81660  0.01097  0.97661  1.0000
  O   O58       1.0  0.18340  0.51097  0.52339  1.0000
  O   O59       1.0  0.18340  0.98903  0.02339  1.0000
  O   O60       1.0  0.81660  0.48903  0.47661  1.0000
  C   C1        1.0  0.12990  0.08440  0.28470  1.0000
  C   C2        1.0  0.87010  0.58440  0.21530  1.0000
  C   C3        1.0  0.87010  0.91560  0.71530  1.0000
  C   C4        1.0  0.12990  0.41560  0.78470  1.0000
  H   H9        1.0  0.08710  0.14090  0.26980  1.0000
  H   H10       1.0  0.91290  0.64090  0.23020  1.0000
  H   H11       1.0  0.91290  0.85910  0.73020  1.0000
  H   H12       1.0  0.08710  0.35910  0.76980  1.0000
  C   C5        1.0  0.15710  0.91650  0.26620  1.0000
  C   C6        1.0  0.84290  0.41650  0.23380  1.0000
  C   C7        1.0  0.84290  0.08350  0.73380  1.0000
  C   C8        1.0  0.15710  0.58350  0.76620  1.0000
  H   H13       1.0  0.13140  0.86050  0.23940  1.0000
  H   H14       1.0  0.86860  0.36050  0.26060  1.0000
  H   H15       1.0  0.86860  0.13950  0.76060  1.0000
  H   H16       1.0  0.13140  0.63950  0.73940  1.0000
  C   C9        1.0  0.23210  0.08370  0.34790  1.0000
  C   C10       1.0  0.76790  0.58370  0.15210  1.0000
  C   C11       1.0  0.76790  0.91630  0.65210  1.0000
  C   C12       1.0  0.23210  0.41630  0.84790  1.0000
  C   C13       1.0  0.29840  0.99940  0.36810  1.0000
  C   C14       1.0  0.70160  0.49940  0.13190  1.0000
  C   C15       1.0  0.70160  0.00060  0.63190  1.0000
  C   C16       1.0  0.29840  0.50060  0.86810  1.0000
  H   H17       1.0  0.36890  0.99920  0.40860  1.0000
  H   H18       1.0  0.63110  0.49920  0.09140  1.0000
  H   H19       1.0  0.63110  0.00080  0.59140  1.0000
  H   H20       1.0  0.36890  0.50080  0.90860  1.0000
  C   C17       1.0  0.26840  0.17210  0.39660  1.0000
  C   C18       1.0  0.73160  0.67210  0.10340  1.0000
  C   C19       1.0  0.73160  0.82790  0.60340  1.0000
  C   C20       1.0  0.26840  0.32790  0.89660  1.0000
  C   C21       1.0  0.62600  0.87560  0.88550  1.0000
  C   C22       1.0  0.37400  0.37560  0.61450  1.0000
  C   C23       1.0  0.37400  0.12440  0.11450  1.0000
  C   C24       1.0  0.62600  0.62440  0.38550  1.0000
  H   H21       1.0  0.70970  0.89510  0.86410  1.0000
  H   H22       1.0  0.29030  0.39510  0.63590  1.0000
  H   H23       1.0  0.29030  0.10490  0.13590  1.0000
  H   H24       1.0  0.70970  0.60490  0.36410  1.0000
  C   C25       1.0  0.32390  0.82240  0.35550  1.0000
  C   C26       1.0  0.67610  0.32240  0.14450  1.0000
  C   C27       1.0  0.67610  0.17760  0.64450  1.0000
  C   C28       1.0  0.32390  0.67760  0.85550  1.0000
  C   C29       1.0  0.63130  0.14340  0.33530  1.0000
  C   C30       1.0  0.36870  0.64340  0.16470  1.0000
  C   C31       1.0  0.36870  0.85660  0.66470  1.0000
  C   C32       1.0  0.63130  0.35660  0.83530  1.0000
  H   H25       1.0  0.56460  0.17970  0.30780  1.0000
  H   H26       1.0  0.43540  0.67970  0.19220  1.0000
  H   H27       1.0  0.43540  0.82030  0.69220  1.0000
  H   H28       1.0  0.56460  0.32030  0.80780  1.0000
  C   C33       1.0  0.09200  0.00100  0.24390  1.0000
  C   C34       1.0  0.90800  0.50100  0.25610  1.0000
  C   C35       1.0  0.90800  0.99900  0.75610  1.0000
  C   C36       1.0  0.09200  0.49900  0.74390  1.0000
  C   C37       1.0  0.97600  0.99800  0.17880  1.0000
  C   C38       1.0  0.02400  0.49800  0.32120  1.0000
  C   C39       1.0  0.02400  0.00200  0.82120  1.0000
  C   C40       1.0  0.97600  0.50200  0.67880  1.0000
  C   C41       1.0  0.76310  0.08910  0.96460  1.0000
  C   C42       1.0  0.23690  0.58910  0.53540  1.0000
  C   C43       1.0  0.23690  0.91090  0.03540  1.0000
  C   C44       1.0  0.76310  0.41090  0.46460  1.0000
  H   H29       1.0  0.77540  0.11690  0.91160  1.0000
  H   H30       1.0  0.22460  0.61690  0.58840  1.0000
  H   H31       1.0  0.22460  0.88310  0.08840  1.0000
  H   H32       1.0  0.77540  0.38310  0.41160  1.0000
  C   C45       1.0  0.54160  0.91280  0.16210  1.0000
  C   C46       1.0  0.45840  0.41280  0.33790  1.0000
  C   C47       1.0  0.45840  0.08720  0.83790  1.0000
  C   C48       1.0  0.54160  0.58720  0.66210  1.0000
  H   H33       1.0  0.49770  0.94330  0.20640  1.0000
  H   H34       1.0  0.50230  0.44330  0.29360  1.0000
  H   H35       1.0  0.50230  0.05670  0.79360  1.0000
  H   H36       1.0  0.49770  0.55670  0.70640  1.0000
  C   C49       1.0  0.26030  0.91550  0.32840  1.0000
  C   C50       1.0  0.73970  0.41550  0.17160  1.0000
  C   C51       1.0  0.73970  0.08450  0.67160  1.0000
  C   C52       1.0  0.26030  0.58450  0.82840  1.0000
