data_image0
_chemical_formula_structural       Sn4O12H4O12H4C8H4C24H4C4H4C4H4C4H4C8H4C24H4C4H4C4H4C4H4C4H8C8H4C4H4C4H4C4H4C4H4C8H4C4H4C4H4C4H4C4H4C8H4C4H4C4H4C4H4C4H4
_chemical_formula_sum              "Sn4 O24 H116 C164"
_cell_length_a       13.259
_cell_length_b       16.3231
_cell_length_c       19.166
_cell_angle_alpha    90
_cell_angle_beta     98.58
_cell_angle_gamma    90

_space_group_name_H-M_alt    "P 1"
_space_group_IT_number       1

loop_
  _space_group_symop_operation_xyz
  'x, y, z'

loop_
  _atom_site_type_symbol
  _atom_site_label
  _atom_site_symmetry_multiplicity
  _atom_site_fract_x
  _atom_site_fract_y
  _atom_site_fract_z
  _atom_site_occupancy
  Sn  Sn1       1.0  0.76424  0.44960  0.08738  1.0000
  Sn  Sn2       1.0  0.76424  0.55040  0.58738  1.0000
  Sn  Sn3       1.0  0.26424  0.94960  0.08738  1.0000
  Sn  Sn4       1.0  0.26424  0.05040  0.58738  1.0000
  O   O1        1.0  0.59200  0.43070  0.04880  1.0000
  O   O2        1.0  0.59200  0.56930  0.54880  1.0000
  O   O3        1.0  0.09200  0.93070  0.04880  1.0000
  O   O4        1.0  0.09200  0.06930  0.54880  1.0000
  O   O5        1.0  0.56310  0.51210  0.13800  1.0000
  O   O6        1.0  0.56310  0.48790  0.63800  1.0000
  O   O7        1.0  0.06310  0.01210  0.13800  1.0000
  O   O8        1.0  0.06310  0.98790  0.63800  1.0000
  O   O9        1.0  0.45250  0.40400  0.94410  1.0000
  O   O10       1.0  0.45250  0.59600  0.44410  1.0000
  O   O11       1.0  0.95250  0.90400  0.94410  1.0000
  O   O12       1.0  0.95250  0.09600  0.44410  1.0000
  H   H1        1.0  0.50790  0.40030  0.96950  1.0000
  H   H2        1.0  0.50790  0.59970  0.46950  1.0000
  H   H3        1.0  0.00790  0.90030  0.96950  1.0000
  H   H4        1.0  0.00790  0.09970  0.46950  1.0000
  O   O13       1.0  0.93060  0.54070  0.62630  1.0000
  O   O14       1.0  0.93060  0.45930  0.12630  1.0000
  O   O15       1.0  0.43060  0.04070  0.62630  1.0000
  O   O16       1.0  0.43060  0.95930  0.12630  1.0000
  O   O17       1.0  0.90780  0.44810  0.70870  1.0000
  O   O18       1.0  0.90780  0.55190  0.20870  1.0000
  O   O19       1.0  0.40780  0.94810  0.70870  1.0000
  O   O20       1.0  0.40780  0.05190  0.20870  1.0000
  O   O21       1.0  0.05430  0.40860  0.80300  1.0000
  O   O22       1.0  0.05430  0.59140  0.30300  1.0000
  O   O23       1.0  0.55430  0.90860  0.80300  1.0000
  O   O24       1.0  0.55430  0.09140  0.30300  1.0000
  H   H5        1.0  0.99770  0.40680  0.77900  1.0000
  H   H6        1.0  0.99770  0.59320  0.27900  1.0000
  H   H7        1.0  0.49770  0.90680  0.77900  1.0000
  H   H8        1.0  0.49770  0.09320  0.27900  1.0000
  C   C1        1.0  0.53240  0.47610  0.08130  1.0000
  C   C2        1.0  0.53240  0.52390  0.58130  1.0000
  C   C3        1.0  0.03240  0.97610  0.08130  1.0000
  C   C4        1.0  0.03240  0.02390  0.58130  1.0000
  C   C5        1.0  0.35740  0.53250  0.07750  1.0000
  C   C6        1.0  0.35740  0.46750  0.57750  1.0000
  C   C7        1.0  0.85740  0.03250  0.07750  1.0000
  C   C8        1.0  0.85740  0.96750  0.57750  1.0000
  H   H9        1.0  0.37890  0.55360  0.12230  1.0000
  H   H10       1.0  0.37890  0.44640  0.62230  1.0000
  H   H11       1.0  0.87890  0.05360  0.12230  1.0000
  H   H12       1.0  0.87890  0.94640  0.62230  1.0000
  C   C9        1.0  0.42450  0.48540  0.04510  1.0000
  C   C10       1.0  0.42450  0.51460  0.54510  1.0000
  C   C11       1.0  0.92450  0.98540  0.04510  1.0000
  C   C12       1.0  0.92450  0.01460  0.54510  1.0000
  C   C13       1.0  0.38840  0.45200  0.97650  1.0000
  C   C14       1.0  0.38840  0.54800  0.47650  1.0000
  C   C15       1.0  0.88840  0.95200  0.97650  1.0000
  C   C16       1.0  0.88840  0.04800  0.47650  1.0000
  C   C17       1.0  0.28930  0.46480  0.94190  1.0000
  C   C18       1.0  0.28930  0.53520  0.44190  1.0000
  C   C19       1.0  0.78930  0.96480  0.94190  1.0000
  C   C20       1.0  0.78930  0.03520  0.44190  1.0000
  C   C21       1.0  0.22190  0.51550  0.97710  1.0000
  C   C22       1.0  0.22190  0.48450  0.47710  1.0000
  C   C23       1.0  0.72190  0.01550  0.97710  1.0000
  C   C24       1.0  0.72190  0.98450  0.47710  1.0000
  C   C25       1.0  0.25720  0.54900  0.04380  1.0000
  C   C26       1.0  0.25720  0.45100  0.54380  1.0000
  C   C27       1.0  0.75720  0.04900  0.04380  1.0000
  C   C28       1.0  0.75720  0.95100  0.54380  1.0000
  C   C29       1.0  0.19090  0.60020  0.07820  1.0000
  C   C30       1.0  0.19090  0.39980  0.57820  1.0000
  C   C31       1.0  0.69090  0.10020  0.07820  1.0000
  C   C32       1.0  0.69090  0.89980  0.57820  1.0000
  H   H13       1.0  0.21340  0.62110  0.12300  1.0000
  H   H14       1.0  0.21340  0.37890  0.62300  1.0000
  H   H15       1.0  0.71340  0.12110  0.12300  1.0000
  H   H16       1.0  0.71340  0.87890  0.62300  1.0000
  C   C33       1.0  0.09500  0.61780  0.04520  1.0000
  C   C34       1.0  0.09500  0.38220  0.54520  1.0000
  C   C35       1.0  0.59500  0.11780  0.04520  1.0000
  C   C36       1.0  0.59500  0.88220  0.54520  1.0000
  H   H17       1.0  0.05350  0.65360  0.06580  1.0000
  H   H18       1.0  0.05350  0.34640  0.56580  1.0000
  H   H19       1.0  0.55350  0.15360  0.06580  1.0000
  H   H20       1.0  0.55350  0.84640  0.56580  1.0000
  C   C37       1.0  0.06010  0.58190  0.98050  1.0000
  C   C38       1.0  0.06010  0.41810  0.48050  1.0000
  C   C39       1.0  0.56010  0.08190  0.98050  1.0000
  C   C40       1.0  0.56010  0.91810  0.48050  1.0000
  H   H21       1.0  0.99310  0.59150  0.95980  1.0000
  H   H22       1.0  0.99310  0.40850  0.45980  1.0000
  H   H23       1.0  0.49310  0.09150  0.95980  1.0000
  H   H24       1.0  0.49310  0.90850  0.45980  1.0000
  C   C41       1.0  0.11910  0.53380  0.94680  1.0000
  C   C42       1.0  0.11910  0.46620  0.44680  1.0000
  C   C43       1.0  0.61910  0.03380  0.94680  1.0000
  C   C44       1.0  0.61910  0.96620  0.44680  1.0000
  H   H25       1.0  0.09270  0.51200  0.90310  1.0000
  H   H26       1.0  0.09270  0.48800  0.40310  1.0000
  H   H27       1.0  0.59270  0.01200  0.90310  1.0000
  H   H28       1.0  0.59270  0.98800  0.40310  1.0000
  C   C45       1.0  0.96320  0.49830  0.68020  1.0000
  C   C46       1.0  0.96320  0.50170  0.18020  1.0000
  C   C47       1.0  0.46320  0.99830  0.68020  1.0000
  C   C48       1.0  0.46320  0.00170  0.18020  1.0000
  C   C49       1.0  0.13740  0.56010  0.68430  1.0000
  C   C50       1.0  0.13740  0.43990  0.18430  1.0000
  C   C51       1.0  0.63740  0.06010  0.68430  1.0000
  C   C52       1.0  0.63740  0.93990  0.18430  1.0000
  H   H29       1.0  0.11130  0.58800  0.64330  1.0000
  H   H30       1.0  0.11130  0.41200  0.14330  1.0000
  H   H31       1.0  0.61130  0.08800  0.64330  1.0000
  H   H32       1.0  0.61130  0.91200  0.14330  1.0000
  C   C53       1.0  0.07350  0.50650  0.71200  1.0000
  C   C54       1.0  0.07350  0.49350  0.21200  1.0000
  C   C55       1.0  0.57350  0.00650  0.71200  1.0000
  C   C56       1.0  0.57350  0.99350  0.21200  1.0000
  C   C57       1.0  0.11380  0.46280  0.77410  1.0000
  C   C58       1.0  0.11380  0.53720  0.27410  1.0000
  C   C59       1.0  0.61380  0.96280  0.77410  1.0000
  C   C60       1.0  0.61380  0.03720  0.27410  1.0000
  C   C61       1.0  0.21410  0.47440  0.80740  1.0000
  C   C62       1.0  0.21410  0.52560  0.30740  1.0000
  C   C63       1.0  0.71410  0.97440  0.80740  1.0000
  C   C64       1.0  0.71410  0.02560  0.30740  1.0000
  C   C65       1.0  0.27950  0.53180  0.77730  1.0000
  C   C66       1.0  0.27950  0.46820  0.27730  1.0000
  C   C67       1.0  0.77950  0.03180  0.77730  1.0000
  C   C68       1.0  0.77950  0.96820  0.27730  1.0000
  C   C69       1.0  0.23830  0.57560  0.71350  1.0000
  C   C70       1.0  0.23830  0.42440  0.21350  1.0000
  C   C71       1.0  0.73830  0.07560  0.71350  1.0000
  C   C72       1.0  0.73830  0.92440  0.21350  1.0000
  C   C73       1.0  0.30280  0.63040  0.68450  1.0000
  C   C74       1.0  0.30280  0.36960  0.18450  1.0000
  C   C75       1.0  0.80280  0.13040  0.68450  1.0000
  C   C76       1.0  0.80280  0.86960  0.18450  1.0000
  H   H33       1.0  0.27650  0.66020  0.64450  1.0000
  H   H34       1.0  0.27650  0.33980  0.14450  1.0000
  H   H35       1.0  0.77650  0.16020  0.64450  1.0000
  H   H36       1.0  0.77650  0.83980  0.14450  1.0000
  C   C77       1.0  0.40250  0.64140  0.71300  1.0000
  C   C78       1.0  0.40250  0.35860  0.21300  1.0000
  C   C79       1.0  0.90250  0.14140  0.71300  1.0000
  C   C80       1.0  0.90250  0.85860  0.21300  1.0000
  H   H37       1.0  0.44390  0.67680  0.69200  1.0000
  H   H38       1.0  0.44390  0.32320  0.19200  1.0000
  H   H39       1.0  0.94390  0.17680  0.69200  1.0000
  H   H40       1.0  0.94390  0.82320  0.19200  1.0000
  C   C81       1.0  0.44060  0.59910  0.77320  1.0000
  C   C82       1.0  0.44060  0.40090  0.27320  1.0000
  C   C83       1.0  0.94060  0.09910  0.77320  1.0000
  C   C84       1.0  0.94060  0.90090  0.27320  1.0000
  H   H41       1.0  0.50790  0.60780  0.79350  1.0000
  H   H42       1.0  0.50790  0.39220  0.29350  1.0000
  H   H43       1.0  0.00790  0.10780  0.79350  1.0000
  H   H44       1.0  0.00790  0.89220  0.29350  1.0000
  C   C85       1.0  0.38200  0.54440  0.80460  1.0000
  C   C86       1.0  0.38200  0.45560  0.30460  1.0000
  C   C87       1.0  0.88200  0.04440  0.80460  1.0000
  C   C88       1.0  0.88200  0.95560  0.30460  1.0000
  H   H45       1.0  0.41110  0.51550  0.84440  1.0000
  H   H46       1.0  0.41110  0.48450  0.34440  1.0000
  H   H47       1.0  0.91110  0.01550  0.84440  1.0000
  H   H48       1.0  0.91110  0.98450  0.34440  1.0000
  C   C89       1.0  0.25370  0.42350  0.87210  1.0000
  C   C90       1.0  0.25370  0.57650  0.37210  1.0000
  C   C91       1.0  0.75370  0.92350  0.87210  1.0000
  C   C92       1.0  0.75370  0.07650  0.37210  1.0000
  H   H49       1.0  0.20010  0.38550  0.87950  1.0000
  H   H50       1.0  0.20010  0.61450  0.37950  1.0000
  H   H51       1.0  0.70010  0.88550  0.87950  1.0000
  H   H52       1.0  0.70010  0.11450  0.37950  1.0000
  H   H53       1.0  0.31020  0.39100  0.86060  1.0000
  H   H54       1.0  0.31020  0.60900  0.36060  1.0000
  H   H55       1.0  0.81020  0.89100  0.86060  1.0000
  H   H56       1.0  0.81020  0.10900  0.36060  1.0000
  C   C93       1.0  0.79790  0.36980  0.00410  1.0000
  C   C94       1.0  0.79790  0.63020  0.50410  1.0000
  C   C95       1.0  0.29790  0.86980  0.00410  1.0000
  C   C96       1.0  0.29790  0.13020  0.50410  1.0000
  C   C97       1.0  0.74340  0.29780  0.98420  1.0000
  C   C98       1.0  0.74340  0.70220  0.48420  1.0000
  C   C99       1.0  0.24340  0.79780  0.98420  1.0000
  C   C100      1.0  0.24340  0.20220  0.48420  1.0000
  H   H57       1.0  0.68550  0.28510  0.00410  1.0000
  H   H58       1.0  0.68550  0.71490  0.50410  1.0000
  H   H59       1.0  0.18550  0.78510  0.00410  1.0000
  H   H60       1.0  0.18550  0.21490  0.50410  1.0000
  C   C101      1.0  0.77590  0.24450  0.93410  1.0000
  C   C102      1.0  0.77590  0.75550  0.43410  1.0000
  C   C103      1.0  0.27590  0.74450  0.93410  1.0000
  C   C104      1.0  0.27590  0.25550  0.43410  1.0000
  H   H61       1.0  0.74040  0.19610  0.92220  1.0000
  H   H62       1.0  0.74040  0.80390  0.42220  1.0000
  H   H63       1.0  0.24040  0.69610  0.92220  1.0000
  H   H64       1.0  0.24040  0.30390  0.42220  1.0000
  C   C105      1.0  0.85930  0.26320  0.90310  1.0000
  C   C106      1.0  0.85930  0.73680  0.40310  1.0000
  C   C107      1.0  0.35930  0.76320  0.90310  1.0000
  C   C108      1.0  0.35930  0.23680  0.40310  1.0000
  H   H65       1.0  0.87780  0.22910  0.86830  1.0000
  H   H66       1.0  0.87780  0.77090  0.36830  1.0000
  H   H67       1.0  0.37780  0.72910  0.86830  1.0000
  H   H68       1.0  0.37780  0.27090  0.36830  1.0000
  C   C109      1.0  0.91640  0.33270  0.92300  1.0000
  C   C110      1.0  0.91640  0.66730  0.42300  1.0000
  C   C111      1.0  0.41640  0.83270  0.92300  1.0000
  C   C112      1.0  0.41640  0.16730  0.42300  1.0000
  H   H69       1.0  0.97430  0.34430  0.90270  1.0000
  H   H70       1.0  0.97430  0.65570  0.40270  1.0000
  H   H71       1.0  0.47430  0.84430  0.90270  1.0000
  H   H72       1.0  0.47430  0.15570  0.40270  1.0000
  C   C113      1.0  0.88660  0.38540  0.97370  1.0000
  C   C114      1.0  0.88660  0.61460  0.47370  1.0000
  C   C115      1.0  0.38660  0.88540  0.97370  1.0000
  C   C116      1.0  0.38660  0.11460  0.47370  1.0000
  H   H73       1.0  0.92590  0.43140  0.98760  1.0000
  H   H74       1.0  0.92590  0.56860  0.48760  1.0000
  H   H75       1.0  0.42590  0.93140  0.98760  1.0000
  H   H76       1.0  0.42590  0.06860  0.48760  1.0000
  C   C117      1.0  0.74820  0.57510  0.04840  1.0000
  C   C118      1.0  0.74820  0.42490  0.54840  1.0000
  C   C119      1.0  0.24820  0.07510  0.04840  1.0000
  C   C120      1.0  0.24820  0.92490  0.54840  1.0000
  C   C121      1.0  0.66170  0.59480  0.99720  1.0000
  C   C122      1.0  0.66170  0.40520  0.49720  1.0000
  C   C123      1.0  0.16170  0.09480  0.99720  1.0000
  C   C124      1.0  0.16170  0.90520  0.49720  1.0000
  H   H77       1.0  0.61340  0.55530  0.98100  1.0000
  H   H78       1.0  0.61340  0.44470  0.48100  1.0000
  H   H79       1.0  0.11340  0.05530  0.98100  1.0000
  H   H80       1.0  0.11340  0.94470  0.48100  1.0000
  C   C125      1.0  0.65200  0.67470  0.97240  1.0000
  C   C126      1.0  0.65200  0.32530  0.47240  1.0000
  C   C127      1.0  0.15200  0.17470  0.97240  1.0000
  C   C128      1.0  0.15200  0.82530  0.47240  1.0000
  H   H81       1.0  0.59450  0.68880  0.94070  1.0000
  H   H82       1.0  0.59450  0.31120  0.44070  1.0000
  H   H83       1.0  0.09450  0.18880  0.94070  1.0000
  H   H84       1.0  0.09450  0.81120  0.44070  1.0000
  C   C129      1.0  0.72640  0.73520  0.99350  1.0000
  C   C130      1.0  0.72640  0.26480  0.49350  1.0000
  C   C131      1.0  0.22640  0.23520  0.99350  1.0000
  C   C132      1.0  0.22640  0.76480  0.49350  1.0000
  H   H85       1.0  0.71780  0.78880  0.97740  1.0000
  H   H86       1.0  0.71780  0.21120  0.47740  1.0000
  H   H87       1.0  0.21780  0.28880  0.97740  1.0000
  H   H88       1.0  0.21780  0.71120  0.47740  1.0000
  C   C133      1.0  0.81150  0.71210  0.03850  1.0000
  C   C134      1.0  0.81150  0.28790  0.53850  1.0000
  C   C135      1.0  0.31150  0.21210  0.03850  1.0000
  C   C136      1.0  0.31150  0.78790  0.53850  1.0000
  H   H89       1.0  0.86590  0.74830  0.04910  1.0000
  H   H90       1.0  0.86590  0.25170  0.54910  1.0000
  H   H91       1.0  0.36590  0.24830  0.04910  1.0000
  H   H92       1.0  0.36590  0.75170  0.54910  1.0000
  C   C137      1.0  0.81640  0.63480  0.06800  1.0000
  C   C138      1.0  0.81640  0.36520  0.56800  1.0000
  C   C139      1.0  0.31640  0.13480  0.06800  1.0000
  C   C140      1.0  0.31640  0.86520  0.56800  1.0000
  H   H93       1.0  0.87010  0.62330  0.10370  1.0000
  H   H94       1.0  0.87010  0.37670  0.60370  1.0000
  H   H95       1.0  0.37010  0.12330  0.10370  1.0000
  H   H96       1.0  0.37010  0.87670  0.60370  1.0000
  C   C141      1.0  0.74110  0.37980  0.17910  1.0000
  C   C142      1.0  0.74110  0.62020  0.67910  1.0000
  C   C143      1.0  0.24110  0.87980  0.17910  1.0000
  C   C144      1.0  0.24110  0.12020  0.67910  1.0000
  C   C145      1.0  0.77710  0.40210  0.24890  1.0000
  C   C146      1.0  0.77710  0.59790  0.74890  1.0000
  C   C147      1.0  0.27710  0.90210  0.24890  1.0000
  C   C148      1.0  0.27710  0.09790  0.74890  1.0000
  H   H97       1.0  0.81410  0.45030  0.25790  1.0000
  H   H98       1.0  0.81410  0.54970  0.75790  1.0000
  H   H99       1.0  0.31410  0.95030  0.25790  1.0000
  H   H100      1.0  0.31410  0.04970  0.75790  1.0000
  C   C149      1.0  0.75850  0.35320  0.30550  1.0000
  C   C150      1.0  0.75850  0.64680  0.80550  1.0000
  C   C151      1.0  0.25850  0.85320  0.30550  1.0000
  C   C152      1.0  0.25850  0.14680  0.80550  1.0000
  H   H101      1.0  0.78400  0.36820  0.35160  1.0000
  H   H102      1.0  0.78400  0.63180  0.85160  1.0000
  H   H103      1.0  0.28400  0.86820  0.35160  1.0000
  H   H104      1.0  0.28400  0.13180  0.85160  1.0000
  C   C153      1.0  0.70180  0.28200  0.29240  1.0000
  C   C154      1.0  0.70180  0.71800  0.79240  1.0000
  C   C155      1.0  0.20180  0.78200  0.29240  1.0000
  C   C156      1.0  0.20180  0.21800  0.79240  1.0000
  H   H105      1.0  0.68920  0.24940  0.32990  1.0000
  H   H106      1.0  0.68920  0.75060  0.82990  1.0000
  H   H107      1.0  0.18920  0.74940  0.32990  1.0000
  H   H108      1.0  0.18920  0.25060  0.82990  1.0000
  C   C157      1.0  0.66420  0.25910  0.22480  1.0000
  C   C158      1.0  0.66420  0.74090  0.72480  1.0000
  C   C159      1.0  0.16420  0.75910  0.22480  1.0000
  C   C160      1.0  0.16420  0.24090  0.72480  1.0000
  H   H109      1.0  0.62360  0.21260  0.21630  1.0000
  H   H110      1.0  0.62360  0.78740  0.71630  1.0000
  H   H111      1.0  0.12360  0.71260  0.21630  1.0000
  H   H112      1.0  0.12360  0.28740  0.71630  1.0000
  C   C161      1.0  0.68760  0.30680  0.16870  1.0000
  C   C162      1.0  0.68760  0.69320  0.66870  1.0000
  C   C163      1.0  0.18760  0.80680  0.16870  1.0000
  C   C164      1.0  0.18760  0.19320  0.66870  1.0000
  H   H113      1.0  0.66650  0.28890  0.12280  1.0000
  H   H114      1.0  0.66650  0.71110  0.62280  1.0000
  H   H115      1.0  0.16650  0.78890  0.12280  1.0000
  H   H116      1.0  0.16650  0.21110  0.62280  1.0000
