data_image0
_chemical_formula_structural       Zn12N32H16N8H16O48C24H8C24H8C24H8C16
_chemical_formula_sum              "Zn12 N40 H56 O48 C88"
_cell_length_a       19.309
_cell_length_b       18.583
_cell_length_c       15.4488
_cell_angle_alpha    90
_cell_angle_beta     91.726
_cell_angle_gamma    90

_space_group_name_H-M_alt    "P 1"
_space_group_IT_number       1

loop_
  _space_group_symop_operation_xyz
  'x, y, z'

loop_
  _atom_site_type_symbol
  _atom_site_label
  _atom_site_symmetry_multiplicity
  _atom_site_fract_x
  _atom_site_fract_y
  _atom_site_fract_z
  _atom_site_occupancy
  Zn  Zn1       1.0  0.40660  0.01267  0.48405  1.0000
  Zn  Zn2       1.0  0.59340  0.01267  0.01595  1.0000
  Zn  Zn3       1.0  0.90660  0.51267  0.48405  1.0000
  Zn  Zn4       1.0  0.09340  0.51267  0.01595  1.0000
  Zn  Zn5       1.0  0.59340  0.98733  0.51595  1.0000
  Zn  Zn6       1.0  0.40660  0.98733  0.98405  1.0000
  Zn  Zn7       1.0  0.09340  0.48733  0.51595  1.0000
  Zn  Zn8       1.0  0.90660  0.48733  0.98405  1.0000
  Zn  Zn9       1.0  0.50000  0.77542  0.25000  1.0000
  Zn  Zn10      1.0  0.00000  0.27542  0.25000  1.0000
  Zn  Zn11      1.0  0.50000  0.22458  0.75000  1.0000
  Zn  Zn12      1.0  0.00000  0.72458  0.75000  1.0000
  N   N1        1.0  0.46101  0.93263  0.43503  1.0000
  N   N2        1.0  0.53899  0.93263  0.06497  1.0000
  N   N3        1.0  0.96101  0.43263  0.43503  1.0000
  N   N4        1.0  0.03899  0.43263  0.06497  1.0000
  N   N5        1.0  0.53899  0.06737  0.56497  1.0000
  N   N6        1.0  0.46101  0.06737  0.93503  1.0000
  N   N7        1.0  0.03899  0.56737  0.56497  1.0000
  N   N8        1.0  0.96101  0.56737  0.93503  1.0000
  N   N9        1.0  0.53098  0.91742  0.45637  1.0000
  N   N10       1.0  0.46902  0.91742  0.04363  1.0000
  N   N11       1.0  0.03098  0.41742  0.45637  1.0000
  N   N12       1.0  0.96902  0.41742  0.04363  1.0000
  N   N13       1.0  0.46902  0.08258  0.54363  1.0000
  N   N14       1.0  0.53098  0.08258  0.95637  1.0000
  N   N15       1.0  0.96902  0.58258  0.54363  1.0000
  N   N16       1.0  0.03098  0.58258  0.95637  1.0000
  N   N17       1.0  0.49575  0.84258  0.35208  1.0000
  N   N18       1.0  0.50425  0.84258  0.14792  1.0000
  N   N19       1.0  0.99575  0.34258  0.35208  1.0000
  N   N20       1.0  0.00425  0.34258  0.14792  1.0000
  N   N21       1.0  0.50425  0.15742  0.64792  1.0000
  N   N22       1.0  0.49575  0.15742  0.85208  1.0000
  N   N23       1.0  0.00425  0.65742  0.64792  1.0000
  N   N24       1.0  0.99575  0.65742  0.85208  1.0000
  N   N25       1.0  0.38023  0.88320  0.33410  1.0000
  N   N26       1.0  0.61977  0.88320  0.16590  1.0000
  N   N27       1.0  0.88023  0.38320  0.33410  1.0000
  N   N28       1.0  0.11977  0.38320  0.16590  1.0000
  N   N29       1.0  0.61977  0.11680  0.66590  1.0000
  N   N30       1.0  0.38023  0.11680  0.83410  1.0000
  N   N31       1.0  0.11977  0.61680  0.66590  1.0000
  N   N32       1.0  0.88023  0.61680  0.83410  1.0000
  H   H1        1.0  0.34840  0.91270  0.34910  1.0000
  H   H2        1.0  0.65160  0.91270  0.15090  1.0000
  H   H3        1.0  0.84840  0.41270  0.34910  1.0000
  H   H4        1.0  0.15160  0.41270  0.15090  1.0000
  H   H5        1.0  0.65160  0.08730  0.65090  1.0000
  H   H6        1.0  0.34840  0.08730  0.84910  1.0000
  H   H7        1.0  0.15160  0.58730  0.65090  1.0000
  H   H8        1.0  0.84840  0.58730  0.84910  1.0000
  H   H9        1.0  0.37166  0.85191  0.29425  1.0000
  H   H10       1.0  0.62834  0.85191  0.20575  1.0000
  H   H11       1.0  0.87166  0.35191  0.29425  1.0000
  H   H12       1.0  0.12834  0.35191  0.20575  1.0000
  H   H13       1.0  0.62834  0.14809  0.70575  1.0000
  H   H14       1.0  0.37166  0.14809  0.79425  1.0000
  H   H15       1.0  0.12834  0.64809  0.70575  1.0000
  H   H16       1.0  0.87166  0.64809  0.79425  1.0000
  N   N33       1.0  0.61280  0.83590  0.40390  1.0000
  N   N34       1.0  0.38720  0.83590  0.09610  1.0000
  N   N35       1.0  0.11280  0.33590  0.40390  1.0000
  N   N36       1.0  0.88720  0.33590  0.09610  1.0000
  N   N37       1.0  0.38720  0.16410  0.59610  1.0000
  N   N38       1.0  0.61280  0.16410  0.90390  1.0000
  N   N39       1.0  0.88720  0.66410  0.59610  1.0000
  N   N40       1.0  0.11280  0.66410  0.90390  1.0000
  H   H17       1.0  0.64517  0.85248  0.43777  1.0000
  H   H18       1.0  0.35483  0.85248  0.06223  1.0000
  H   H19       1.0  0.14517  0.35248  0.43777  1.0000
  H   H20       1.0  0.85483  0.35248  0.06223  1.0000
  H   H21       1.0  0.35483  0.14752  0.56223  1.0000
  H   H22       1.0  0.64517  0.14752  0.93777  1.0000
  H   H23       1.0  0.85483  0.64752  0.56223  1.0000
  H   H24       1.0  0.14517  0.64752  0.93777  1.0000
  H   H25       1.0  0.62140  0.80108  0.36911  1.0000
  H   H26       1.0  0.37860  0.80108  0.13089  1.0000
  H   H27       1.0  0.12140  0.30108  0.36911  1.0000
  H   H28       1.0  0.87860  0.30108  0.13089  1.0000
  H   H29       1.0  0.37860  0.19892  0.63089  1.0000
  H   H30       1.0  0.62140  0.19892  0.86911  1.0000
  H   H31       1.0  0.87860  0.69892  0.63089  1.0000
  H   H32       1.0  0.12140  0.69892  0.86911  1.0000
  O   O1        1.0  0.35817  0.04889  0.38138  1.0000
  O   O2        1.0  0.64183  0.04889  0.11862  1.0000
  O   O3        1.0  0.85817  0.54889  0.38138  1.0000
  O   O4        1.0  0.14183  0.54889  0.11862  1.0000
  O   O5        1.0  0.64183  0.95111  0.61862  1.0000
  O   O6        1.0  0.35817  0.95111  0.88138  1.0000
  O   O7        1.0  0.14183  0.45111  0.61862  1.0000
  O   O8        1.0  0.85817  0.45111  0.88138  1.0000
  O   O9        1.0  0.29069  0.12570  0.44939  1.0000
  O   O10       1.0  0.70931  0.12570  0.05061  1.0000
  O   O11       1.0  0.79069  0.62570  0.44939  1.0000
  O   O12       1.0  0.20931  0.62570  0.05061  1.0000
  O   O13       1.0  0.70931  0.87430  0.55061  1.0000
  O   O14       1.0  0.29069  0.87430  0.94939  1.0000
  O   O15       1.0  0.20931  0.37430  0.55061  1.0000
  O   O16       1.0  0.79069  0.37430  0.94939  1.0000
  O   O17       1.0  0.35066  0.01953  0.07802  1.0000
  O   O18       1.0  0.64934  0.01953  0.42198  1.0000
  O   O19       1.0  0.85066  0.51953  0.07802  1.0000
  O   O20       1.0  0.14934  0.51953  0.42198  1.0000
  O   O21       1.0  0.64934  0.98047  0.92198  1.0000
  O   O22       1.0  0.35066  0.98047  0.57802  1.0000
  O   O23       1.0  0.14934  0.48047  0.92198  1.0000
  O   O24       1.0  0.85066  0.48047  0.57802  1.0000
  O   O25       1.0  0.27340  0.07200  0.99180  1.0000
  O   O26       1.0  0.72660  0.07200  0.50820  1.0000
  O   O27       1.0  0.77340  0.57200  0.99180  1.0000
  O   O28       1.0  0.22660  0.57200  0.50820  1.0000
  O   O29       1.0  0.72660  0.92800  0.00820  1.0000
  O   O30       1.0  0.27340  0.92800  0.49180  1.0000
  O   O31       1.0  0.22660  0.42800  0.00820  1.0000
  O   O32       1.0  0.77340  0.42800  0.49180  1.0000
  O   O33       1.0  0.06068  0.17160  0.14910  1.0000
  O   O34       1.0  0.93932  0.17160  0.35090  1.0000
  O   O35       1.0  0.56068  0.67160  0.14910  1.0000
  O   O36       1.0  0.43932  0.67160  0.35090  1.0000
  O   O37       1.0  0.93932  0.82840  0.85090  1.0000
  O   O38       1.0  0.06068  0.82840  0.64910  1.0000
  O   O39       1.0  0.43932  0.32840  0.85090  1.0000
  O   O40       1.0  0.56068  0.32840  0.64910  1.0000
  O   O41       1.0  0.09010  0.22879  0.26937  1.0000
  O   O42       1.0  0.90990  0.22879  0.23063  1.0000
  O   O43       1.0  0.59010  0.72879  0.26937  1.0000
  O   O44       1.0  0.40990  0.72879  0.23063  1.0000
  O   O45       1.0  0.90990  0.77121  0.73063  1.0000
  O   O46       1.0  0.09010  0.77121  0.76937  1.0000
  O   O47       1.0  0.40990  0.27121  0.73063  1.0000
  O   O48       1.0  0.59010  0.27121  0.76937  1.0000
  C   C1        1.0  0.30771  0.09320  0.38450  1.0000
  C   C2        1.0  0.69229  0.09320  0.11550  1.0000
  C   C3        1.0  0.80771  0.59320  0.38450  1.0000
  C   C4        1.0  0.19229  0.59320  0.11550  1.0000
  C   C5        1.0  0.69229  0.90680  0.61550  1.0000
  C   C6        1.0  0.30771  0.90680  0.88450  1.0000
  C   C7        1.0  0.19229  0.40680  0.61550  1.0000
  C   C8        1.0  0.80771  0.40680  0.88450  1.0000
  C   C9        1.0  0.26909  0.10320  0.29930  1.0000
  C   C10       1.0  0.73091  0.10320  0.20070  1.0000
  C   C11       1.0  0.76909  0.60320  0.29930  1.0000
  C   C12       1.0  0.23091  0.60320  0.20070  1.0000
  C   C13       1.0  0.73091  0.89680  0.70070  1.0000
  C   C14       1.0  0.26909  0.89680  0.79930  1.0000
  C   C15       1.0  0.23091  0.39680  0.70070  1.0000
  C   C16       1.0  0.76909  0.39680  0.79930  1.0000
  C   C17       1.0  0.29687  0.07540  0.22420  1.0000
  C   C18       1.0  0.70313  0.07540  0.27580  1.0000
  C   C19       1.0  0.79687  0.57540  0.22420  1.0000
  C   C20       1.0  0.20313  0.57540  0.27580  1.0000
  C   C21       1.0  0.70313  0.92460  0.77580  1.0000
  C   C22       1.0  0.29687  0.92460  0.72420  1.0000
  C   C23       1.0  0.20313  0.42460  0.77580  1.0000
  C   C24       1.0  0.79687  0.42460  0.72420  1.0000
  H   H33       1.0  0.33872  0.05064  0.22751  1.0000
  H   H34       1.0  0.66128  0.05064  0.27249  1.0000
  H   H35       1.0  0.83872  0.55064  0.22751  1.0000
  H   H36       1.0  0.16128  0.55064  0.27249  1.0000
  H   H37       1.0  0.66128  0.94936  0.77249  1.0000
  H   H38       1.0  0.33872  0.94936  0.72751  1.0000
  H   H39       1.0  0.16128  0.44936  0.77249  1.0000
  H   H40       1.0  0.83872  0.44936  0.72751  1.0000
  C   C25       1.0  0.26280  0.08420  0.14440  1.0000
  C   C26       1.0  0.73720  0.08420  0.35560  1.0000
  C   C27       1.0  0.76280  0.58420  0.14440  1.0000
  C   C28       1.0  0.23720  0.58420  0.35560  1.0000
  C   C29       1.0  0.73720  0.91580  0.85560  1.0000
  C   C30       1.0  0.26280  0.91580  0.64440  1.0000
  C   C31       1.0  0.23720  0.41580  0.85560  1.0000
  C   C32       1.0  0.76280  0.41580  0.64440  1.0000
  C   C33       1.0  0.29640  0.05580  0.06440  1.0000
  C   C34       1.0  0.70360  0.05580  0.43560  1.0000
  C   C35       1.0  0.79640  0.55580  0.06440  1.0000
  C   C36       1.0  0.20360  0.55580  0.43560  1.0000
  C   C37       1.0  0.70360  0.94420  0.93560  1.0000
  C   C38       1.0  0.29640  0.94420  0.56440  1.0000
  C   C39       1.0  0.20360  0.44420  0.93560  1.0000
  C   C40       1.0  0.79640  0.44420  0.56440  1.0000
  C   C41       1.0  0.19940  0.11940  0.14030  1.0000
  C   C42       1.0  0.80060  0.11940  0.35970  1.0000
  C   C43       1.0  0.69940  0.61940  0.14030  1.0000
  C   C44       1.0  0.30060  0.61940  0.35970  1.0000
  C   C45       1.0  0.80060  0.88060  0.85970  1.0000
  C   C46       1.0  0.19940  0.88060  0.64030  1.0000
  C   C47       1.0  0.30060  0.38060  0.85970  1.0000
  C   C48       1.0  0.69940  0.38060  0.64030  1.0000
  H   H41       1.0  0.17585  0.12461  0.08732  1.0000
  H   H42       1.0  0.82415  0.12461  0.41268  1.0000
  H   H43       1.0  0.67585  0.62461  0.08732  1.0000
  H   H44       1.0  0.32415  0.62461  0.41268  1.0000
  H   H45       1.0  0.82415  0.87539  0.91268  1.0000
  H   H46       1.0  0.17585  0.87539  0.58732  1.0000
  H   H47       1.0  0.32415  0.37539  0.91268  1.0000
  H   H48       1.0  0.67585  0.37539  0.58732  1.0000
  C   C49       1.0  0.17080  0.14690  0.21520  1.0000
  C   C50       1.0  0.82920  0.14690  0.28480  1.0000
  C   C51       1.0  0.67080  0.64690  0.21520  1.0000
  C   C52       1.0  0.32920  0.64690  0.28480  1.0000
  C   C53       1.0  0.82920  0.85310  0.78480  1.0000
  C   C54       1.0  0.17080  0.85310  0.71520  1.0000
  C   C55       1.0  0.32920  0.35310  0.78480  1.0000
  C   C56       1.0  0.67080  0.35310  0.71520  1.0000
  C   C57       1.0  0.10260  0.18430  0.21000  1.0000
  C   C58       1.0  0.89740  0.18430  0.29000  1.0000
  C   C59       1.0  0.60260  0.68430  0.21000  1.0000
  C   C60       1.0  0.39740  0.68430  0.29000  1.0000
  C   C61       1.0  0.89740  0.81570  0.79000  1.0000
  C   C62       1.0  0.10260  0.81570  0.71000  1.0000
  C   C63       1.0  0.39740  0.31570  0.79000  1.0000
  C   C64       1.0  0.60260  0.31570  0.71000  1.0000
  C   C65       1.0  0.20618  0.14010  0.29470  1.0000
  C   C66       1.0  0.79382  0.14010  0.20530  1.0000
  C   C67       1.0  0.70618  0.64010  0.29470  1.0000
  C   C68       1.0  0.29382  0.64010  0.20530  1.0000
  C   C69       1.0  0.79382  0.85990  0.70530  1.0000
  C   C70       1.0  0.20618  0.85990  0.79470  1.0000
  C   C71       1.0  0.29382  0.35990  0.70530  1.0000
  C   C72       1.0  0.70618  0.35990  0.79470  1.0000
  H   H49       1.0  0.18797  0.15999  0.34434  1.0000
  H   H50       1.0  0.81203  0.15999  0.15566  1.0000
  H   H51       1.0  0.68797  0.65999  0.34434  1.0000
  H   H52       1.0  0.31203  0.65999  0.15566  1.0000
  H   H53       1.0  0.81203  0.84001  0.65566  1.0000
  H   H54       1.0  0.18797  0.84001  0.84434  1.0000
  H   H55       1.0  0.31203  0.34001  0.65566  1.0000
  H   H56       1.0  0.68797  0.34001  0.84434  1.0000
  C   C73       1.0  0.44379  0.88620  0.37330  1.0000
  C   C74       1.0  0.55621  0.88620  0.12670  1.0000
  C   C75       1.0  0.94379  0.38620  0.37330  1.0000
  C   C76       1.0  0.05621  0.38620  0.12670  1.0000
  C   C77       1.0  0.55621  0.11380  0.62670  1.0000
  C   C78       1.0  0.44379  0.11380  0.87330  1.0000
  C   C79       1.0  0.05621  0.61380  0.62670  1.0000
  C   C80       1.0  0.94379  0.61380  0.87330  1.0000
  C   C81       1.0  0.54860  0.86430  0.40540  1.0000
  C   C82       1.0  0.45140  0.86430  0.09460  1.0000
  C   C83       1.0  0.04860  0.36430  0.40540  1.0000
  C   C84       1.0  0.95140  0.36430  0.09460  1.0000
  C   C85       1.0  0.45140  0.13570  0.59460  1.0000
  C   C86       1.0  0.54860  0.13570  0.90540  1.0000
  C   C87       1.0  0.95140  0.63570  0.59460  1.0000
  C   C88       1.0  0.04860  0.63570  0.90540  1.0000
