data_image0
_chemical_formula_structural       Zn12N32H16N8H16N32O32C24H8C24H8C24H8C16
_chemical_formula_sum              "Zn12 N72 H56 O32 C88"
_cell_length_a       19.55
_cell_length_b       18.2
_cell_length_c       17.24
_cell_angle_alpha    90
_cell_angle_beta     97.96
_cell_angle_gamma    90

_space_group_name_H-M_alt    "P 1"
_space_group_IT_number       1

loop_
  _space_group_symop_operation_xyz
  'x, y, z'

loop_
  _atom_site_type_symbol
  _atom_site_label
  _atom_site_symmetry_multiplicity
  _atom_site_fract_x
  _atom_site_fract_y
  _atom_site_fract_z
  _atom_site_occupancy
  Zn  Zn1       1.0  0.50000  0.29271  0.75000  1.0000
  Zn  Zn2       1.0  0.00000  0.79271  0.75000  1.0000
  Zn  Zn3       1.0  0.50000  0.70729  0.25000  1.0000
  Zn  Zn4       1.0  0.00000  0.20729  0.25000  1.0000
  Zn  Zn5       1.0  0.41101  0.52284  0.96436  1.0000
  Zn  Zn6       1.0  0.58899  0.52284  0.53564  1.0000
  Zn  Zn7       1.0  0.91101  0.02284  0.96436  1.0000
  Zn  Zn8       1.0  0.08899  0.02284  0.53564  1.0000
  Zn  Zn9       1.0  0.58899  0.47716  0.03564  1.0000
  Zn  Zn10      1.0  0.41101  0.47716  0.46436  1.0000
  Zn  Zn11      1.0  0.08899  0.97716  0.03564  1.0000
  Zn  Zn12      1.0  0.91101  0.97716  0.46436  1.0000
  N   N1        1.0  0.46790  0.44690  0.91730  1.0000
  N   N2        1.0  0.53210  0.44690  0.58270  1.0000
  N   N3        1.0  0.96790  0.94690  0.91730  1.0000
  N   N4        1.0  0.03210  0.94690  0.58270  1.0000
  N   N5        1.0  0.53210  0.55310  0.08270  1.0000
  N   N6        1.0  0.46790  0.55310  0.41730  1.0000
  N   N7        1.0  0.03210  0.05310  0.08270  1.0000
  N   N8        1.0  0.96790  0.05310  0.41730  1.0000
  N   N9        1.0  0.53340  0.42470  0.95050  1.0000
  N   N10       1.0  0.46660  0.42470  0.54950  1.0000
  N   N11       1.0  0.03340  0.92470  0.95050  1.0000
  N   N12       1.0  0.96660  0.92470  0.54950  1.0000
  N   N13       1.0  0.46660  0.57530  0.04950  1.0000
  N   N14       1.0  0.53340  0.57530  0.45050  1.0000
  N   N15       1.0  0.96660  0.07530  0.04950  1.0000
  N   N16       1.0  0.03340  0.07530  0.45050  1.0000
  N   N17       1.0  0.50210  0.36130  0.84170  1.0000
  N   N18       1.0  0.49790  0.36130  0.65830  1.0000
  N   N19       1.0  0.00210  0.86130  0.84170  1.0000
  N   N20       1.0  0.99790  0.86130  0.65830  1.0000
  N   N21       1.0  0.49790  0.63870  0.15830  1.0000
  N   N22       1.0  0.50210  0.63870  0.34170  1.0000
  N   N23       1.0  0.99790  0.13870  0.15830  1.0000
  N   N24       1.0  0.00210  0.13870  0.34170  1.0000
  N   N25       1.0  0.61040  0.33700  0.91220  1.0000
  N   N26       1.0  0.38960  0.33700  0.58780  1.0000
  N   N27       1.0  0.11040  0.83700  0.91220  1.0000
  N   N28       1.0  0.88960  0.83700  0.58780  1.0000
  N   N29       1.0  0.38960  0.66300  0.08780  1.0000
  N   N30       1.0  0.61040  0.66300  0.41220  1.0000
  N   N31       1.0  0.88960  0.16300  0.08780  1.0000
  N   N32       1.0  0.11040  0.16300  0.41220  1.0000
  H   H1        1.0  0.64127  0.34695  0.95131  1.0000
  H   H2        1.0  0.35873  0.34695  0.54869  1.0000
  H   H3        1.0  0.14127  0.84695  0.95131  1.0000
  H   H4        1.0  0.85873  0.84695  0.54869  1.0000
  H   H5        1.0  0.35873  0.65305  0.04869  1.0000
  H   H6        1.0  0.64127  0.65305  0.45131  1.0000
  H   H7        1.0  0.85873  0.15305  0.04869  1.0000
  H   H8        1.0  0.14127  0.15305  0.45131  1.0000
  H   H9        1.0  0.61813  0.30378  0.87902  1.0000
  H   H10       1.0  0.38187  0.30378  0.62098  1.0000
  H   H11       1.0  0.11813  0.80378  0.87902  1.0000
  H   H12       1.0  0.88187  0.80378  0.62098  1.0000
  H   H13       1.0  0.38187  0.69622  0.12098  1.0000
  H   H14       1.0  0.61813  0.69622  0.37902  1.0000
  H   H15       1.0  0.88187  0.19622  0.12098  1.0000
  H   H16       1.0  0.11813  0.19622  0.37902  1.0000
  N   N33       1.0  0.39280  0.41680  0.80510  1.0000
  N   N34       1.0  0.60720  0.41680  0.69490  1.0000
  N   N35       1.0  0.89280  0.91680  0.80510  1.0000
  N   N36       1.0  0.10720  0.91680  0.69490  1.0000
  N   N37       1.0  0.60720  0.58320  0.19490  1.0000
  N   N38       1.0  0.39280  0.58320  0.30510  1.0000
  N   N39       1.0  0.10720  0.08320  0.19490  1.0000
  N   N40       1.0  0.89280  0.08320  0.30510  1.0000
  H   H17       1.0  0.36139  0.44671  0.81576  1.0000
  H   H18       1.0  0.63861  0.44671  0.68424  1.0000
  H   H19       1.0  0.86139  0.94671  0.81576  1.0000
  H   H20       1.0  0.13861  0.94671  0.68424  1.0000
  H   H21       1.0  0.63861  0.55329  0.18424  1.0000
  H   H22       1.0  0.36139  0.55329  0.31576  1.0000
  H   H23       1.0  0.13861  0.05329  0.18424  1.0000
  H   H24       1.0  0.86139  0.05329  0.31576  1.0000
  H   H25       1.0  0.38611  0.39054  0.76326  1.0000
  H   H26       1.0  0.61389  0.39054  0.73674  1.0000
  H   H27       1.0  0.88611  0.89054  0.76326  1.0000
  H   H28       1.0  0.11389  0.89054  0.73674  1.0000
  H   H29       1.0  0.61389  0.60946  0.23674  1.0000
  H   H30       1.0  0.38611  0.60946  0.26326  1.0000
  H   H31       1.0  0.11389  0.10946  0.23674  1.0000
  H   H32       1.0  0.88611  0.10946  0.26326  1.0000
  N   N41       1.0  0.33230  0.52350  0.50780  1.0000
  N   N42       1.0  0.66770  0.52350  0.99220  1.0000
  N   N43       1.0  0.83230  0.02350  0.50780  1.0000
  N   N44       1.0  0.16770  0.02350  0.99220  1.0000
  N   N45       1.0  0.66770  0.47650  0.49220  1.0000
  N   N46       1.0  0.33230  0.47650  0.00780  1.0000
  N   N47       1.0  0.16770  0.97650  0.49220  1.0000
  N   N48       1.0  0.83230  0.97650  0.00780  1.0000
  N   N49       1.0  0.27420  0.54200  0.46510  1.0000
  N   N50       1.0  0.72580  0.54200  0.03490  1.0000
  N   N51       1.0  0.77420  0.04200  0.46510  1.0000
  N   N52       1.0  0.22580  0.04200  0.03490  1.0000
  N   N53       1.0  0.72580  0.45800  0.53490  1.0000
  N   N54       1.0  0.27420  0.45800  0.96510  1.0000
  N   N55       1.0  0.22580  0.95800  0.53490  1.0000
  N   N56       1.0  0.77420  0.95800  0.96510  1.0000
  N   N57       1.0  0.23440  0.57170  0.51670  1.0000
  N   N58       1.0  0.76560  0.57170  0.98330  1.0000
  N   N59       1.0  0.73440  0.07170  0.51670  1.0000
  N   N60       1.0  0.26560  0.07170  0.98330  1.0000
  N   N61       1.0  0.76560  0.42830  0.48330  1.0000
  N   N62       1.0  0.23440  0.42830  0.01670  1.0000
  N   N63       1.0  0.26560  0.92830  0.48330  1.0000
  N   N64       1.0  0.73440  0.92830  0.01670  1.0000
  N   N65       1.0  0.33340  0.54450  0.58060  1.0000
  N   N66       1.0  0.66660  0.54450  0.91940  1.0000
  N   N67       1.0  0.83340  0.04450  0.58060  1.0000
  N   N68       1.0  0.16660  0.04450  0.91940  1.0000
  N   N69       1.0  0.66660  0.45550  0.41940  1.0000
  N   N70       1.0  0.33340  0.45550  0.08060  1.0000
  N   N71       1.0  0.16660  0.95550  0.41940  1.0000
  N   N72       1.0  0.83340  0.95550  0.08060  1.0000
  O   O1        1.0  0.36710  0.56980  0.86970  1.0000
  O   O2        1.0  0.63290  0.56980  0.63030  1.0000
  O   O3        1.0  0.86710  0.06980  0.86970  1.0000
  O   O4        1.0  0.13290  0.06980  0.63030  1.0000
  O   O5        1.0  0.63290  0.43020  0.13030  1.0000
  O   O6        1.0  0.36710  0.43020  0.36970  1.0000
  O   O7        1.0  0.13290  0.93020  0.13030  1.0000
  O   O8        1.0  0.86710  0.93020  0.36970  1.0000
  O   O9        1.0  0.30600  0.64770  0.93090  1.0000
  O   O10       1.0  0.69400  0.64770  0.56910  1.0000
  O   O11       1.0  0.80600  0.14770  0.93090  1.0000
  O   O12       1.0  0.19400  0.14770  0.56910  1.0000
  O   O13       1.0  0.69400  0.35230  0.06910  1.0000
  O   O14       1.0  0.30600  0.35230  0.43090  1.0000
  O   O15       1.0  0.19400  0.85230  0.06910  1.0000
  O   O16       1.0  0.80600  0.85230  0.43090  1.0000
  O   O17       1.0  0.05450  0.69420  0.66060  1.0000
  O   O18       1.0  0.94550  0.69420  0.83940  1.0000
  O   O19       1.0  0.55450  0.19420  0.66060  1.0000
  O   O20       1.0  0.44550  0.19420  0.83940  1.0000
  O   O21       1.0  0.94550  0.30580  0.33940  1.0000
  O   O22       1.0  0.05450  0.30580  0.16060  1.0000
  O   O23       1.0  0.44550  0.80580  0.33940  1.0000
  O   O24       1.0  0.55450  0.80580  0.16060  1.0000
  O   O25       1.0  0.09260  0.74910  0.77240  1.0000
  O   O26       1.0  0.90740  0.74910  0.72760  1.0000
  O   O27       1.0  0.59260  0.24910  0.77240  1.0000
  O   O28       1.0  0.40740  0.24910  0.72760  1.0000
  O   O29       1.0  0.90740  0.25090  0.22760  1.0000
  O   O30       1.0  0.09260  0.25090  0.27240  1.0000
  O   O31       1.0  0.40740  0.75090  0.22760  1.0000
  O   O32       1.0  0.59260  0.75090  0.27240  1.0000
  C   C1        1.0  0.31840  0.61610  0.87180  1.0000
  C   C2        1.0  0.68160  0.61610  0.62820  1.0000
  C   C3        1.0  0.81840  0.11610  0.87180  1.0000
  C   C4        1.0  0.18160  0.11610  0.62820  1.0000
  C   C5        1.0  0.68160  0.38390  0.12820  1.0000
  C   C6        1.0  0.31840  0.38390  0.37180  1.0000
  C   C7        1.0  0.18160  0.88390  0.12820  1.0000
  C   C8        1.0  0.81840  0.88390  0.37180  1.0000
  C   C9        1.0  0.27290  0.62680  0.79370  1.0000
  C   C10       1.0  0.72710  0.62680  0.70630  1.0000
  C   C11       1.0  0.77290  0.12680  0.79370  1.0000
  C   C12       1.0  0.22710  0.12680  0.70630  1.0000
  C   C13       1.0  0.72710  0.37320  0.20630  1.0000
  C   C14       1.0  0.27290  0.37320  0.29370  1.0000
  C   C15       1.0  0.22710  0.87320  0.20630  1.0000
  C   C16       1.0  0.77290  0.87320  0.29370  1.0000
  C   C17       1.0  0.29060  0.59680  0.72810  1.0000
  C   C18       1.0  0.70940  0.59680  0.77190  1.0000
  C   C19       1.0  0.79060  0.09680  0.72810  1.0000
  C   C20       1.0  0.20940  0.09680  0.77190  1.0000
  C   C21       1.0  0.70940  0.40320  0.27190  1.0000
  C   C22       1.0  0.29060  0.40320  0.22810  1.0000
  C   C23       1.0  0.20940  0.90320  0.27190  1.0000
  C   C24       1.0  0.79060  0.90320  0.22810  1.0000
  H   H33       1.0  0.33170  0.57053  0.73091  1.0000
  H   H34       1.0  0.66830  0.57053  0.76909  1.0000
  H   H35       1.0  0.83170  0.07053  0.73091  1.0000
  H   H36       1.0  0.16830  0.07053  0.76909  1.0000
  H   H37       1.0  0.66830  0.42947  0.26909  1.0000
  H   H38       1.0  0.33170  0.42947  0.23091  1.0000
  H   H39       1.0  0.16830  0.92947  0.26909  1.0000
  H   H40       1.0  0.83170  0.92947  0.23091  1.0000
  C   C25       1.0  0.24950  0.60390  0.65690  1.0000
  C   C26       1.0  0.75050  0.60390  0.84310  1.0000
  C   C27       1.0  0.74950  0.10390  0.65690  1.0000
  C   C28       1.0  0.25050  0.10390  0.84310  1.0000
  C   C29       1.0  0.75050  0.39610  0.34310  1.0000
  C   C30       1.0  0.24950  0.39610  0.15690  1.0000
  C   C31       1.0  0.25050  0.89610  0.34310  1.0000
  C   C32       1.0  0.74950  0.89610  0.15690  1.0000
  C   C33       1.0  0.27110  0.57360  0.58650  1.0000
  C   C34       1.0  0.72890  0.57360  0.91350  1.0000
  C   C35       1.0  0.77110  0.07360  0.58650  1.0000
  C   C36       1.0  0.22890  0.07360  0.91350  1.0000
  C   C37       1.0  0.72890  0.42640  0.41350  1.0000
  C   C38       1.0  0.27110  0.42640  0.08650  1.0000
  C   C39       1.0  0.22890  0.92640  0.41350  1.0000
  C   C40       1.0  0.77110  0.92640  0.08650  1.0000
  C   C41       1.0  0.18600  0.63640  0.65660  1.0000
  C   C42       1.0  0.81400  0.63640  0.84340  1.0000
  C   C43       1.0  0.68600  0.13640  0.65660  1.0000
  C   C44       1.0  0.31400  0.13640  0.84340  1.0000
  C   C45       1.0  0.81400  0.36360  0.34340  1.0000
  C   C46       1.0  0.18600  0.36360  0.15660  1.0000
  C   C47       1.0  0.31400  0.86360  0.34340  1.0000
  C   C48       1.0  0.68600  0.86360  0.15660  1.0000
  H   H41       1.0  0.15531  0.63673  0.61035  1.0000
  H   H42       1.0  0.84469  0.63673  0.88965  1.0000
  H   H43       1.0  0.65531  0.13673  0.61035  1.0000
  H   H44       1.0  0.34469  0.13673  0.88965  1.0000
  H   H45       1.0  0.84469  0.36327  0.38965  1.0000
  H   H46       1.0  0.15531  0.36327  0.11035  1.0000
  H   H47       1.0  0.34469  0.86327  0.38965  1.0000
  H   H48       1.0  0.65531  0.86327  0.11035  1.0000
  C   C49       1.0  0.16640  0.66830  0.72190  1.0000
  C   C50       1.0  0.83360  0.66830  0.77810  1.0000
  C   C51       1.0  0.66640  0.16830  0.72190  1.0000
  C   C52       1.0  0.33360  0.16830  0.77810  1.0000
  C   C53       1.0  0.83360  0.33170  0.27810  1.0000
  C   C54       1.0  0.16640  0.33170  0.22190  1.0000
  C   C55       1.0  0.33360  0.83170  0.27810  1.0000
  C   C56       1.0  0.66640  0.83170  0.22190  1.0000
  C   C57       1.0  0.09920  0.70430  0.71700  1.0000
  C   C58       1.0  0.90080  0.70430  0.78300  1.0000
  C   C59       1.0  0.59920  0.20430  0.71700  1.0000
  C   C60       1.0  0.40080  0.20430  0.78300  1.0000
  C   C61       1.0  0.90080  0.29570  0.28300  1.0000
  C   C62       1.0  0.09920  0.29570  0.21700  1.0000
  C   C63       1.0  0.40080  0.79570  0.28300  1.0000
  C   C64       1.0  0.59920  0.79570  0.21700  1.0000
  C   C65       1.0  0.21040  0.66300  0.79120  1.0000
  C   C66       1.0  0.78960  0.66300  0.70880  1.0000
  C   C67       1.0  0.71040  0.16300  0.79120  1.0000
  C   C68       1.0  0.28960  0.16300  0.70880  1.0000
  C   C69       1.0  0.78960  0.33700  0.20880  1.0000
  C   C70       1.0  0.21040  0.33700  0.29120  1.0000
  C   C71       1.0  0.28960  0.83700  0.20880  1.0000
  C   C72       1.0  0.71040  0.83700  0.29120  1.0000
  H   H49       1.0  0.19819  0.68390  0.83660  1.0000
  H   H50       1.0  0.80181  0.68390  0.66340  1.0000
  H   H51       1.0  0.69819  0.18390  0.83660  1.0000
  H   H52       1.0  0.30181  0.18390  0.66340  1.0000
  H   H53       1.0  0.80181  0.31610  0.16340  1.0000
  H   H54       1.0  0.19819  0.31610  0.33660  1.0000
  H   H55       1.0  0.30181  0.81610  0.16340  1.0000
  H   H56       1.0  0.69819  0.81610  0.33660  1.0000
  C   C73       1.0  0.55130  0.37250  0.90320  1.0000
  C   C74       1.0  0.44870  0.37250  0.59680  1.0000
  C   C75       1.0  0.05130  0.87250  0.90320  1.0000
  C   C76       1.0  0.94870  0.87250  0.59680  1.0000
  C   C77       1.0  0.44870  0.62750  0.09680  1.0000
  C   C78       1.0  0.55130  0.62750  0.40320  1.0000
  C   C79       1.0  0.94870  0.12750  0.09680  1.0000
  C   C80       1.0  0.05130  0.12750  0.40320  1.0000
  C   C81       1.0  0.45210  0.41100  0.85360  1.0000
  C   C82       1.0  0.54790  0.41100  0.64640  1.0000
  C   C83       1.0  0.95210  0.91100  0.85360  1.0000
  C   C84       1.0  0.04790  0.91100  0.64640  1.0000
  C   C85       1.0  0.54790  0.58900  0.14640  1.0000
  C   C86       1.0  0.45210  0.58900  0.35360  1.0000
  C   C87       1.0  0.04790  0.08900  0.14640  1.0000
  C   C88       1.0  0.95210  0.08900  0.35360  1.0000
