data_image0
_chemical_formula_structural       Zn2V6Zn2V30O4N4H8C4H8C4H8N4H8O30N4H8C4H8C4H8N4H8O50
_chemical_formula_sum              "Zn4 V36 O84 N16 H64 C16"
_cell_length_a       12.5537
_cell_length_b       21.1451
_cell_length_c       15.892
_cell_angle_alpha    90
_cell_angle_beta     97.273
_cell_angle_gamma    90

_space_group_name_H-M_alt    "P 1"
_space_group_IT_number       1

loop_
  _space_group_symop_operation_xyz
  'x, y, z'

loop_
  _atom_site_type_symbol
  _atom_site_label
  _atom_site_symmetry_multiplicity
  _atom_site_fract_x
  _atom_site_fract_y
  _atom_site_fract_z
  _atom_site_occupancy
  Zn  Zn1       1.0  0.50000  0.00000  0.50000  1.0000
  Zn  Zn2       1.0  0.50000  0.50000  0.50000  1.0000
  V   V1        1.0  0.40188  0.25000  0.78088  1.0000
  V   V2        1.0  0.59812  0.75000  0.21912  1.0000
  V   V3        1.0  0.63688  0.25000  0.52620  1.0000
  V   V4        1.0  0.36312  0.75000  0.47380  1.0000
  V   V5        1.0  0.96101  0.25000  0.92200  1.0000
  V   V6        1.0  0.03899  0.75000  0.07800  1.0000
  Zn  Zn3       1.0  0.14929  0.25000  0.52876  1.0000
  Zn  Zn4       1.0  0.85071  0.75000  0.47124  1.0000
  V   V7        1.0  0.51959  0.12505  0.65490  1.0000
  V   V8        1.0  0.48041  0.62505  0.34510  1.0000
  V   V9        1.0  0.48041  0.87495  0.34510  1.0000
  V   V10       1.0  0.51959  0.37495  0.65490  1.0000
  V   V11       1.0  0.87550  0.25000  0.58399  1.0000
  V   V12       1.0  0.12450  0.75000  0.41601  1.0000
  V   V13       1.0  0.43482  0.25000  0.59954  1.0000
  V   V14       1.0  0.56518  0.75000  0.40046  1.0000
  V   V15       1.0  0.95711  0.16240  0.78454  1.0000
  V   V16       1.0  0.04289  0.66240  0.21546  1.0000
  V   V17       1.0  0.04289  0.83760  0.21546  1.0000
  V   V18       1.0  0.95711  0.33760  0.78454  1.0000
  V   V19       1.0  0.53852  0.25000  0.95289  1.0000
  V   V20       1.0  0.46148  0.75000  0.04711  1.0000
  V   V21       1.0  0.79554  0.16135  0.96567  1.0000
  V   V22       1.0  0.20446  0.66135  0.03433  1.0000
  V   V23       1.0  0.20446  0.83865  0.03433  1.0000
  V   V24       1.0  0.79554  0.33865  0.96567  1.0000
  V   V25       1.0  0.80956  0.12206  0.62884  1.0000
  V   V26       1.0  0.19044  0.62206  0.37116  1.0000
  V   V27       1.0  0.19044  0.87794  0.37116  1.0000
  V   V28       1.0  0.80956  0.37794  0.62884  1.0000
  V   V29       1.0  0.57036  0.12316  0.89090  1.0000
  V   V30       1.0  0.42964  0.62316  0.10910  1.0000
  V   V31       1.0  0.42964  0.87684  0.10910  1.0000
  V   V32       1.0  0.57036  0.37684  0.89090  1.0000
  V   V33       1.0  0.70623  0.07051  0.77112  1.0000
  V   V34       1.0  0.29377  0.57051  0.22888  1.0000
  V   V35       1.0  0.29377  0.92949  0.22888  1.0000
  V   V36       1.0  0.70623  0.42949  0.77112  1.0000
  O   O1        1.0  0.44880  0.06819  0.60470  1.0000
  O   O2        1.0  0.55120  0.56819  0.39530  1.0000
  O   O3        1.0  0.55120  0.93181  0.39530  1.0000
  O   O4        1.0  0.44880  0.43181  0.60470  1.0000
  N   N1        1.0  0.36100  0.03280  0.42630  1.0000
  N   N2        1.0  0.63900  0.53280  0.57370  1.0000
  N   N3        1.0  0.63900  0.96720  0.57370  1.0000
  N   N4        1.0  0.36100  0.46720  0.42630  1.0000
  H   H1        1.0  0.34270  0.00670  0.38220  1.0000
  H   H2        1.0  0.65730  0.50670  0.61780  1.0000
  H   H3        1.0  0.65730  0.99330  0.61780  1.0000
  H   H4        1.0  0.34270  0.49330  0.38220  1.0000
  H   H5        1.0  0.30620  0.03450  0.45760  1.0000
  H   H6        1.0  0.69380  0.53450  0.54240  1.0000
  H   H7        1.0  0.69380  0.96550  0.54240  1.0000
  H   H8        1.0  0.30620  0.46550  0.45760  1.0000
  C   C1        1.0  0.38410  0.09670  0.39540  1.0000
  C   C2        1.0  0.61590  0.59670  0.60460  1.0000
  C   C3        1.0  0.61590  0.90330  0.60460  1.0000
  C   C4        1.0  0.38410  0.40330  0.39540  1.0000
  H   H9        1.0  0.38040  0.12750  0.44010  1.0000
  H   H10       1.0  0.61960  0.62750  0.55990  1.0000
  H   H11       1.0  0.61960  0.87250  0.55990  1.0000
  H   H12       1.0  0.38040  0.37250  0.44010  1.0000
  H   H13       1.0  0.33150  0.10800  0.34770  1.0000
  H   H14       1.0  0.66850  0.60800  0.65230  1.0000
  H   H15       1.0  0.66850  0.89200  0.65230  1.0000
  H   H16       1.0  0.33150  0.39200  0.34770  1.0000
  C   C5        1.0  0.49520  0.09640  0.36860  1.0000
  C   C6        1.0  0.50480  0.59640  0.63140  1.0000
  C   C7        1.0  0.50480  0.90360  0.63140  1.0000
  C   C8        1.0  0.49520  0.40360  0.36860  1.0000
  H   H17       1.0  0.49750  0.06730  0.32160  1.0000
  H   H18       1.0  0.50250  0.56730  0.67840  1.0000
  H   H19       1.0  0.50250  0.93270  0.67840  1.0000
  H   H20       1.0  0.49750  0.43270  0.32160  1.0000
  H   H21       1.0  0.51290  0.13830  0.34990  1.0000
  H   H22       1.0  0.48710  0.63830  0.65010  1.0000
  H   H23       1.0  0.48710  0.86170  0.65010  1.0000
  H   H24       1.0  0.51290  0.36170  0.34990  1.0000
  N   N5        1.0  0.57350  0.07680  0.44070  1.0000
  N   N6        1.0  0.42650  0.57680  0.55930  1.0000
  N   N7        1.0  0.42650  0.92320  0.55930  1.0000
  N   N8        1.0  0.57350  0.42320  0.44070  1.0000
  H   H25       1.0  0.58800  0.10900  0.47740  1.0000
  H   H26       1.0  0.41200  0.60900  0.52260  1.0000
  H   H27       1.0  0.41200  0.89100  0.52260  1.0000
  H   H28       1.0  0.58800  0.39100  0.47740  1.0000
  H   H29       1.0  0.63520  0.06410  0.42260  1.0000
  H   H30       1.0  0.36480  0.56410  0.57740  1.0000
  H   H31       1.0  0.36480  0.93590  0.57740  1.0000
  H   H32       1.0  0.63520  0.43590  0.42260  1.0000
  O   O5        1.0  0.27420  0.25000  0.78900  1.0000
  O   O6        1.0  0.72580  0.75000  0.21100  1.0000
  O   O7        1.0  0.42430  0.19002  0.69090  1.0000
  O   O8        1.0  0.57570  0.69002  0.30910  1.0000
  O   O9        1.0  0.57570  0.80998  0.30910  1.0000
  O   O10       1.0  0.42430  0.30998  0.69090  1.0000
  O   O11       1.0  0.47160  0.19103  0.86650  1.0000
  O   O12       1.0  0.52840  0.69103  0.13350  1.0000
  O   O13       1.0  0.52840  0.80897  0.13350  1.0000
  O   O14       1.0  0.47160  0.30897  0.86650  1.0000
  O   O15       1.0  0.91260  0.16427  0.89580  1.0000
  O   O16       1.0  0.08740  0.66427  0.10420  1.0000
  O   O17       1.0  0.08740  0.83573  0.10420  1.0000
  O   O18       1.0  0.91260  0.33573  0.89580  1.0000
  O   O19       1.0  0.60900  0.25000  0.42410  1.0000
  O   O20       1.0  0.39100  0.75000  0.57590  1.0000
  O   O21       1.0  0.54120  0.18994  0.57170  1.0000
  O   O22       1.0  0.45880  0.68994  0.42830  1.0000
  O   O23       1.0  0.45880  0.81006  0.42830  1.0000
  O   O24       1.0  0.54120  0.31006  0.57170  1.0000
  O   O25       1.0  0.75560  0.19131  0.55620  1.0000
  O   O26       1.0  0.24440  0.69131  0.44380  1.0000
  O   O27       1.0  0.24440  0.80869  0.44380  1.0000
  O   O28       1.0  0.75560  0.30869  0.55620  1.0000
  O   O29       1.0  0.07080  0.25000  0.98800  1.0000
  O   O30       1.0  0.92920  0.75000  0.01200  1.0000
  O   O31       1.0  0.83530  0.25000  0.98120  1.0000
  O   O32       1.0  0.16470  0.75000  0.01880  1.0000
  O   O33       1.0  0.98810  0.25000  0.80500  1.0000
  O   O34       1.0  0.01190  0.75000  0.19500  1.0000
  N   N9        1.0  0.12860  0.17280  0.44240  1.0000
  N   N10       1.0  0.87140  0.67280  0.55760  1.0000
  N   N11       1.0  0.87140  0.82720  0.55760  1.0000
  N   N12       1.0  0.12860  0.32720  0.44240  1.0000
  H   H33       1.0  0.07300  0.18030  0.40210  1.0000
  H   H34       1.0  0.92700  0.68030  0.59790  1.0000
  H   H35       1.0  0.92700  0.81970  0.59790  1.0000
  H   H36       1.0  0.07300  0.31970  0.40210  1.0000
  H   H37       1.0  0.18810  0.16760  0.41690  1.0000
  H   H38       1.0  0.81190  0.66760  0.58310  1.0000
  H   H39       1.0  0.81190  0.83240  0.58310  1.0000
  H   H40       1.0  0.18810  0.33240  0.41690  1.0000
  C   C9        1.0  0.10820  0.11580  0.48970  1.0000
  C   C10       1.0  0.89180  0.61580  0.51030  1.0000
  C   C11       1.0  0.89180  0.88420  0.51030  1.0000
  C   C12       1.0  0.10820  0.38420  0.48970  1.0000
  H   H41       1.0  0.12630  0.07870  0.45860  1.0000
  H   H42       1.0  0.87370  0.57870  0.54140  1.0000
  H   H43       1.0  0.87370  0.92130  0.54140  1.0000
  H   H44       1.0  0.12630  0.42130  0.45860  1.0000
  H   H45       1.0  0.03260  0.11350  0.49660  1.0000
  H   H46       1.0  0.96740  0.61350  0.50340  1.0000
  H   H47       1.0  0.96740  0.88650  0.50340  1.0000
  H   H48       1.0  0.03260  0.38650  0.49660  1.0000
  C   C13       1.0  0.17400  0.11690  0.57470  1.0000
  C   C14       1.0  0.82600  0.61690  0.42530  1.0000
  C   C15       1.0  0.82600  0.88310  0.42530  1.0000
  C   C16       1.0  0.17400  0.38310  0.57470  1.0000
  H   H49       1.0  0.15400  0.08150  0.60820  1.0000
  H   H50       1.0  0.84600  0.58150  0.39180  1.0000
  H   H51       1.0  0.84600  0.91850  0.39180  1.0000
  H   H52       1.0  0.15400  0.41850  0.60820  1.0000
  H   H53       1.0  0.24930  0.11250  0.56790  1.0000
  H   H54       1.0  0.75070  0.61250  0.43210  1.0000
  H   H55       1.0  0.75070  0.88750  0.43210  1.0000
  H   H56       1.0  0.24930  0.38750  0.56790  1.0000
  N   N13       1.0  0.15790  0.17570  0.61890  1.0000
  N   N14       1.0  0.84210  0.67570  0.38110  1.0000
  N   N15       1.0  0.84210  0.82430  0.38110  1.0000
  N   N16       1.0  0.15790  0.32430  0.61890  1.0000
  H   H57       1.0  0.21290  0.18240  0.66000  1.0000
  H   H58       1.0  0.78710  0.68240  0.34000  1.0000
  H   H59       1.0  0.78710  0.81760  0.34000  1.0000
  H   H60       1.0  0.21290  0.31760  0.66000  1.0000
  H   H61       1.0  0.09670  0.17390  0.64280  1.0000
  H   H62       1.0  0.90330  0.67390  0.35720  1.0000
  H   H63       1.0  0.90330  0.82610  0.35720  1.0000
  H   H64       1.0  0.09670  0.32610  0.64280  1.0000
  O   O35       1.0  0.32610  0.25000  0.52820  1.0000
  O   O36       1.0  0.67390  0.75000  0.47180  1.0000
  O   O37       1.0  0.55890  0.10009  0.77360  1.0000
  O   O38       1.0  0.44110  0.60009  0.22640  1.0000
  O   O39       1.0  0.44110  0.89991  0.22640  1.0000
  O   O40       1.0  0.55890  0.39991  0.77360  1.0000
  O   O41       1.0  0.95660  0.25000  0.51010  1.0000
  O   O42       1.0  0.04340  0.75000  0.48990  1.0000
  O   O43       1.0  0.92270  0.18365  0.66410  1.0000
  O   O44       1.0  0.07730  0.68365  0.33590  1.0000
  O   O45       1.0  0.07730  0.81635  0.33590  1.0000
  O   O46       1.0  0.92270  0.31635  0.66410  1.0000
  O   O47       1.0  0.06870  0.12340  0.79100  1.0000
  O   O48       1.0  0.93130  0.62340  0.20900  1.0000
  O   O49       1.0  0.93130  0.87660  0.20900  1.0000
  O   O50       1.0  0.06870  0.37660  0.79100  1.0000
  O   O51       1.0  0.84350  0.10337  0.75020  1.0000
  O   O52       1.0  0.15650  0.60337  0.24980  1.0000
  O   O53       1.0  0.15650  0.89663  0.24980  1.0000
  O   O54       1.0  0.84350  0.39663  0.75020  1.0000
  O   O55       1.0  0.46960  0.25000  0.03200  1.0000
  O   O56       1.0  0.53040  0.75000  0.96800  1.0000
  O   O57       1.0  0.64470  0.18444  0.96990  1.0000
  O   O58       1.0  0.35530  0.68444  0.03010  1.0000
  O   O59       1.0  0.35530  0.81556  0.03010  1.0000
  O   O60       1.0  0.64470  0.31556  0.96990  1.0000
  O   O61       1.0  0.83850  0.12520  0.05380  1.0000
  O   O62       1.0  0.16150  0.62520  0.94620  1.0000
  O   O63       1.0  0.16150  0.87480  0.94620  1.0000
  O   O64       1.0  0.83850  0.37480  0.05380  1.0000
  O   O65       1.0  0.72070  0.10072  0.88650  1.0000
  O   O66       1.0  0.27930  0.60072  0.11350  1.0000
  O   O67       1.0  0.27930  0.89928  0.11350  1.0000
  O   O68       1.0  0.72070  0.39928  0.88650  1.0000
  O   O69       1.0  0.85440  0.06540  0.57220  1.0000
  O   O70       1.0  0.14560  0.56540  0.42780  1.0000
  O   O71       1.0  0.14560  0.93460  0.42780  1.0000
  O   O72       1.0  0.85440  0.43460  0.57220  1.0000
  O   O73       1.0  0.66850  0.09985  0.65460  1.0000
  O   O74       1.0  0.33150  0.59985  0.34540  1.0000
  O   O75       1.0  0.33150  0.90015  0.34540  1.0000
  O   O76       1.0  0.66850  0.40015  0.65460  1.0000
  O   O77       1.0  0.51270  0.06940  0.94320  1.0000
  O   O78       1.0  0.48730  0.56940  0.05680  1.0000
  O   O79       1.0  0.48730  0.93060  0.05680  1.0000
  O   O80       1.0  0.51270  0.43060  0.94320  1.0000
  O   O81       1.0  0.71230  0.99330  0.77150  1.0000
  O   O82       1.0  0.28770  0.49330  0.22850  1.0000
  O   O83       1.0  0.28770  0.00670  0.22850  1.0000
  O   O84       1.0  0.71230  0.50670  0.77150  1.0000
