data_image0
_chemical_formula_structural       Fe4C24O48K4
_chemical_formula_sum              "Fe4 C24 O48 K4"
_cell_length_a       10.226
_cell_length_b       19.9234
_cell_length_c       35.9064
_cell_angle_alpha    90
_cell_angle_beta     93.3664
_cell_angle_gamma    90

_space_group_name_H-M_alt    "P 1"
_space_group_IT_number       1

loop_
  _space_group_symop_operation_xyz
  'x, y, z'

loop_
  _atom_site_type_symbol
  _atom_site_label
  _atom_site_symmetry_multiplicity
  _atom_site_fract_x
  _atom_site_fract_y
  _atom_site_fract_z
  _atom_site_occupancy
  Fe  Fe1       1.0  0.00000  0.08757  0.25000  1.0000
  Fe  Fe2       1.0  0.50000  0.58757  0.25000  1.0000
  Fe  Fe3       1.0  0.00000  0.91243  0.75000  1.0000
  Fe  Fe4       1.0  0.50000  0.41243  0.75000  1.0000
  C   C1        1.0  0.04580  0.22480  0.26814  1.0000
  C   C2        1.0  0.95420  0.22480  0.23186  1.0000
  C   C3        1.0  0.54580  0.72480  0.26814  1.0000
  C   C4        1.0  0.45420  0.72480  0.23186  1.0000
  C   C5        1.0  0.95420  0.77520  0.73186  1.0000
  C   C6        1.0  0.04580  0.77520  0.76814  1.0000
  C   C7        1.0  0.45420  0.27520  0.73186  1.0000
  C   C8        1.0  0.54580  0.27520  0.76814  1.0000
  C   C9        1.0  0.76870  0.02530  0.27169  1.0000
  C   C10       1.0  0.23130  0.02530  0.22831  1.0000
  C   C11       1.0  0.26870  0.52530  0.27169  1.0000
  C   C12       1.0  0.73130  0.52530  0.22831  1.0000
  C   C13       1.0  0.23130  0.97470  0.72831  1.0000
  C   C14       1.0  0.76870  0.97470  0.77169  1.0000
  C   C15       1.0  0.73130  0.47470  0.72831  1.0000
  C   C16       1.0  0.26870  0.47470  0.77169  1.0000
  C   C17       1.0  0.78790  0.00050  0.23126  1.0000
  C   C18       1.0  0.21210  0.00050  0.26874  1.0000
  C   C19       1.0  0.28790  0.50050  0.23126  1.0000
  C   C20       1.0  0.71210  0.50050  0.26874  1.0000
  C   C21       1.0  0.21210  0.99950  0.76874  1.0000
  C   C22       1.0  0.78790  0.99950  0.73126  1.0000
  C   C23       1.0  0.71210  0.49950  0.76874  1.0000
  C   C24       1.0  0.28790  0.49950  0.73126  1.0000
  O   O1        1.0  0.07200  0.16590  0.28068  1.0000
  O   O2        1.0  0.92800  0.16590  0.21932  1.0000
  O   O3        1.0  0.57200  0.66590  0.28068  1.0000
  O   O4        1.0  0.42800  0.66590  0.21932  1.0000
  O   O5        1.0  0.92800  0.83410  0.71932  1.0000
  O   O6        1.0  0.07200  0.83410  0.78068  1.0000
  O   O7        1.0  0.42800  0.33410  0.71932  1.0000
  O   O8        1.0  0.57200  0.33410  0.78068  1.0000
  O   O9        1.0  0.08270  0.27800  0.28194  1.0000
  O   O10       1.0  0.91730  0.27800  0.21806  1.0000
  O   O11       1.0  0.58270  0.77800  0.28194  1.0000
  O   O12       1.0  0.41730  0.77800  0.21806  1.0000
  O   O13       1.0  0.91730  0.72200  0.71806  1.0000
  O   O14       1.0  0.08270  0.72200  0.78194  1.0000
  O   O15       1.0  0.41730  0.22200  0.71806  1.0000
  O   O16       1.0  0.58270  0.22200  0.78194  1.0000
  O   O17       1.0  0.85140  0.06990  0.28332  1.0000
  O   O18       1.0  0.14860  0.06990  0.21668  1.0000
  O   O19       1.0  0.35140  0.56990  0.28332  1.0000
  O   O20       1.0  0.64860  0.56990  0.21668  1.0000
  O   O21       1.0  0.14860  0.93010  0.71668  1.0000
  O   O22       1.0  0.85140  0.93010  0.78332  1.0000
  O   O23       1.0  0.64860  0.43010  0.71668  1.0000
  O   O24       1.0  0.35140  0.43010  0.78332  1.0000
  O   O25       1.0  0.89240  0.02347  0.21753  1.0000
  O   O26       1.0  0.10760  0.02347  0.28247  1.0000
  O   O27       1.0  0.39240  0.52347  0.21753  1.0000
  O   O28       1.0  0.60760  0.52347  0.28247  1.0000
  O   O29       1.0  0.10760  0.97653  0.78247  1.0000
  O   O30       1.0  0.89240  0.97653  0.71753  1.0000
  O   O31       1.0  0.60760  0.47653  0.78247  1.0000
  O   O32       1.0  0.39240  0.47653  0.71753  1.0000
  O   O33       1.0  0.68120  0.00081  0.28915  1.0000
  O   O34       1.0  0.31880  0.00081  0.21085  1.0000
  O   O35       1.0  0.18120  0.50081  0.28915  1.0000
  O   O36       1.0  0.81880  0.50081  0.21085  1.0000
  O   O37       1.0  0.31880  0.99919  0.71085  1.0000
  O   O38       1.0  0.68120  0.99919  0.78915  1.0000
  O   O39       1.0  0.81880  0.49919  0.71085  1.0000
  O   O40       1.0  0.18120  0.49919  0.78915  1.0000
  O   O41       1.0  0.70720  0.96305  0.21556  1.0000
  O   O42       1.0  0.29280  0.96305  0.28444  1.0000
  O   O43       1.0  0.20720  0.46305  0.21556  1.0000
  O   O44       1.0  0.79280  0.46305  0.28444  1.0000
  O   O45       1.0  0.29280  0.03695  0.78444  1.0000
  O   O46       1.0  0.70720  0.03695  0.71556  1.0000
  O   O47       1.0  0.79280  0.53695  0.78444  1.0000
  O   O48       1.0  0.20720  0.53695  0.71556  1.0000
  K   K1        1.0  0.50000  0.90621  0.25000  1.0000
  K   K2        1.0  0.00000  0.40621  0.25000  1.0000
  K   K3        1.0  0.50000  0.09379  0.75000  1.0000
  K   K4        1.0  0.00000  0.59379  0.75000  1.0000
