data_image0
_chemical_formula_structural       Fe4C24O48K4
_chemical_formula_sum              "Fe4 C24 O48 K4"
_cell_length_a       10.1637
_cell_length_b       19.7251
_cell_length_c       35.6405
_cell_angle_alpha    90
_cell_angle_beta     93.895
_cell_angle_gamma    90

_space_group_name_H-M_alt    "P 1"
_space_group_IT_number       1

loop_
  _space_group_symop_operation_xyz
  'x, y, z'

loop_
  _atom_site_type_symbol
  _atom_site_label
  _atom_site_symmetry_multiplicity
  _atom_site_fract_x
  _atom_site_fract_y
  _atom_site_fract_z
  _atom_site_occupancy
  Fe  Fe1       1.0  0.00000  0.08345  0.25000  1.0000
  Fe  Fe2       1.0  0.50000  0.58345  0.25000  1.0000
  Fe  Fe3       1.0  0.00000  0.91655  0.75000  1.0000
  Fe  Fe4       1.0  0.50000  0.41655  0.75000  1.0000
  C   C1        1.0  0.04730  0.22167  0.26842  1.0000
  C   C2        1.0  0.95270  0.22167  0.23158  1.0000
  C   C3        1.0  0.54730  0.72167  0.26842  1.0000
  C   C4        1.0  0.45270  0.72167  0.23158  1.0000
  C   C5        1.0  0.95270  0.77833  0.73158  1.0000
  C   C6        1.0  0.04730  0.77833  0.76842  1.0000
  C   C7        1.0  0.45270  0.27833  0.73158  1.0000
  C   C8        1.0  0.54730  0.27833  0.76842  1.0000
  C   C9        1.0  0.76940  0.01977  0.27212  1.0000
  C   C10       1.0  0.23060  0.01977  0.22788  1.0000
  C   C11       1.0  0.26940  0.51977  0.27212  1.0000
  C   C12       1.0  0.73060  0.51977  0.22788  1.0000
  C   C13       1.0  0.23060  0.98023  0.72788  1.0000
  C   C14       1.0  0.76940  0.98023  0.77212  1.0000
  C   C15       1.0  0.73060  0.48023  0.72788  1.0000
  C   C16       1.0  0.26940  0.48023  0.77212  1.0000
  C   C17       1.0  0.78690  0.99503  0.23119  1.0000
  C   C18       1.0  0.21310  0.99503  0.26881  1.0000
  C   C19       1.0  0.28690  0.49503  0.23119  1.0000
  C   C20       1.0  0.71310  0.49503  0.26881  1.0000
  C   C21       1.0  0.21310  0.00497  0.76881  1.0000
  C   C22       1.0  0.78690  0.00497  0.73119  1.0000
  C   C23       1.0  0.71310  0.50497  0.76881  1.0000
  C   C24       1.0  0.28690  0.50497  0.73119  1.0000
  O   O1        1.0  0.07467  0.16201  0.28102  1.0000
  O   O2        1.0  0.92533  0.16201  0.21898  1.0000
  O   O3        1.0  0.57467  0.66201  0.28102  1.0000
  O   O4        1.0  0.42533  0.66201  0.21898  1.0000
  O   O5        1.0  0.92533  0.83799  0.71898  1.0000
  O   O6        1.0  0.07467  0.83799  0.78102  1.0000
  O   O7        1.0  0.42533  0.33799  0.71898  1.0000
  O   O8        1.0  0.57467  0.33799  0.78102  1.0000
  O   O9        1.0  0.08625  0.27578  0.28204  1.0000
  O   O10       1.0  0.91375  0.27578  0.21796  1.0000
  O   O11       1.0  0.58625  0.77578  0.28204  1.0000
  O   O12       1.0  0.41375  0.77578  0.21796  1.0000
  O   O13       1.0  0.91375  0.72422  0.71796  1.0000
  O   O14       1.0  0.08625  0.72422  0.78204  1.0000
  O   O15       1.0  0.41375  0.22422  0.71796  1.0000
  O   O16       1.0  0.58625  0.22422  0.78204  1.0000
  O   O17       1.0  0.85227  0.06584  0.28374  1.0000
  O   O18       1.0  0.14773  0.06584  0.21626  1.0000
  O   O19       1.0  0.35227  0.56584  0.28374  1.0000
  O   O20       1.0  0.64773  0.56584  0.21626  1.0000
  O   O21       1.0  0.14773  0.93416  0.71626  1.0000
  O   O22       1.0  0.85227  0.93416  0.78374  1.0000
  O   O23       1.0  0.64773  0.43416  0.71626  1.0000
  O   O24       1.0  0.35227  0.43416  0.78374  1.0000
  O   O25       1.0  0.89113  0.01797  0.21727  1.0000
  O   O26       1.0  0.10887  0.01797  0.28273  1.0000
  O   O27       1.0  0.39113  0.51797  0.21727  1.0000
  O   O28       1.0  0.60887  0.51797  0.28273  1.0000
  O   O29       1.0  0.10887  0.98203  0.78273  1.0000
  O   O30       1.0  0.89113  0.98203  0.71727  1.0000
  O   O31       1.0  0.60887  0.48203  0.78273  1.0000
  O   O32       1.0  0.39113  0.48203  0.71727  1.0000
  O   O33       1.0  0.68299  0.99447  0.29002  1.0000
  O   O34       1.0  0.31701  0.99447  0.20998  1.0000
  O   O35       1.0  0.18299  0.49447  0.29002  1.0000
  O   O36       1.0  0.81701  0.49447  0.20998  1.0000
  O   O37       1.0  0.31701  0.00553  0.70998  1.0000
  O   O38       1.0  0.68299  0.00553  0.79002  1.0000
  O   O39       1.0  0.81701  0.50553  0.70998  1.0000
  O   O40       1.0  0.18299  0.50553  0.79002  1.0000
  O   O41       1.0  0.70508  0.95701  0.21553  1.0000
  O   O42       1.0  0.29492  0.95701  0.28447  1.0000
  O   O43       1.0  0.20508  0.45701  0.21553  1.0000
  O   O44       1.0  0.79492  0.45701  0.28447  1.0000
  O   O45       1.0  0.29492  0.04299  0.78447  1.0000
  O   O46       1.0  0.70508  0.04299  0.71553  1.0000
  O   O47       1.0  0.79492  0.54299  0.78447  1.0000
  O   O48       1.0  0.20508  0.54299  0.71553  1.0000
  K   K1        1.0  0.50000  0.90166  0.25000  1.0000
  K   K2        1.0  0.00000  0.40166  0.25000  1.0000
  K   K3        1.0  0.50000  0.09834  0.75000  1.0000
  K   K4        1.0  1.00000  0.59834  0.75000  1.0000
