data_image0
_chemical_formula_structural       C2Cd3C6H2C4H2C4H2C6H2C4H2C4H2C2F4O18H4
_chemical_formula_sum              "C32 Cd3 H16 F4 O18"
_cell_length_a       9.7958
_cell_length_b       11.9927
_cell_length_c       13.362
_cell_angle_alpha    114.579
_cell_angle_beta     91.172
_cell_angle_gamma    91.63

_space_group_name_H-M_alt    "P 1"
_space_group_IT_number       1

loop_
  _space_group_symop_operation_xyz
  'x, y, z'

loop_
  _atom_site_type_symbol
  _atom_site_label
  _atom_site_symmetry_multiplicity
  _atom_site_fract_x
  _atom_site_fract_y
  _atom_site_fract_z
  _atom_site_occupancy
  C   C1        1.0  0.48210  0.89540  0.68730  1.0000
  C   C2        1.0  0.51790  0.10460  0.31270  1.0000
  Cd  Cd1       1.0  0.50000  0.00000  0.50000  1.0000
  Cd  Cd2       1.0  0.44880  0.81372  0.19763  1.0000
  Cd  Cd3       1.0  0.55120  0.18628  0.80237  1.0000
  C   C3        1.0  0.21080  0.85650  0.33740  1.0000
  C   C4        1.0  0.78920  0.14350  0.66260  1.0000
  C   C5        1.0  0.07390  0.84410  0.38240  1.0000
  C   C6        1.0  0.92610  0.15590  0.61760  1.0000
  C   C7        1.0  0.95220  0.82720  0.32150  1.0000
  C   C8        1.0  0.04780  0.17280  0.67850  1.0000
  H   H1        1.0  0.95500  0.82000  0.24950  1.0000
  H   H2        1.0  0.04500  0.18000  0.75050  1.0000
  C   C9        1.0  0.82910  0.82100  0.36470  1.0000
  C   C10       1.0  0.17090  0.17900  0.63530  1.0000
  C   C11       1.0  0.82440  0.82640  0.46980  1.0000
  C   C12       1.0  0.17560  0.17360  0.53020  1.0000
  H   H3        1.0  0.74120  0.82060  0.50000  1.0000
  H   H4        1.0  0.25880  0.17940  0.50000  1.0000
  C   C13       1.0  0.94490  0.84060  0.52870  1.0000
  C   C14       1.0  0.05510  0.15940  0.47130  1.0000
  C   C15       1.0  0.06860  0.85160  0.48830  1.0000
  C   C16       1.0  0.93140  0.14840  0.51170  1.0000
  H   H5        1.0  0.14820  0.86410  0.53120  1.0000
  H   H6        1.0  0.85180  0.13590  0.46880  1.0000
  C   C17       1.0  0.69750  0.81210  0.30190  1.0000
  C   C18       1.0  0.30250  0.18790  0.69810  1.0000
  C   C19       1.0  0.44570  0.78300  0.70660  1.0000
  C   C20       1.0  0.55430  0.21700  0.29340  1.0000
  C   C21       1.0  0.44640  0.78710  0.81100  1.0000
  C   C22       1.0  0.55360  0.21290  0.18900  1.0000
  H   H7        1.0  0.46870  0.86090  0.87090  1.0000
  H   H8        1.0  0.53130  0.13910  0.12910  1.0000
  C   C23       1.0  0.41460  0.68360  0.82860  1.0000
  C   C24       1.0  0.58540  0.31640  0.17140  1.0000
  C   C25       1.0  0.37880  0.57340  0.73820  1.0000
  C   C26       1.0  0.62120  0.42660  0.26180  1.0000
  H   H9        1.0  0.35800  0.50220  0.74740  1.0000
  H   H10       1.0  0.64200  0.49780  0.25260  1.0000
  C   C27       1.0  0.37520  0.57370  0.63680  1.0000
  C   C28       1.0  0.62480  0.42630  0.36320  1.0000
  C   C29       1.0  0.40870  0.67290  0.61530  1.0000
  C   C30       1.0  0.59130  0.32710  0.38470  1.0000
  H   H11       1.0  0.40720  0.66780  0.54390  1.0000
  H   H12       1.0  0.59280  0.33220  0.45610  1.0000
  C   C31       1.0  0.42130  0.68570  0.94210  1.0000
  C   C32       1.0  0.57870  0.31430  0.05790  1.0000
  F   F1        1.0  0.94130  0.84970  0.63290  1.0000
  F   F2        1.0  0.05870  0.15030  0.36710  1.0000
  F   F3        1.0  0.33750  0.46530  0.54950  1.0000
  F   F4        1.0  0.66250  0.53470  0.45050  1.0000
  O   O1        1.0  0.30680  0.89800  0.40600  1.0000
  O   O2        1.0  0.69320  0.10200  0.59400  1.0000
  O   O3        1.0  0.22220  0.82370  0.23630  1.0000
  O   O4        1.0  0.77780  0.17630  0.76370  1.0000
  O   O5        1.0  0.69680  0.77670  0.20150  1.0000
  O   O6        1.0  0.30320  0.22330  0.79850  1.0000
  O   O7        1.0  0.59010  0.84190  0.35370  1.0000
  O   O8        1.0  0.40990  0.15810  0.64630  1.0000
  O   O9        1.0  0.48200  0.88160  0.58910  1.0000
  O   O10       1.0  0.51800  0.11840  0.41090  1.0000
  O   O11       1.0  0.51130  0.99130  0.77020  1.0000
  O   O12       1.0  0.48870  0.00870  0.22980  1.0000
  O   O13       1.0  0.43380  0.78650  0.02120  1.0000
  O   O14       1.0  0.56620  0.21350  0.97880  1.0000
  O   O15       1.0  0.41480  0.58360  0.94940  1.0000
  O   O16       1.0  0.58520  0.41640  0.05060  1.0000
  O   O17       1.0  0.41330  0.61380  0.17210  1.0000
  O   O18       1.0  0.58670  0.38620  0.82790  1.0000
  H   H13       1.0  0.44410  0.56880  0.11280  1.0000
  H   H14       1.0  0.55590  0.43120  0.88720  1.0000
  H   H15       1.0  0.43270  0.60590  0.22870  1.0000
  H   H16       1.0  0.56730  0.39410  0.77130  1.0000
