data_image0
_chemical_formula_structural       Fe2O12C18Cl6
_chemical_formula_sum              "Fe2 O12 C18 Cl6"
_cell_length_a       13.6909
_cell_length_b       13.6909
_cell_length_c       9.1968
_cell_angle_alpha    90
_cell_angle_beta     90
_cell_angle_gamma    120

_space_group_name_H-M_alt    "P 1"
_space_group_IT_number       1

loop_
  _space_group_symop_operation_xyz
  'x, y, z'

loop_
  _atom_site_type_symbol
  _atom_site_label
  _atom_site_symmetry_multiplicity
  _atom_site_fract_x
  _atom_site_fract_y
  _atom_site_fract_z
  _atom_site_occupancy
  Fe  Fe1       1.0  0.66670  0.33330  0.50000  1.0000
  Fe  Fe2       1.0  0.33330  0.66670  0.50000  1.0000
  O   O1        1.0  0.65775  0.19838  0.38840  1.0000
  O   O2        1.0  0.80162  0.45937  0.38840  1.0000
  O   O3        1.0  0.54063  0.34225  0.38840  1.0000
  O   O4        1.0  0.80162  0.34225  0.61160  1.0000
  O   O5        1.0  0.65775  0.45937  0.61160  1.0000
  O   O6        1.0  0.54063  0.19838  0.61160  1.0000
  O   O7        1.0  0.34225  0.80162  0.61160  1.0000
  O   O8        1.0  0.19838  0.54063  0.61160  1.0000
  O   O9        1.0  0.45937  0.65775  0.61160  1.0000
  O   O10       1.0  0.19838  0.65775  0.38840  1.0000
  O   O11       1.0  0.34225  0.54063  0.38840  1.0000
  O   O12       1.0  0.45937  0.80162  0.38840  1.0000
  C   C1        1.0  0.58780  0.10170  0.43770  1.0000
  C   C2        1.0  0.89830  0.48610  0.43770  1.0000
  C   C3        1.0  0.51390  0.41220  0.43770  1.0000
  C   C4        1.0  0.89830  0.41220  0.56230  1.0000
  C   C5        1.0  0.58780  0.48610  0.56230  1.0000
  C   C6        1.0  0.51390  0.10170  0.56230  1.0000
  C   C7        1.0  0.41220  0.89830  0.56230  1.0000
  C   C8        1.0  0.10170  0.51390  0.56230  1.0000
  C   C9        1.0  0.48610  0.58780  0.56230  1.0000
  C   C10       1.0  0.10170  0.58780  0.43770  1.0000
  C   C11       1.0  0.41220  0.51390  0.43770  1.0000
  C   C12       1.0  0.48610  0.89830  0.43770  1.0000
  C   C13       1.0  0.57360  0.00000  0.38680  1.0000
  C   C14       1.0  0.00000  0.57360  0.38680  1.0000
  C   C15       1.0  0.42640  0.42640  0.38680  1.0000
  C   C16       1.0  0.00000  0.42640  0.61320  1.0000
  C   C17       1.0  0.57360  0.57360  0.61320  1.0000
  C   C18       1.0  0.42640  0.00000  0.61320  1.0000
  Cl  Cl1       1.0  0.66304  0.00000  0.25310  1.0000
  Cl  Cl2       1.0  0.00000  0.66304  0.25310  1.0000
  Cl  Cl3       1.0  0.33696  0.33696  0.25310  1.0000
  Cl  Cl4       1.0  0.00000  0.33696  0.74690  1.0000
  Cl  Cl5       1.0  0.66304  0.66304  0.74690  1.0000
  Cl  Cl6       1.0  0.33696  0.00000  0.74690  1.0000
