data_image0
_chemical_formula_structural       U2O6H2C2O4C2H2O4
_chemical_formula_sum              "U2 O14 H4 C4"
_cell_length_a       5.5621
_cell_length_b       8.149
_cell_length_c       11.876
_cell_angle_alpha    88.866
_cell_angle_beta     82.204
_cell_angle_gamma    87.378

_space_group_name_H-M_alt    "P 1"
_space_group_IT_number       1

loop_
  _space_group_symop_operation_xyz
  'x, y, z'

loop_
  _atom_site_type_symbol
  _atom_site_label
  _atom_site_symmetry_multiplicity
  _atom_site_fract_x
  _atom_site_fract_y
  _atom_site_fract_z
  _atom_site_occupancy
  U   U1        1.0  0.12692  0.30397  0.06651  1.0000
  U   U2        1.0  0.87308  0.69603  0.93349  1.0000
  O   O1        1.0  0.35360  0.41640  0.12040  1.0000
  O   O2        1.0  0.64640  0.58360  0.87960  1.0000
  O   O3        1.0  0.89960  0.18940  0.01790  1.0000
  O   O4        1.0  0.10040  0.81060  0.98210  1.0000
  O   O5        1.0  0.84710  0.52560  0.09530  1.0000
  O   O6        1.0  0.15290  0.47440  0.90470  1.0000
  H   H1        1.0  0.72200  0.50500  0.11000  1.0000
  H   H2        1.0  0.27800  0.49500  0.89000  1.0000
  C   C1        1.0  0.47870  0.96610  0.06060  1.0000
  C   C2        1.0  0.52130  0.03390  0.93940  1.0000
  O   O7        1.0  0.33370  0.05000  0.13040  1.0000
  O   O8        1.0  0.66630  0.95000  0.86960  1.0000
  O   O9        1.0  0.58570  0.83450  0.08200  1.0000
  O   O10       1.0  0.41430  0.16550  0.91800  1.0000
  C   C3        1.0  0.78340  0.17010  0.29600  1.0000
  C   C4        1.0  0.21660  0.82990  0.70400  1.0000
  H   H3        1.0  0.68080  0.14270  0.24430  1.0000
  H   H4        1.0  0.31920  0.85730  0.75570  1.0000
  O   O11       1.0  0.95600  0.24860  0.25630  1.0000
  O   O12       1.0  0.04400  0.75140  0.74370  1.0000
  O   O13       1.0  0.72300  0.12130  0.39400  1.0000
  O   O14       1.0  0.27700  0.87870  0.60600  1.0000
