data_image0
_chemical_formula_structural       Cd2O24C16B2H8
_chemical_formula_sum              "Cd2 O24 C16 B2 H8"
_cell_length_a       12.951
_cell_length_b       12.951
_cell_length_c       6.129
_cell_angle_alpha    90
_cell_angle_beta     90
_cell_angle_gamma    90

_space_group_name_H-M_alt    "P 1"
_space_group_IT_number       1

loop_
  _space_group_symop_operation_xyz
  'x, y, z'

loop_
  _atom_site_type_symbol
  _atom_site_label
  _atom_site_symmetry_multiplicity
  _atom_site_fract_x
  _atom_site_fract_y
  _atom_site_fract_z
  _atom_site_occupancy
  Cd  Cd1       1.0  0.50000  0.50000  0.00000  1.0000
  Cd  Cd2       1.0  0.00000  0.00000  0.00000  1.0000
  O   O1        1.0  0.33370  0.51640  0.10630  1.0000
  O   O2        1.0  0.66630  0.48360  0.10630  1.0000
  O   O3        1.0  0.98360  0.83370  0.10630  1.0000
  O   O4        1.0  0.01640  0.16630  0.10630  1.0000
  O   O5        1.0  0.16630  0.01640  0.89370  1.0000
  O   O6        1.0  0.83370  0.98360  0.89370  1.0000
  O   O7        1.0  0.51640  0.33370  0.89370  1.0000
  O   O8        1.0  0.48360  0.66630  0.89370  1.0000
  O   O9        1.0  0.22450  0.63490  0.23270  1.0000
  O   O10       1.0  0.77550  0.36510  0.23270  1.0000
  O   O11       1.0  0.86510  0.72450  0.23270  1.0000
  O   O12       1.0  0.13490  0.27550  0.23270  1.0000
  O   O13       1.0  0.27550  0.13490  0.76730  1.0000
  O   O14       1.0  0.72450  0.86510  0.76730  1.0000
  O   O15       1.0  0.63490  0.22450  0.76730  1.0000
  O   O16       1.0  0.36510  0.77550  0.76730  1.0000
  O   O17       1.0  0.49320  0.59270  0.36020  1.0000
  O   O18       1.0  0.50680  0.40730  0.36020  1.0000
  O   O19       1.0  0.90730  0.99320  0.36020  1.0000
  O   O20       1.0  0.09270  0.00680  0.36020  1.0000
  O   O21       1.0  0.00680  0.09270  0.63980  1.0000
  O   O22       1.0  0.99320  0.90730  0.63980  1.0000
  O   O23       1.0  0.59270  0.49320  0.63980  1.0000
  O   O24       1.0  0.40730  0.50680  0.63980  1.0000
  C   C1        1.0  0.31120  0.59290  0.22670  1.0000
  C   C2        1.0  0.68880  0.40710  0.22670  1.0000
  C   C3        1.0  0.90710  0.81120  0.22670  1.0000
  C   C4        1.0  0.09290  0.18880  0.22670  1.0000
  C   C5        1.0  0.18880  0.09290  0.77330  1.0000
  C   C6        1.0  0.81120  0.90710  0.77330  1.0000
  C   C7        1.0  0.59290  0.31120  0.77330  1.0000
  C   C8        1.0  0.40710  0.68880  0.77330  1.0000
  C   C9        1.0  0.39190  0.63660  0.38300  1.0000
  C   C10       1.0  0.60810  0.36340  0.38300  1.0000
  C   C11       1.0  0.86340  0.89190  0.38300  1.0000
  C   C12       1.0  0.13660  0.10810  0.38300  1.0000
  C   C13       1.0  0.10810  0.13660  0.61700  1.0000
  C   C14       1.0  0.89190  0.86340  0.61700  1.0000
  C   C15       1.0  0.63660  0.39190  0.61700  1.0000
  C   C16       1.0  0.36340  0.60810  0.61700  1.0000
  B   B1        1.0  0.50000  0.50000  0.50000  1.0000
  B   B2        1.0  0.00000  0.00000  0.50000  1.0000
  H   H1        1.0  0.41600  0.70680  0.37050  1.0000
  H   H2        1.0  0.58400  0.29320  0.37050  1.0000
  H   H3        1.0  0.79320  0.91600  0.37050  1.0000
  H   H4        1.0  0.20680  0.08400  0.37050  1.0000
  H   H5        1.0  0.08400  0.20680  0.62950  1.0000
  H   H6        1.0  0.91600  0.79320  0.62950  1.0000
  H   H7        1.0  0.70680  0.41600  0.62950  1.0000
  H   H8        1.0  0.29320  0.58400  0.62950  1.0000
