data_image0
_chemical_formula_structural       Zn4O12C8O8C4O4
_chemical_formula_sum              "Zn4 O24 C12"
_cell_length_a       7.5454
_cell_length_b       16.5778
_cell_length_c       9.1049
_cell_angle_alpha    90
_cell_angle_beta     104.863
_cell_angle_gamma    90

_space_group_name_H-M_alt    "P 1"
_space_group_IT_number       1

loop_
  _space_group_symop_operation_xyz
  'x, y, z'

loop_
  _atom_site_type_symbol
  _atom_site_label
  _atom_site_symmetry_multiplicity
  _atom_site_fract_x
  _atom_site_fract_y
  _atom_site_fract_z
  _atom_site_occupancy
  Zn  Zn1       1.0  0.47717  0.33839  0.52337  1.0000
  Zn  Zn2       1.0  0.47717  0.16161  0.02337  1.0000
  Zn  Zn3       1.0  0.52283  0.66161  0.47663  1.0000
  Zn  Zn4       1.0  0.52283  0.83839  0.97663  1.0000
  O   O1        1.0  0.32880  0.32558  0.29670  1.0000
  O   O2        1.0  0.32880  0.17442  0.79670  1.0000
  O   O3        1.0  0.67120  0.67442  0.70330  1.0000
  O   O4        1.0  0.67120  0.82558  0.20330  1.0000
  O   O5        1.0  0.62330  0.24393  0.45640  1.0000
  O   O6        1.0  0.62330  0.25607  0.95640  1.0000
  O   O7        1.0  0.37670  0.75607  0.54360  1.0000
  O   O8        1.0  0.37670  0.74393  0.04360  1.0000
  O   O9        1.0  0.32730  0.44082  0.54410  1.0000
  O   O10       1.0  0.32730  0.05918  0.04410  1.0000
  O   O11       1.0  0.67270  0.55918  0.45590  1.0000
  O   O12       1.0  0.67270  0.94082  0.95590  1.0000
  C   C1        1.0  0.38140  0.26820  0.23180  1.0000
  C   C2        1.0  0.38140  0.23180  0.73180  1.0000
  C   C3        1.0  0.61860  0.73180  0.76820  1.0000
  C   C4        1.0  0.61860  0.76820  0.26820  1.0000
  C   C5        1.0  0.40530  0.50450  0.51860  1.0000
  C   C6        1.0  0.40530  0.99550  0.01860  1.0000
  C   C7        1.0  0.59470  0.49550  0.48140  1.0000
  C   C8        1.0  0.59470  0.00450  0.98140  1.0000
  O   O13       1.0  0.65560  0.42524  0.47970  1.0000
  O   O14       1.0  0.65560  0.07476  0.97970  1.0000
  O   O15       1.0  0.34440  0.57476  0.52030  1.0000
  O   O16       1.0  0.34440  0.92524  0.02030  1.0000
  O   O17       1.0  0.30910  0.25765  0.60060  1.0000
  O   O18       1.0  0.30910  0.24235  0.10060  1.0000
  O   O19       1.0  0.69090  0.74235  0.39940  1.0000
  O   O20       1.0  0.69090  0.75765  0.89940  1.0000
  C   C9        1.0  0.55770  0.22220  0.32070  1.0000
  C   C10       1.0  0.55770  0.27780  0.82070  1.0000
  C   C11       1.0  0.44230  0.77780  0.67930  1.0000
  C   C12       1.0  0.44230  0.72220  0.17930  1.0000
  O   O21       1.0  0.62160  0.33081  0.75190  1.0000
  O   O22       1.0  0.62160  0.16919  0.25190  1.0000
  O   O23       1.0  0.37840  0.66919  0.24810  1.0000
  O   O24       1.0  0.37840  0.83081  0.74810  1.0000
