data_image0
_chemical_formula_structural       Dy4O4N4C4Sr4O4N4C4H4C4H4O4N4O4C4H4C4O4C4O4C4O4C4O8C4H4O4C4H4O4C4H4O4C4O4H8C4O4H8C8O4H8O4H8C4H4O4H8C4H4C4H4C12
_chemical_formula_sum              "Dy4 O68 N12 C84 Sr4 H76"
_cell_length_a       15.8039
_cell_length_b       9.8971
_cell_length_c       20.4911
_cell_angle_alpha    90
_cell_angle_beta     107.006
_cell_angle_gamma    90

_space_group_name_H-M_alt    "P 1"
_space_group_IT_number       1

loop_
  _space_group_symop_operation_xyz
  'x, y, z'

loop_
  _atom_site_type_symbol
  _atom_site_label
  _atom_site_symmetry_multiplicity
  _atom_site_fract_x
  _atom_site_fract_y
  _atom_site_fract_z
  _atom_site_occupancy
  Dy  Dy1       1.0  0.75442  0.63886  0.49451  1.0000
  Dy  Dy2       1.0  0.74558  0.13886  0.00549  1.0000
  Dy  Dy3       1.0  0.24558  0.36114  0.50549  1.0000
  Dy  Dy4       1.0  0.25442  0.86114  0.99451  1.0000
  O   O1        1.0  0.75513  0.53206  0.38776  1.0000
  O   O2        1.0  0.74487  0.03206  0.11224  1.0000
  O   O3        1.0  0.24487  0.46794  0.61224  1.0000
  O   O4        1.0  0.25513  0.96794  0.88776  1.0000
  N   N1        1.0  0.74334  0.38995  0.49201  1.0000
  N   N2        1.0  0.75666  0.88995  0.00799  1.0000
  N   N3        1.0  0.25666  0.61005  0.50799  1.0000
  N   N4        1.0  0.24334  0.11005  0.99201  1.0000
  C   C1        1.0  0.74107  0.32030  0.43561  1.0000
  C   C2        1.0  0.75893  0.82030  0.06439  1.0000
  C   C3        1.0  0.25893  0.67970  0.56439  1.0000
  C   C4        1.0  0.24107  0.17970  0.93561  1.0000
  Sr  Sr1       1.0  0.89592  0.37334  0.28257  1.0000
  Sr  Sr2       1.0  0.60408  0.87334  0.21743  1.0000
  Sr  Sr3       1.0  0.10408  0.62666  0.71743  1.0000
  Sr  Sr4       1.0  0.39592  0.12666  0.78257  1.0000
  O   O5        1.0  0.75715  0.34884  0.32505  1.0000
  O   O6        1.0  0.74285  0.84884  0.17495  1.0000
  O   O7        1.0  0.24285  0.65116  0.67495  1.0000
  O   O8        1.0  0.25715  0.15116  0.82505  1.0000
  N   N5        1.0  0.87805  0.74786  0.46121  1.0000
  N   N6        1.0  0.62195  0.24786  0.03879  1.0000
  N   N7        1.0  0.12195  0.25214  0.53879  1.0000
  N   N8        1.0  0.37805  0.75214  0.96121  1.0000
  C   C5        1.0  0.73327  0.18150  0.43251  1.0000
  C   C6        1.0  0.76673  0.68150  0.06749  1.0000
  C   C7        1.0  0.26673  0.81850  0.56749  1.0000
  C   C8        1.0  0.23327  0.31850  0.93251  1.0000
  H   H1        1.0  0.72970  0.13560  0.39220  1.0000
  H   H2        1.0  0.77030  0.63560  0.10780  1.0000
  H   H3        1.0  0.27030  0.86440  0.60780  1.0000
  H   H4        1.0  0.22970  0.36440  0.89220  1.0000
  C   C9        1.0  0.73090  0.11180  0.49056  1.0000
  C   C10       1.0  0.76910  0.61180  0.00944  1.0000
  C   C11       1.0  0.26910  0.88820  0.50944  1.0000
  C   C12       1.0  0.23090  0.38820  0.99056  1.0000
  H   H5        1.0  0.72590  0.01810  0.48990  1.0000
  H   H6        1.0  0.77410  0.51810  0.01010  1.0000
  H   H7        1.0  0.27410  0.98190  0.51010  1.0000
  H   H8        1.0  0.22590  0.48190  0.98990  1.0000
  O   O9        1.0  0.74274  0.53753  0.59754  1.0000
  O   O10       1.0  0.75726  0.03753  0.90246  1.0000
  O   O11       1.0  0.25726  0.46247  0.40246  1.0000
  O   O12       1.0  0.24274  0.96247  0.09754  1.0000
  N   N9        1.0  0.64821  0.77084  0.53767  1.0000
  N   N10       1.0  0.85179  0.27084  0.96233  1.0000
  N   N11       1.0  0.35179  0.22916  0.46233  1.0000
  N   N12       1.0  0.14821  0.72916  0.03767  1.0000
  O   O13       1.0  0.74857  0.35780  0.66427  1.0000
  O   O14       1.0  0.75143  0.85780  0.83573  1.0000
  O   O15       1.0  0.25143  0.64220  0.33573  1.0000
  O   O16       1.0  0.24857  0.14220  0.16427  1.0000
  C   C13       1.0  0.73607  0.18380  0.54969  1.0000
  C   C14       1.0  0.76393  0.68380  0.95031  1.0000
  C   C15       1.0  0.26393  0.81620  0.45031  1.0000
  C   C16       1.0  0.23607  0.31620  0.04969  1.0000
  H   H9        1.0  0.73640  0.13920  0.58970  1.0000
  H   H10       1.0  0.76360  0.63920  0.91030  1.0000
  H   H11       1.0  0.26360  0.86080  0.41030  1.0000
  H   H12       1.0  0.23640  0.36080  0.08970  1.0000
  C   C17       1.0  0.74078  0.32260  0.54793  1.0000
  C   C18       1.0  0.75922  0.82260  0.95207  1.0000
  C   C19       1.0  0.25922  0.67740  0.45207  1.0000
  C   C20       1.0  0.24078  0.17740  0.04793  1.0000
  O   O17       1.0  0.90102  0.55527  0.55198  1.0000
  O   O18       1.0  0.59898  0.05527  0.94802  1.0000
  O   O19       1.0  0.09898  0.44473  0.44802  1.0000
  O   O20       1.0  0.40102  0.94473  0.05198  1.0000
  C   C21       1.0  0.75168  0.40600  0.37772  1.0000
  C   C22       1.0  0.74832  0.90600  0.12228  1.0000
  C   C23       1.0  0.24832  0.59400  0.62228  1.0000
  C   C24       1.0  0.25168  0.09400  0.87772  1.0000
  O   O21       1.0  0.04734  0.58780  0.58784  1.0000
  O   O22       1.0  0.45266  0.08780  0.91216  1.0000
  O   O23       1.0  0.95266  0.41220  0.41216  1.0000
  O   O24       1.0  0.54734  0.91220  0.08784  1.0000
  C   C25       1.0  0.74409  0.41260  0.60853  1.0000
  C   C26       1.0  0.75591  0.91260  0.89147  1.0000
  C   C27       1.0  0.25591  0.58740  0.39147  1.0000
  C   C28       1.0  0.24409  0.08740  0.10853  1.0000
  O   O25       1.0  0.71273  0.81228  0.40856  1.0000
  O   O26       1.0  0.78727  0.31228  0.09144  1.0000
  O   O27       1.0  0.28727  0.18772  0.59144  1.0000
  O   O28       1.0  0.21273  0.68772  0.90856  1.0000
  C   C29       1.0  0.96191  0.71650  0.49437  1.0000
  C   C30       1.0  0.53809  0.21650  0.00563  1.0000
  C   C31       1.0  0.03809  0.28350  0.50563  1.0000
  C   C32       1.0  0.46191  0.78350  0.99437  1.0000
  O   O29       1.0  0.74118  0.92882  0.32374  1.0000
  O   O30       1.0  0.75882  0.42882  0.17626  1.0000
  O   O31       1.0  0.25882  0.07118  0.67626  1.0000
  O   O32       1.0  0.24118  0.57118  0.82374  1.0000
  O   O33       1.0  0.81888  0.80710  0.57960  1.0000
  O   O34       1.0  0.68112  0.30710  0.92040  1.0000
  O   O35       1.0  0.18112  0.19290  0.42040  1.0000
  O   O36       1.0  0.31888  0.69290  0.07960  1.0000
  C   C33       1.0  0.03190  0.77970  0.47978  1.0000
  C   C34       1.0  0.46810  0.27970  0.02022  1.0000
  C   C35       1.0  0.96810  0.22030  0.52022  1.0000
  C   C36       1.0  0.53190  0.72030  0.97978  1.0000
  H   H13       1.0  0.08980  0.75610  0.50300  1.0000
  H   H14       1.0  0.41020  0.25610  0.99700  1.0000
  H   H15       1.0  0.91020  0.24390  0.49700  1.0000
  H   H16       1.0  0.58980  0.74390  0.00300  1.0000
  O   O37       1.0  0.81135  0.92530  0.67034  1.0000
  O   O38       1.0  0.68865  0.42530  0.82966  1.0000
  O   O39       1.0  0.18865  0.07470  0.32966  1.0000
  O   O40       1.0  0.31135  0.57470  0.17034  1.0000
  C   C37       1.0  0.01470  0.87850  0.43023  1.0000
  C   C38       1.0  0.48530  0.37850  0.06977  1.0000
  C   C39       1.0  0.98530  0.12150  0.56977  1.0000
  C   C40       1.0  0.51470  0.62150  0.93023  1.0000
  H   H17       1.0  0.06110  0.92290  0.42000  1.0000
  H   H18       1.0  0.43890  0.42290  0.08000  1.0000
  H   H19       1.0  0.93890  0.07710  0.58000  1.0000
  H   H20       1.0  0.56110  0.57710  0.92000  1.0000
  O   O41       1.0  0.60107  0.59362  0.43932  1.0000
  O   O42       1.0  0.89893  0.09362  0.06068  1.0000
  O   O43       1.0  0.39893  0.40638  0.56068  1.0000
  O   O44       1.0  0.10107  0.90638  0.93932  1.0000
  C   C41       1.0  0.92797  0.91120  0.39583  1.0000
  C   C42       1.0  0.57203  0.41120  0.10417  1.0000
  C   C43       1.0  0.07203  0.08880  0.60417  1.0000
  C   C44       1.0  0.42797  0.58880  0.89583  1.0000
  H   H21       1.0  0.91500  0.97760  0.36230  1.0000
  H   H22       1.0  0.58500  0.47760  0.13770  1.0000
  H   H23       1.0  0.08500  0.02240  0.63770  1.0000
  H   H24       1.0  0.41500  0.52240  0.86230  1.0000
  O   O45       1.0  0.45764  0.62430  0.42787  1.0000
  O   O46       1.0  0.04236  0.12430  0.07213  1.0000
  O   O47       1.0  0.54236  0.37570  0.57213  1.0000
  O   O48       1.0  0.95764  0.87570  0.92787  1.0000
  C   C45       1.0  0.86132  0.84270  0.41257  1.0000
  C   C46       1.0  0.63868  0.34270  0.08743  1.0000
  C   C47       1.0  0.13868  0.15730  0.58743  1.0000
  C   C48       1.0  0.36132  0.65730  0.91257  1.0000
  O   O49       1.0  0.86862  0.63420  0.28529  1.0000
  O   O50       1.0  0.63138  0.13420  0.21471  1.0000
  O   O51       1.0  0.13138  0.36580  0.71471  1.0000
  O   O52       1.0  0.36862  0.86580  0.78529  1.0000
  H   H25       1.0  0.83890  0.65110  0.31290  1.0000
  H   H26       1.0  0.66110  0.15110  0.18710  1.0000
  H   H27       1.0  0.16110  0.34890  0.68710  1.0000
  H   H28       1.0  0.33890  0.84890  0.81290  1.0000
  H   H29       1.0  0.84900  0.67010  0.24610  1.0000
  H   H30       1.0  0.65100  0.17010  0.25390  1.0000
  H   H31       1.0  0.15100  0.32990  0.75390  1.0000
  H   H32       1.0  0.34900  0.82990  0.74610  1.0000
  C   C49       1.0  0.97189  0.61070  0.54912  1.0000
  C   C50       1.0  0.52811  0.11070  0.95088  1.0000
  C   C51       1.0  0.02811  0.38930  0.45088  1.0000
  C   C52       1.0  0.47189  0.88930  0.04912  1.0000
  O   O53       1.0  0.05266  0.48930  0.30670  1.0000
  O   O54       1.0  0.44734  0.98930  0.19330  1.0000
  O   O55       1.0  0.94734  0.51070  0.69330  1.0000
  O   O56       1.0  0.55266  0.01070  0.80670  1.0000
  H   H33       1.0  0.07550  0.48140  0.34960  1.0000
  H   H34       1.0  0.42450  0.98140  0.15040  1.0000
  H   H35       1.0  0.92450  0.51860  0.65040  1.0000
  H   H36       1.0  0.57550  0.01860  0.84960  1.0000
  H   H37       1.0  0.09350  0.45190  0.29390  1.0000
  H   H38       1.0  0.40650  0.95190  0.20610  1.0000
  H   H39       1.0  0.90650  0.54810  0.70610  1.0000
  H   H40       1.0  0.59350  0.04810  0.79390  1.0000
  C   C53       1.0  0.76406  0.86460  0.37812  1.0000
  C   C54       1.0  0.73594  0.36460  0.12188  1.0000
  C   C55       1.0  0.23594  0.13540  0.62188  1.0000
  C   C56       1.0  0.26406  0.63540  0.87812  1.0000
  C   C57       1.0  0.67763  0.85280  0.59111  1.0000
  C   C58       1.0  0.82237  0.35280  0.90889  1.0000
  C   C59       1.0  0.32237  0.14720  0.40889  1.0000
  C   C60       1.0  0.17763  0.64720  0.09111  1.0000
  O   O57       1.0  0.95380  0.34140  0.18103  1.0000
  O   O58       1.0  0.54620  0.84140  0.31897  1.0000
  O   O59       1.0  0.04620  0.65860  0.81897  1.0000
  O   O60       1.0  0.45380  0.15860  0.68103  1.0000
  H   H41       1.0  0.91720  0.31360  0.14430  1.0000
  H   H42       1.0  0.58280  0.81360  0.35570  1.0000
  H   H43       1.0  0.08280  0.68640  0.85570  1.0000
  H   H44       1.0  0.41720  0.18640  0.64430  1.0000
  H   H45       1.0  0.00330  0.30380  0.18440  1.0000
  H   H46       1.0  0.49670  0.80380  0.31560  1.0000
  H   H47       1.0  0.99670  0.69620  0.81560  1.0000
  H   H48       1.0  0.50330  0.19620  0.68440  1.0000
  O   O61       1.0  0.00813  0.17950  0.33213  1.0000
  O   O62       1.0  0.49187  0.67950  0.16787  1.0000
  O   O63       1.0  0.99187  0.82050  0.66787  1.0000
  O   O64       1.0  0.50813  0.32050  0.83213  1.0000
  H   H49       1.0  0.04630  0.14210  0.31620  1.0000
  H   H50       1.0  0.45370  0.64210  0.18380  1.0000
  H   H51       1.0  0.95370  0.85790  0.68380  1.0000
  H   H52       1.0  0.54630  0.35790  0.81620  1.0000
  H   H53       1.0  0.03440  0.19820  0.37360  1.0000
  H   H54       1.0  0.46560  0.69820  0.12640  1.0000
  H   H55       1.0  0.96560  0.80180  0.62640  1.0000
  H   H56       1.0  0.53440  0.30180  0.87360  1.0000
  C   C61       1.0  0.62120  0.91660  0.62193  1.0000
  C   C62       1.0  0.87880  0.41660  0.87807  1.0000
  C   C63       1.0  0.37880  0.08340  0.37807  1.0000
  C   C64       1.0  0.12120  0.58340  0.12193  1.0000
  H   H57       1.0  0.64320  0.97350  0.65910  1.0000
  H   H58       1.0  0.85680  0.47350  0.84090  1.0000
  H   H59       1.0  0.35680  0.02650  0.34090  1.0000
  H   H60       1.0  0.14320  0.52650  0.15910  1.0000
  O   O65       1.0  0.83007  0.13000  0.24457  1.0000
  O   O66       1.0  0.66993  0.63000  0.25543  1.0000
  O   O67       1.0  0.16993  0.87000  0.75543  1.0000
  O   O68       1.0  0.33007  0.37000  0.74457  1.0000
  H   H61       1.0  0.83770  0.06560  0.21950  1.0000
  H   H62       1.0  0.66230  0.56560  0.28050  1.0000
  H   H63       1.0  0.16230  0.93440  0.78050  1.0000
  H   H64       1.0  0.33770  0.43440  0.71950  1.0000
  H   H65       1.0  0.78200  0.11470  0.25400  1.0000
  H   H66       1.0  0.71800  0.61470  0.24600  1.0000
  H   H67       1.0  0.21800  0.88530  0.74600  1.0000
  H   H68       1.0  0.28200  0.38530  0.75400  1.0000
  C   C65       1.0  0.53180  0.89330  0.59603  1.0000
  C   C66       1.0  0.96820  0.39330  0.90397  1.0000
  C   C67       1.0  0.46820  0.10670  0.40397  1.0000
  C   C68       1.0  0.03180  0.60670  0.09603  1.0000
  H   H69       1.0  0.49220  0.93640  0.61490  1.0000
  H   H70       1.0  0.00780  0.43640  0.88510  1.0000
  H   H71       1.0  0.50780  0.06360  0.38510  1.0000
  H   H72       1.0  0.99220  0.56360  0.11490  1.0000
  C   C69       1.0  0.50116  0.80540  0.54170  1.0000
  C   C70       1.0  0.99884  0.30540  0.95830  1.0000
  C   C71       1.0  0.49884  0.19460  0.45830  1.0000
  C   C72       1.0  0.00116  0.69460  0.04170  1.0000
  H   H73       1.0  0.44110  0.78680  0.52430  1.0000
  H   H74       1.0  0.05890  0.28680  0.97570  1.0000
  H   H75       1.0  0.55890  0.21320  0.47570  1.0000
  H   H76       1.0  0.94110  0.71320  0.02430  1.0000
  C   C73       1.0  0.56195  0.74550  0.51358  1.0000
  C   C74       1.0  0.93805  0.24550  0.98642  1.0000
  C   C75       1.0  0.43805  0.25450  0.48642  1.0000
  C   C76       1.0  0.06195  0.75450  0.01358  1.0000
  C   C77       1.0  0.77708  0.86450  0.61651  1.0000
  C   C78       1.0  0.72292  0.36450  0.88349  1.0000
  C   C79       1.0  0.22292  0.13550  0.38349  1.0000
  C   C80       1.0  0.27708  0.63550  0.11651  1.0000
  C   C81       1.0  0.53709  0.64600  0.45538  1.0000
  C   C82       1.0  0.96291  0.14600  0.04462  1.0000
  C   C83       1.0  0.46291  0.35400  0.54462  1.0000
  C   C84       1.0  0.03709  0.85400  0.95538  1.0000
