data_image0
_chemical_formula_structural       Sm4O4N4C4Sr4O4N4C4H4O4C4H4N4C4H4O8C8O8C4O4C4O4C4H4C4H4O8C4H4C4O8H8C4O4H8C8O4H8O4H8C4H4C4H4O4H8C4H4C12
_chemical_formula_sum              "Sm4 O68 N12 C84 Sr4 H76"
_cell_length_a       15.919
_cell_length_b       9.932
_cell_length_c       20.674
_cell_angle_alpha    90
_cell_angle_beta     107.3
_cell_angle_gamma    90

_space_group_name_H-M_alt    "P 1"
_space_group_IT_number       1

loop_
  _space_group_symop_operation_xyz
  'x, y, z'

loop_
  _atom_site_type_symbol
  _atom_site_label
  _atom_site_symmetry_multiplicity
  _atom_site_fract_x
  _atom_site_fract_y
  _atom_site_fract_z
  _atom_site_occupancy
  Sm  Sm1       1.0  0.24518  0.86306  0.00614  1.0000
  Sm  Sm2       1.0  0.25482  0.36306  0.49386  1.0000
  Sm  Sm3       1.0  0.75482  0.13694  0.99386  1.0000
  Sm  Sm4       1.0  0.74518  0.63694  0.50614  1.0000
  O   O1        1.0  0.28480  0.68840  0.09460  1.0000
  O   O2        1.0  0.21520  0.18840  0.40540  1.0000
  O   O3        1.0  0.71520  0.31160  0.90540  1.0000
  O   O4        1.0  0.78480  0.81160  0.59460  1.0000
  N   N1        1.0  0.11890  0.75220  0.03970  1.0000
  N   N2        1.0  0.38110  0.25220  0.46030  1.0000
  N   N3        1.0  0.88110  0.24780  0.96030  1.0000
  N   N4        1.0  0.61890  0.74780  0.53970  1.0000
  C   C1        1.0  0.13560  0.65850  0.08870  1.0000
  C   C2        1.0  0.36440  0.15850  0.41130  1.0000
  C   C3        1.0  0.86440  0.34150  0.91130  1.0000
  C   C4        1.0  0.63560  0.84150  0.58870  1.0000
  Sr  Sr1       1.0  0.39393  0.62744  0.28279  1.0000
  Sr  Sr2       1.0  0.10607  0.12744  0.21721  1.0000
  Sr  Sr3       1.0  0.60607  0.37256  0.71721  1.0000
  Sr  Sr4       1.0  0.89393  0.87256  0.78279  1.0000
  O   O5        1.0  0.25440  0.57270  0.17850  1.0000
  O   O6        1.0  0.24560  0.07270  0.32150  1.0000
  O   O7        1.0  0.74560  0.42730  0.82150  1.0000
  O   O8        1.0  0.75440  0.92730  0.67850  1.0000
  N   N5        1.0  0.25700  0.11790  0.00830  1.0000
  N   N6        1.0  0.24300  0.61790  0.49170  1.0000
  N   N7        1.0  0.74300  0.88210  0.99170  1.0000
  N   N8        1.0  0.75700  0.38210  0.50830  1.0000
  C   C5        1.0  0.07060  0.58800  0.10460  1.0000
  C   C6        1.0  0.42940  0.08800  0.39540  1.0000
  C   C7        1.0  0.92940  0.41200  0.89540  1.0000
  C   C8        1.0  0.57060  0.91200  0.60460  1.0000
  H   H1        1.0  0.08450  0.52200  0.13800  1.0000
  H   H2        1.0  0.41550  0.02200  0.36200  1.0000
  H   H3        1.0  0.91550  0.47800  0.86200  1.0000
  H   H4        1.0  0.58450  0.97800  0.63800  1.0000
  O   O9        1.0  0.09500  0.94320  0.94800  1.0000
  O   O10       1.0  0.40500  0.44320  0.55200  1.0000
  O   O11       1.0  0.90500  0.05680  0.05200  1.0000
  O   O12       1.0  0.59500  0.55680  0.44800  1.0000
  C   C9        1.0  0.98200  0.61750  0.06920  1.0000
  C   C10       1.0  0.51800  0.11750  0.43080  1.0000
  C   C11       1.0  0.01800  0.38250  0.93080  1.0000
  C   C12       1.0  0.48200  0.88250  0.56920  1.0000
  H   H5        1.0  0.93620  0.57190  0.07890  1.0000
  H   H6        1.0  0.56380  0.07190  0.42110  1.0000
  H   H7        1.0  0.06380  0.42810  0.92110  1.0000
  H   H8        1.0  0.43620  0.92810  0.57890  1.0000
  N   N9        1.0  0.35270  0.72890  0.96130  1.0000
  N   N10       1.0  0.14730  0.22890  0.53870  1.0000
  N   N11       1.0  0.64730  0.27110  0.03870  1.0000
  N   N12       1.0  0.85270  0.77110  0.46130  1.0000
  C   C13       1.0  0.96560  0.71600  0.01990  1.0000
  C   C14       1.0  0.53440  0.21600  0.48010  1.0000
  C   C15       1.0  0.03440  0.28400  0.98010  1.0000
  C   C16       1.0  0.46560  0.78400  0.51990  1.0000
  H   H9        1.0  0.90790  0.73850  0.99600  1.0000
  H   H10       1.0  0.59210  0.23850  0.50400  1.0000
  H   H11       1.0  0.09210  0.26150  0.00400  1.0000
  H   H12       1.0  0.40790  0.76150  0.49600  1.0000
  O   O13       1.0  0.94950  0.90660  0.91200  1.0000
  O   O14       1.0  0.55050  0.40660  0.58800  1.0000
  O   O15       1.0  0.05050  0.09340  0.08800  1.0000
  O   O16       1.0  0.44950  0.59340  0.41200  1.0000
  O   O17       1.0  0.24720  0.97590  0.11380  1.0000
  O   O18       1.0  0.25280  0.47590  0.38620  1.0000
  O   O19       1.0  0.75280  0.02410  0.88620  1.0000
  O   O20       1.0  0.74720  0.52410  0.61380  1.0000
  C   C17       1.0  0.03540  0.78140  0.00590  1.0000
  C   C18       1.0  0.46460  0.28140  0.49410  1.0000
  C   C19       1.0  0.96460  0.21860  0.99410  1.0000
  C   C20       1.0  0.53540  0.71860  0.50590  1.0000
  C   C21       1.0  0.23290  0.63700  0.12400  1.0000
  C   C22       1.0  0.26710  0.13700  0.37600  1.0000
  C   C23       1.0  0.76710  0.36300  0.87600  1.0000
  C   C24       1.0  0.73290  0.86300  0.62400  1.0000
  O   O21       1.0  0.24480  0.16060  0.17500  1.0000
  O   O22       1.0  0.25520  0.66060  0.32500  1.0000
  O   O23       1.0  0.75520  0.83940  0.82500  1.0000
  O   O24       1.0  0.74480  0.33940  0.67500  1.0000
  O   O25       1.0  0.25570  0.97020  0.90220  1.0000
  O   O26       1.0  0.24430  0.47020  0.59780  1.0000
  O   O27       1.0  0.74430  0.02980  0.09780  1.0000
  O   O28       1.0  0.75570  0.52980  0.40220  1.0000
  C   C25       1.0  0.02470  0.88700  0.95080  1.0000
  C   C26       1.0  0.47530  0.38700  0.54920  1.0000
  C   C27       1.0  0.97530  0.11300  0.04920  1.0000
  C   C28       1.0  0.52470  0.61300  0.45080  1.0000
  O   O29       1.0  0.25110  0.15050  0.83690  1.0000
  O   O30       1.0  0.24890  0.65050  0.66310  1.0000
  O   O31       1.0  0.74890  0.84950  0.16310  1.0000
  O   O32       1.0  0.75110  0.34950  0.33690  1.0000
  C   C29       1.0  0.26090  0.18660  0.06530  1.0000
  C   C30       1.0  0.23910  0.68660  0.43470  1.0000
  C   C31       1.0  0.73910  0.81340  0.93470  1.0000
  C   C32       1.0  0.76090  0.31340  0.56530  1.0000
  O   O33       1.0  0.40240  0.90210  0.06160  1.0000
  O   O34       1.0  0.09760  0.40210  0.43840  1.0000
  O   O35       1.0  0.59760  0.09790  0.93840  1.0000
  O   O36       1.0  0.90240  0.59790  0.56160  1.0000
  C   C33       1.0  0.26820  0.32540  0.06710  1.0000
  C   C34       1.0  0.23180  0.82540  0.43290  1.0000
  C   C35       1.0  0.73180  0.67460  0.93290  1.0000
  C   C36       1.0  0.76820  0.17460  0.56710  1.0000
  H   H13       1.0  0.27130  0.37150  0.10690  1.0000
  H   H14       1.0  0.22870  0.87150  0.39310  1.0000
  H   H15       1.0  0.72870  0.62850  0.89310  1.0000
  H   H16       1.0  0.77130  0.12850  0.60690  1.0000
  C   C37       1.0  0.27090  0.39510  0.01070  1.0000
  C   C38       1.0  0.22910  0.89510  0.48930  1.0000
  C   C39       1.0  0.72910  0.60490  0.98930  1.0000
  C   C40       1.0  0.77090  0.10490  0.51070  1.0000
  H   H17       1.0  0.27710  0.48820  0.01200  1.0000
  H   H18       1.0  0.22290  0.98820  0.48800  1.0000
  H   H19       1.0  0.72290  0.51180  0.98800  1.0000
  H   H20       1.0  0.77710  0.01180  0.51200  1.0000
  O   O37       1.0  0.54420  0.87080  0.07110  1.0000
  O   O38       1.0  0.95580  0.37080  0.42890  1.0000
  O   O39       1.0  0.45580  0.12920  0.92890  1.0000
  O   O40       1.0  0.04420  0.62920  0.57110  1.0000
  O   O41       1.0  0.18190  0.69200  0.91850  1.0000
  O   O42       1.0  0.31810  0.19200  0.58150  1.0000
  O   O43       1.0  0.81810  0.30800  0.08150  1.0000
  O   O44       1.0  0.68190  0.80800  0.41850  1.0000
  C   C41       1.0  0.26420  0.32280  0.95070  1.0000
  C   C42       1.0  0.23580  0.82280  0.54930  1.0000
  C   C43       1.0  0.73580  0.67720  0.04930  1.0000
  C   C44       1.0  0.76420  0.17720  0.45070  1.0000
  H   H21       1.0  0.26310  0.36750  0.91100  1.0000
  H   H22       1.0  0.23690  0.86750  0.58900  1.0000
  H   H23       1.0  0.73690  0.63250  0.08900  1.0000
  H   H24       1.0  0.76310  0.13250  0.41100  1.0000
  C   C45       1.0  0.25920  0.18350  0.95240  1.0000
  C   C46       1.0  0.24080  0.68350  0.54760  1.0000
  C   C47       1.0  0.74080  0.81650  0.04760  1.0000
  C   C48       1.0  0.75920  0.31650  0.45240  1.0000
  O   O45       1.0  0.18970  0.58000  0.82750  1.0000
  O   O46       1.0  0.31030  0.08000  0.67250  1.0000
  O   O47       1.0  0.81030  0.42000  0.17250  1.0000
  O   O48       1.0  0.68970  0.92000  0.32750  1.0000
  O   O49       1.0  0.33130  0.87230  0.24450  1.0000
  O   O50       1.0  0.16870  0.37230  0.25550  1.0000
  O   O51       1.0  0.66870  0.12770  0.75550  1.0000
  O   O52       1.0  0.83130  0.62770  0.74450  1.0000
  H   H25       1.0  0.30970  0.87430  0.20160  1.0000
  H   H26       1.0  0.19030  0.37430  0.29840  1.0000
  H   H27       1.0  0.69030  0.12570  0.79840  1.0000
  H   H28       1.0  0.80970  0.62570  0.70160  1.0000
  H   H29       1.0  0.31020  0.93060  0.26540  1.0000
  H   H30       1.0  0.18980  0.43060  0.23460  1.0000
  H   H31       1.0  0.68980  0.06940  0.73460  1.0000
  H   H32       1.0  0.81020  0.56940  0.76540  1.0000
  C   C49       1.0  0.25020  0.10240  0.12340  1.0000
  C   C50       1.0  0.24980  0.60240  0.37660  1.0000
  C   C51       1.0  0.74980  0.89760  0.87660  1.0000
  C   C52       1.0  0.75020  0.39760  0.62340  1.0000
  O   O53       1.0  0.45220  0.65570  0.18230  1.0000
  O   O54       1.0  0.04780  0.15570  0.31770  1.0000
  O   O55       1.0  0.54780  0.34430  0.81770  1.0000
  O   O56       1.0  0.95220  0.84430  0.68230  1.0000
  H   H33       1.0  0.40940  0.66790  0.14670  1.0000
  H   H34       1.0  0.09060  0.16790  0.35330  1.0000
  H   H35       1.0  0.59060  0.33210  0.85330  1.0000
  H   H36       1.0  0.90940  0.83210  0.64670  1.0000
  H   H37       1.0  0.50170  0.68560  0.18120  1.0000
  H   H38       1.0  0.99830  0.18560  0.31880  1.0000
  H   H39       1.0  0.49830  0.31440  0.81880  1.0000
  H   H40       1.0  0.00170  0.81440  0.68120  1.0000
  C   C53       1.0  0.25530  0.09410  0.89200  1.0000
  C   C54       1.0  0.24470  0.59410  0.60800  1.0000
  C   C55       1.0  0.74470  0.90590  0.10800  1.0000
  C   C56       1.0  0.75530  0.40590  0.39200  1.0000
  C   C57       1.0  0.43890  0.75320  0.98540  1.0000
  C   C58       1.0  0.06110  0.25320  0.51460  1.0000
  C   C59       1.0  0.56110  0.24680  0.01460  1.0000
  C   C60       1.0  0.93890  0.74680  0.48540  1.0000
  O   O57       1.0  0.50860  0.81940  0.33140  1.0000
  O   O58       1.0  0.99140  0.31940  0.16860  1.0000
  O   O59       1.0  0.49140  0.18060  0.66860  1.0000
  O   O60       1.0  0.00860  0.68060  0.83140  1.0000
  H   H41       1.0  0.55570  0.78480  0.35690  1.0000
  H   H42       1.0  0.94430  0.28480  0.14310  1.0000
  H   H43       1.0  0.44430  0.21520  0.64310  1.0000
  H   H44       1.0  0.05570  0.71520  0.85690  1.0000
  H   H45       1.0  0.52950  0.86990  0.30680  1.0000
  H   H46       1.0  0.97050  0.36990  0.19320  1.0000
  H   H47       1.0  0.47050  0.13010  0.69320  1.0000
  H   H48       1.0  0.02950  0.63010  0.80680  1.0000
  O   O61       1.0  0.54970  0.50620  0.30910  1.0000
  O   O62       1.0  0.95030  0.00620  0.19090  1.0000
  O   O63       1.0  0.45030  0.49380  0.69090  1.0000
  O   O64       1.0  0.04970  0.99380  0.80910  1.0000
  H   H49       1.0  0.56070  0.53170  0.27320  1.0000
  H   H50       1.0  0.93930  0.03170  0.22680  1.0000
  H   H51       1.0  0.43930  0.46830  0.72680  1.0000
  H   H52       1.0  0.06070  0.96830  0.77320  1.0000
  H   H53       1.0  0.59850  0.48880  0.33850  1.0000
  H   H54       1.0  0.90150  0.98880  0.16150  1.0000
  H   H55       1.0  0.40150  0.51120  0.66150  1.0000
  H   H56       1.0  0.09850  0.01120  0.83850  1.0000
  C   C61       1.0  0.49850  0.69340  0.95650  1.0000
  C   C62       1.0  0.00150  0.19340  0.54350  1.0000
  C   C63       1.0  0.50150  0.30660  0.04350  1.0000
  C   C64       1.0  0.99850  0.80660  0.45650  1.0000
  H   H57       1.0  0.55830  0.71200  0.97350  1.0000
  H   H58       1.0  0.94170  0.21200  0.52650  1.0000
  H   H59       1.0  0.44170  0.28800  0.02650  1.0000
  H   H60       1.0  0.05830  0.78800  0.47350  1.0000
  C   C65       1.0  0.46840  0.60660  0.90250  1.0000
  C   C66       1.0  0.03160  0.10660  0.59750  1.0000
  C   C67       1.0  0.53160  0.39340  0.09750  1.0000
  C   C68       1.0  0.96840  0.89340  0.40250  1.0000
  H   H61       1.0  0.50770  0.56240  0.88440  1.0000
  H   H62       1.0  0.99230  0.06240  0.61560  1.0000
  H   H63       1.0  0.49230  0.43760  0.11560  1.0000
  H   H64       1.0  0.00770  0.93760  0.38440  1.0000
  O   O65       1.0  0.36750  0.36600  0.28190  1.0000
  O   O66       1.0  0.13250  0.86600  0.21810  1.0000
  O   O67       1.0  0.63250  0.63400  0.71810  1.0000
  O   O68       1.0  0.86750  0.13400  0.78190  1.0000
  H   H65       1.0  0.35450  0.33230  0.24240  1.0000
  H   H66       1.0  0.14550  0.83230  0.25760  1.0000
  H   H67       1.0  0.64550  0.66770  0.75760  1.0000
  H   H68       1.0  0.85450  0.16770  0.74240  1.0000
  H   H69       1.0  0.33510  0.32490  0.30150  1.0000
  H   H70       1.0  0.16490  0.82490  0.19850  1.0000
  H   H71       1.0  0.66490  0.67510  0.69850  1.0000
  H   H72       1.0  0.83510  0.17510  0.80150  1.0000
  C   C69       1.0  0.37860  0.58630  0.87570  1.0000
  C   C70       1.0  0.12140  0.08630  0.62430  1.0000
  C   C71       1.0  0.62140  0.41370  0.12430  1.0000
  C   C72       1.0  0.87860  0.91370  0.37570  1.0000
  H   H73       1.0  0.35620  0.53210  0.83780  1.0000
  H   H74       1.0  0.14380  0.03210  0.66220  1.0000
  H   H75       1.0  0.64380  0.46790  0.16220  1.0000
  H   H76       1.0  0.85620  0.96790  0.33780  1.0000
  C   C73       1.0  0.32220  0.64950  0.90710  1.0000
  C   C74       1.0  0.17780  0.14950  0.59290  1.0000
  C   C75       1.0  0.67780  0.35050  0.09290  1.0000
  C   C76       1.0  0.82220  0.85050  0.40710  1.0000
  C   C77       1.0  0.46450  0.84970  0.04440  1.0000
  C   C78       1.0  0.03550  0.34970  0.45560  1.0000
  C   C79       1.0  0.53550  0.15030  0.95560  1.0000
  C   C80       1.0  0.96450  0.65030  0.54440  1.0000
  C   C81       1.0  0.22340  0.63950  0.88190  1.0000
  C   C82       1.0  0.27660  0.13950  0.61810  1.0000
  C   C83       1.0  0.77660  0.36050  0.11810  1.0000
  C   C84       1.0  0.72340  0.86050  0.38190  1.0000
