data_image0
_chemical_formula_structural       Cd2S4N4O4C6
_chemical_formula_sum              "Cd2 S4 N4 O4 C6"
_cell_length_a       8.9872
_cell_length_b       9.1559
_cell_length_c       9.2538
_cell_angle_alpha    112.213
_cell_angle_beta     108.439
_cell_angle_gamma    97.48

_space_group_name_H-M_alt    "P 1"
_space_group_IT_number       1

loop_
  _space_group_symop_operation_xyz
  'x, y, z'

loop_
  _atom_site_type_symbol
  _atom_site_label
  _atom_site_symmetry_multiplicity
  _atom_site_fract_x
  _atom_site_fract_y
  _atom_site_fract_z
  _atom_site_occupancy
  Cd  Cd1       1.0  0.21816  0.84713  0.67727  1.0000
  Cd  Cd2       1.0  0.78184  0.15287  0.32273  1.0000
  S   S1        1.0  0.31885  0.02385  0.54061  1.0000
  S   S2        1.0  0.68115  0.97615  0.45939  1.0000
  S   S3        1.0  0.49287  0.74611  0.71581  1.0000
  S   S4        1.0  0.50713  0.25389  0.28419  1.0000
  N   N1        1.0  0.03201  0.08580  0.37920  1.0000
  N   N2        1.0  0.96799  0.91420  0.62080  1.0000
  N   N3        1.0  0.69550  0.98730  0.04257  1.0000
  N   N4        1.0  0.30450  0.01270  0.95743  1.0000
  O   O1        1.0  0.11165  0.60120  0.42429  1.0000
  O   O2        1.0  0.88835  0.39880  0.57571  1.0000
  O   O3        1.0  0.93530  0.35312  0.28947  1.0000
  O   O4        1.0  0.06470  0.64688  0.71053  1.0000
  C   C1        1.0  0.15009  0.06140  0.44749  1.0000
  C   C2        1.0  0.84991  0.93860  0.55251  1.0000
  C   C3        1.0  0.61128  0.88895  0.90806  1.0000
  C   C4        1.0  0.38872  0.11105  0.09194  1.0000
  C   C5        1.0  0.01320  0.48634  0.41744  1.0000
  C   C6        1.0  0.98680  0.51366  0.58256  1.0000
