data_image0
_chemical_formula_structural       Zn4O24C16O8
_chemical_formula_sum              "Zn4 O32 C16"
_cell_length_a       9.415
_cell_length_b       16.784
_cell_length_c       9.792
_cell_angle_alpha    90
_cell_angle_beta     91.44
_cell_angle_gamma    90

_space_group_name_H-M_alt    "P 1"
_space_group_IT_number       1

loop_
  _space_group_symop_operation_xyz
  'x, y, z'

loop_
  _atom_site_type_symbol
  _atom_site_label
  _atom_site_symmetry_multiplicity
  _atom_site_fract_x
  _atom_site_fract_y
  _atom_site_fract_z
  _atom_site_occupancy
  Zn  Zn1       1.0  0.09876  0.45399  0.25132  1.0000
  Zn  Zn2       1.0  0.40124  0.95399  0.24868  1.0000
  Zn  Zn3       1.0  0.90124  0.54601  0.74868  1.0000
  Zn  Zn4       1.0  0.59876  0.04601  0.75132  1.0000
  O   O1        1.0  0.92183  0.44056  0.37173  1.0000
  O   O2        1.0  0.57817  0.94056  0.12827  1.0000
  O   O3        1.0  0.07817  0.55944  0.62827  1.0000
  O   O4        1.0  0.42183  0.05944  0.87173  1.0000
  O   O5        1.0  0.04308  0.55725  0.14424  1.0000
  O   O6        1.0  0.45692  0.05725  0.35576  1.0000
  O   O7        1.0  0.95692  0.44275  0.85576  1.0000
  O   O8        1.0  0.54308  0.94275  0.64424  1.0000
  O   O9        1.0  0.31121  0.46208  0.19803  1.0000
  O   O10       1.0  0.18879  0.96208  0.30197  1.0000
  O   O11       1.0  0.68879  0.53792  0.80197  1.0000
  O   O12       1.0  0.81121  0.03792  0.69803  1.0000
  O   O13       1.0  0.17187  0.34140  0.31352  1.0000
  O   O14       1.0  0.32813  0.84140  0.18648  1.0000
  O   O15       1.0  0.82813  0.65860  0.68648  1.0000
  O   O16       1.0  0.67187  0.15860  0.81352  1.0000
  O   O17       1.0  0.96954  0.59575  0.93585  1.0000
  O   O18       1.0  0.53046  0.09575  0.56415  1.0000
  O   O19       1.0  0.03046  0.40425  0.06415  1.0000
  O   O20       1.0  0.46954  0.90425  0.43585  1.0000
  O   O21       1.0  0.83982  0.47585  0.57488  1.0000
  O   O22       1.0  0.66018  0.97585  0.92512  1.0000
  O   O23       1.0  0.16018  0.52415  0.42512  1.0000
  O   O24       1.0  0.33982  0.02415  0.07488  1.0000
  C   C1        1.0  0.93140  0.47561  0.48440  1.0000
  C   C2        1.0  0.56860  0.97561  0.01560  1.0000
  C   C3        1.0  0.06860  0.52439  0.51560  1.0000
  C   C4        1.0  0.43140  0.02439  0.98440  1.0000
  C   C5        1.0  0.37830  0.39827  0.21580  1.0000
  C   C6        1.0  0.12170  0.89827  0.28420  1.0000
  C   C7        1.0  0.62170  0.60173  0.78420  1.0000
  C   C8        1.0  0.87830  0.10173  0.71580  1.0000
  C   C9        1.0  0.29570  0.32647  0.27430  1.0000
  C   C10       1.0  0.20430  0.82647  0.22570  1.0000
  C   C11       1.0  0.70430  0.67353  0.72570  1.0000
  C   C12       1.0  0.79570  0.17353  0.77430  1.0000
  C   C13       1.0  0.00360  0.54419  0.02280  1.0000
  C   C14       1.0  0.49640  0.04419  0.47720  1.0000
  C   C15       1.0  0.99640  0.45581  0.97720  1.0000
  C   C16       1.0  0.50360  0.95581  0.52280  1.0000
  O   O25       1.0  0.35610  0.26103  0.27810  1.0000
  O   O26       1.0  0.14390  0.76103  0.22190  1.0000
  O   O27       1.0  0.64390  0.73897  0.72190  1.0000
  O   O28       1.0  0.85610  0.23897  0.77810  1.0000
  O   O29       1.0  0.50410  0.38707  0.18780  1.0000
  O   O30       1.0  0.99590  0.88707  0.31220  1.0000
  O   O31       1.0  0.49590  0.61293  0.81220  1.0000
  O   O32       1.0  0.00410  0.11293  0.68780  1.0000
