data_image0
_chemical_formula_structural       Zn4O24C16O8
_chemical_formula_sum              "Zn4 O32 C16"
_cell_length_a       9.412
_cell_length_b       16.774
_cell_length_c       9.793
_cell_angle_alpha    90
_cell_angle_beta     91.44
_cell_angle_gamma    90

_space_group_name_H-M_alt    "P 1"
_space_group_IT_number       1

loop_
  _space_group_symop_operation_xyz
  'x, y, z'

loop_
  _atom_site_type_symbol
  _atom_site_label
  _atom_site_symmetry_multiplicity
  _atom_site_fract_x
  _atom_site_fract_y
  _atom_site_fract_z
  _atom_site_occupancy
  Zn  Zn1       1.0  0.09863  0.45397  0.25130  1.0000
  Zn  Zn2       1.0  0.40137  0.95397  0.24870  1.0000
  Zn  Zn3       1.0  0.90137  0.54603  0.74870  1.0000
  Zn  Zn4       1.0  0.59863  0.04603  0.75130  1.0000
  O   O1        1.0  0.92165  0.44051  0.37177  1.0000
  O   O2        1.0  0.57835  0.94051  0.12823  1.0000
  O   O3        1.0  0.07835  0.55949  0.62823  1.0000
  O   O4        1.0  0.42165  0.05949  0.87177  1.0000
  O   O5        1.0  0.04294  0.55728  0.14438  1.0000
  O   O6        1.0  0.45706  0.05728  0.35562  1.0000
  O   O7        1.0  0.95706  0.44272  0.85562  1.0000
  O   O8        1.0  0.54294  0.94272  0.64438  1.0000
  O   O9        1.0  0.31123  0.46213  0.19798  1.0000
  O   O10       1.0  0.18877  0.96213  0.30202  1.0000
  O   O11       1.0  0.68877  0.53787  0.80202  1.0000
  O   O12       1.0  0.81123  0.03787  0.69798  1.0000
  O   O13       1.0  0.17194  0.34116  0.31345  1.0000
  O   O14       1.0  0.32806  0.84116  0.18655  1.0000
  O   O15       1.0  0.82806  0.65884  0.68655  1.0000
  O   O16       1.0  0.67194  0.15884  0.81345  1.0000
  O   O17       1.0  0.96955  0.59587  0.93569  1.0000
  O   O18       1.0  0.53045  0.09587  0.56431  1.0000
  O   O19       1.0  0.03045  0.40413  0.06431  1.0000
  O   O20       1.0  0.46955  0.90413  0.43569  1.0000
  O   O21       1.0  0.83978  0.47577  0.57503  1.0000
  O   O22       1.0  0.66022  0.97577  0.92497  1.0000
  O   O23       1.0  0.16022  0.52423  0.42497  1.0000
  O   O24       1.0  0.33978  0.02423  0.07503  1.0000
  C   C1        1.0  0.93100  0.47565  0.48440  1.0000
  C   C2        1.0  0.56900  0.97565  0.01560  1.0000
  C   C3        1.0  0.06900  0.52435  0.51560  1.0000
  C   C4        1.0  0.43100  0.02435  0.98440  1.0000
  C   C5        1.0  0.37860  0.39836  0.21590  1.0000
  C   C6        1.0  0.12140  0.89836  0.28410  1.0000
  C   C7        1.0  0.62140  0.60164  0.78410  1.0000
  C   C8        1.0  0.87860  0.10164  0.71590  1.0000
  C   C9        1.0  0.29560  0.32631  0.27410  1.0000
  C   C10       1.0  0.20440  0.82631  0.22590  1.0000
  C   C11       1.0  0.70440  0.67369  0.72590  1.0000
  C   C12       1.0  0.79560  0.17369  0.77410  1.0000
  C   C13       1.0  0.00370  0.54413  0.02280  1.0000
  C   C14       1.0  0.49630  0.04413  0.47720  1.0000
  C   C15       1.0  0.99630  0.45587  0.97720  1.0000
  C   C16       1.0  0.50370  0.95587  0.52280  1.0000
  O   O25       1.0  0.35650  0.26108  0.27800  1.0000
  O   O26       1.0  0.14350  0.76108  0.22200  1.0000
  O   O27       1.0  0.64350  0.73892  0.72200  1.0000
  O   O28       1.0  0.85650  0.23892  0.77800  1.0000
  O   O29       1.0  0.50440  0.38726  0.18800  1.0000
  O   O30       1.0  0.99560  0.88726  0.31200  1.0000
  O   O31       1.0  0.49560  0.61274  0.81200  1.0000
  O   O32       1.0  0.00440  0.11274  0.68800  1.0000
