data_image0
_chemical_formula_structural       Zn4O24C16O8
_chemical_formula_sum              "Zn4 O32 C16"
_cell_length_a       9.4328
_cell_length_b       16.8597
_cell_length_c       9.7878
_cell_angle_alpha    90
_cell_angle_beta     91.373
_cell_angle_gamma    90

_space_group_name_H-M_alt    "P 1"
_space_group_IT_number       1

loop_
  _space_group_symop_operation_xyz
  'x, y, z'

loop_
  _atom_site_type_symbol
  _atom_site_label
  _atom_site_symmetry_multiplicity
  _atom_site_fract_x
  _atom_site_fract_y
  _atom_site_fract_z
  _atom_site_occupancy
  Zn  Zn1       1.0  0.09927  0.45422  0.25142  1.0000
  Zn  Zn2       1.0  0.40073  0.95422  0.24858  1.0000
  Zn  Zn3       1.0  0.90073  0.54578  0.74858  1.0000
  Zn  Zn4       1.0  0.59927  0.04578  0.75142  1.0000
  O   O1        1.0  0.92200  0.44170  0.37100  1.0000
  O   O2        1.0  0.57800  0.94170  0.12900  1.0000
  O   O3        1.0  0.07800  0.55830  0.62900  1.0000
  O   O4        1.0  0.42200  0.05830  0.87100  1.0000
  O   O5        1.0  0.04410  0.55680  0.14370  1.0000
  O   O6        1.0  0.45590  0.05680  0.35630  1.0000
  O   O7        1.0  0.95590  0.44320  0.85630  1.0000
  O   O8        1.0  0.54410  0.94320  0.64370  1.0000
  O   O9        1.0  0.31190  0.46140  0.19780  1.0000
  O   O10       1.0  0.18810  0.96140  0.30220  1.0000
  O   O11       1.0  0.68810  0.53860  0.80220  1.0000
  O   O12       1.0  0.81190  0.03860  0.69780  1.0000
  O   O13       1.0  0.17120  0.34160  0.31440  1.0000
  O   O14       1.0  0.32880  0.84160  0.18560  1.0000
  O   O15       1.0  0.82880  0.65840  0.68560  1.0000
  O   O16       1.0  0.67120  0.15840  0.81440  1.0000
  O   O17       1.0  0.97070  0.59540  0.93660  1.0000
  O   O18       1.0  0.52930  0.09540  0.56340  1.0000
  O   O19       1.0  0.02930  0.40460  0.06340  1.0000
  O   O20       1.0  0.47070  0.90460  0.43660  1.0000
  O   O21       1.0  0.83960  0.47610  0.57500  1.0000
  O   O22       1.0  0.66040  0.97610  0.92500  1.0000
  O   O23       1.0  0.16040  0.52390  0.42500  1.0000
  O   O24       1.0  0.33960  0.02390  0.07500  1.0000
  C   C1        1.0  0.93180  0.47580  0.48440  1.0000
  C   C2        1.0  0.56820  0.97580  0.01560  1.0000
  C   C3        1.0  0.06820  0.52420  0.51560  1.0000
  C   C4        1.0  0.43180  0.02420  0.98440  1.0000
  C   C5        1.0  0.37680  0.39830  0.21590  1.0000
  C   C6        1.0  0.12320  0.89830  0.28410  1.0000
  C   C7        1.0  0.62320  0.60170  0.78410  1.0000
  C   C8        1.0  0.87680  0.10170  0.71590  1.0000
  C   C9        1.0  0.29450  0.32750  0.27640  1.0000
  C   C10       1.0  0.20550  0.82750  0.22360  1.0000
  C   C11       1.0  0.70550  0.67250  0.72360  1.0000
  C   C12       1.0  0.79450  0.17250  0.77640  1.0000
  C   C13       1.0  0.00390  0.54380  0.02370  1.0000
  C   C14       1.0  0.49610  0.04380  0.47630  1.0000
  C   C15       1.0  0.99610  0.45620  0.97630  1.0000
  C   C16       1.0  0.50390  0.95620  0.52370  1.0000
  O   O25       1.0  0.35540  0.26180  0.28020  1.0000
  O   O26       1.0  0.14460  0.76180  0.21980  1.0000
  O   O27       1.0  0.64460  0.73820  0.71980  1.0000
  O   O28       1.0  0.85540  0.23820  0.78020  1.0000
  O   O29       1.0  0.50350  0.38630  0.18870  1.0000
  O   O30       1.0  0.99650  0.88630  0.31130  1.0000
  O   O31       1.0  0.49650  0.61370  0.81130  1.0000
  O   O32       1.0  0.00350  0.11370  0.68870  1.0000
