data_image0
_chemical_formula_structural       Zn2O4C2O4C2O8C4Zn2O8C4O4C2O4C2
_chemical_formula_sum              "Zn4 O32 C16"
_cell_length_a       9.389
_cell_length_b       16.657
_cell_length_c       9.816
_cell_angle_alpha    90
_cell_angle_beta     91.3
_cell_angle_gamma    90

_space_group_name_H-M_alt    "P 1"
_space_group_IT_number       1

loop_
  _space_group_symop_operation_xyz
  'x, y, z'

loop_
  _atom_site_type_symbol
  _atom_site_label
  _atom_site_symmetry_multiplicity
  _atom_site_fract_x
  _atom_site_fract_y
  _atom_site_fract_z
  _atom_site_occupancy
  Zn  Zn1       1.0  0.34890  0.54625  0.99465  1.0000
  Zn  Zn2       1.0  0.65110  0.04625  0.00535  1.0000
  O   O1        1.0  0.29530  0.44240  0.88850  1.0000
  O   O2        1.0  0.70470  0.94240  0.11150  1.0000
  O   O3        1.0  0.22130  0.40470  0.67980  1.0000
  O   O4        1.0  0.77870  0.90470  0.32020  1.0000
  C   C1        1.0  0.25500  0.45720  0.76750  1.0000
  C   C2        1.0  0.74500  0.95720  0.23250  1.0000
  O   O5        1.0  0.09360  0.52790  0.32200  1.0000
  O   O6        1.0  0.90640  0.02790  0.67800  1.0000
  O   O7        1.0  0.17170  0.55930  0.11600  1.0000
  O   O8        1.0  0.82830  0.05930  0.88400  1.0000
  C   C3        1.0  0.18300  0.52610  0.23070  1.0000
  C   C4        1.0  0.81700  0.02610  0.76930  1.0000
  O   O9        1.0  0.56420  0.53550  0.94470  1.0000
  O   O10       1.0  0.43580  0.03550  0.05530  1.0000
  O   O11       1.0  0.42250  0.65940  0.05640  1.0000
  O   O12       1.0  0.57750  0.15940  0.94360  1.0000
  O   O13       1.0  0.76790  0.60410  0.96830  1.0000
  O   O14       1.0  0.23210  0.10410  0.03170  1.0000
  O   O15       1.0  0.61760  0.73550  0.03820  1.0000
  O   O16       1.0  0.38240  0.23550  0.96180  1.0000
  C   C5        1.0  0.63600  0.59640  0.97700  1.0000
  C   C6        1.0  0.36400  0.09640  0.02300  1.0000
  C   C7        1.0  0.55120  0.67140  0.02820  1.0000
  C   C8        1.0  0.44880  0.17140  0.97180  1.0000
  Zn  Zn3       1.0  0.15412  0.45513  0.49306  1.0000
  Zn  Zn4       1.0  0.84588  0.95513  0.50694  1.0000
  O   O17       1.0  0.90340  0.25734  0.48010  1.0000
  O   O18       1.0  0.09660  0.75734  0.51990  1.0000
  O   O19       1.0  0.75857  0.38219  0.58960  1.0000
  O   O20       1.0  0.24143  0.88219  0.41040  1.0000
  O   O21       1.0  0.94213  0.46214  0.54999  1.0000
  O   O22       1.0  0.05787  0.96214  0.45001  1.0000
  O   O23       1.0  0.07856  0.34268  0.42872  1.0000
  O   O24       1.0  0.92144  0.84268  0.57128  1.0000
  C   C9        1.0  0.87785  0.39546  0.54527  1.0000
  C   C10       1.0  0.12215  0.89546  0.45473  1.0000
  C   C11       1.0  0.95989  0.32501  0.47842  1.0000
  C   C12       1.0  0.04011  0.82501  0.52158  1.0000
  O   O25       1.0  0.33067  0.44037  0.37286  1.0000
  O   O26       1.0  0.66933  0.94037  0.62714  1.0000
  O   O27       1.0  0.41360  0.47743  0.16978  1.0000
  O   O28       1.0  0.58640  0.97743  0.83022  1.0000
  C   C13       1.0  0.32046  0.47606  0.26231  1.0000
  C   C14       1.0  0.67954  0.97606  0.73769  1.0000
  O   O29       1.0  0.21507  0.55875  0.59901  1.0000
  O   O30       1.0  0.78493  0.05875  0.40099  1.0000
  O   O31       1.0  0.28440  0.59789  0.80900  1.0000
  O   O32       1.0  0.71560  0.09789  0.19100  1.0000
  C   C15       1.0  0.25023  0.54593  0.72170  1.0000
  C   C16       1.0  0.74977  0.04593  0.27830  1.0000
