data_image0
_chemical_formula_structural       Zn2O4C2O4C2O8C4Zn2O8C4O4C2O4C2
_chemical_formula_sum              "Zn4 O32 C16"
_cell_length_a       9.404
_cell_length_b       16.733
_cell_length_c       9.803
_cell_angle_alpha    90
_cell_angle_beta     91.38
_cell_angle_gamma    90

_space_group_name_H-M_alt    "P 1"
_space_group_IT_number       1

loop_
  _space_group_symop_operation_xyz
  'x, y, z'

loop_
  _atom_site_type_symbol
  _atom_site_label
  _atom_site_symmetry_multiplicity
  _atom_site_fract_x
  _atom_site_fract_y
  _atom_site_fract_z
  _atom_site_occupancy
  Zn  Zn1       1.0  0.34897  0.54641  0.99752  1.0000
  Zn  Zn2       1.0  0.65103  0.04641  0.00248  1.0000
  O   O1        1.0  0.29650  0.44290  0.88970  1.0000
  O   O2        1.0  0.70350  0.94290  0.11030  1.0000
  O   O3        1.0  0.22000  0.40470  0.68220  1.0000
  O   O4        1.0  0.78000  0.90470  0.31780  1.0000
  C   C1        1.0  0.25360  0.45650  0.76890  1.0000
  C   C2        1.0  0.74640  0.95650  0.23110  1.0000
  O   O5        1.0  0.09370  0.52640  0.32300  1.0000
  O   O6        1.0  0.90630  0.02640  0.67700  1.0000
  O   O7        1.0  0.17220  0.55920  0.11790  1.0000
  O   O8        1.0  0.82780  0.05920  0.88210  1.0000
  C   C3        1.0  0.18360  0.52510  0.23290  1.0000
  C   C4        1.0  0.81640  0.02510  0.76710  1.0000
  O   O9        1.0  0.56290  0.53690  0.94480  1.0000
  O   O10       1.0  0.43710  0.03690  0.05520  1.0000
  O   O11       1.0  0.42100  0.65970  0.05690  1.0000
  O   O12       1.0  0.57900  0.15970  0.94310  1.0000
  O   O13       1.0  0.76430  0.60680  0.96120  1.0000
  O   O14       1.0  0.23570  0.10680  0.03880  1.0000
  O   O15       1.0  0.61390  0.73590  0.03420  1.0000
  O   O16       1.0  0.38610  0.23590  0.96580  1.0000
  C   C5        1.0  0.63370  0.59840  0.97490  1.0000
  C   C6        1.0  0.36630  0.09840  0.02510  1.0000
  C   C7        1.0  0.54810  0.67180  0.02520  1.0000
  C   C8        1.0  0.45190  0.17180  0.97480  1.0000
  Zn  Zn3       1.0  0.15251  0.45478  0.49532  1.0000
  Zn  Zn4       1.0  0.84749  0.95478  0.50468  1.0000
  O   O17       1.0  0.90040  0.25777  0.47770  1.0000
  O   O18       1.0  0.09960  0.75777  0.52230  1.0000
  O   O19       1.0  0.75550  0.38270  0.58670  1.0000
  O   O20       1.0  0.24450  0.88270  0.41330  1.0000
  O   O21       1.0  0.93997  0.46237  0.54890  1.0000
  O   O22       1.0  0.06003  0.96237  0.45110  1.0000
  O   O23       1.0  0.07650  0.34284  0.42810  1.0000
  O   O24       1.0  0.92350  0.84284  0.57190  1.0000
  C   C9        1.0  0.87530  0.39585  0.54340  1.0000
  C   C10       1.0  0.12470  0.89585  0.45660  1.0000
  C   C11       1.0  0.95740  0.32533  0.47680  1.0000
  C   C12       1.0  0.04260  0.82533  0.52320  1.0000
  O   O25       1.0  0.32990  0.44006  0.37460  1.0000
  O   O26       1.0  0.67010  0.94006  0.62540  1.0000
  O   O27       1.0  0.41470  0.47720  0.17240  1.0000
  O   O28       1.0  0.58530  0.97720  0.82760  1.0000
  C   C13       1.0  0.32080  0.47590  0.26420  1.0000
  C   C14       1.0  0.67920  0.97590  0.73580  1.0000
  O   O29       1.0  0.21320  0.55834  0.60040  1.0000
  O   O30       1.0  0.78680  0.05834  0.39960  1.0000
  O   O31       1.0  0.28100  0.59690  0.81120  1.0000
  O   O32       1.0  0.71900  0.09690  0.18880  1.0000
  C   C15       1.0  0.24720  0.54522  0.72330  1.0000
  C   C16       1.0  0.75280  0.04522  0.27670  1.0000
