data_image0
_chemical_formula_structural       Zn4O24C16O8
_chemical_formula_sum              "Zn4 O32 C16"
_cell_length_a       9.408
_cell_length_b       16.763
_cell_length_c       9.794
_cell_angle_alpha    90
_cell_angle_beta     91.44
_cell_angle_gamma    90

_space_group_name_H-M_alt    "P 1"
_space_group_IT_number       1

loop_
  _space_group_symop_operation_xyz
  'x, y, z'

loop_
  _atom_site_type_symbol
  _atom_site_label
  _atom_site_symmetry_multiplicity
  _atom_site_fract_x
  _atom_site_fract_y
  _atom_site_fract_z
  _atom_site_occupancy
  Zn  Zn1       1.0  0.09847  0.45397  0.25123  1.0000
  Zn  Zn2       1.0  0.40153  0.95397  0.24877  1.0000
  Zn  Zn3       1.0  0.90153  0.54603  0.74877  1.0000
  Zn  Zn4       1.0  0.59847  0.04603  0.75123  1.0000
  O   O1        1.0  0.92145  0.44056  0.37176  1.0000
  O   O2        1.0  0.57855  0.94056  0.12824  1.0000
  O   O3        1.0  0.07855  0.55944  0.62824  1.0000
  O   O4        1.0  0.42145  0.05944  0.87176  1.0000
  O   O5        1.0  0.04260  0.55741  0.14428  1.0000
  O   O6        1.0  0.45740  0.05741  0.35572  1.0000
  O   O7        1.0  0.95740  0.44259  0.85572  1.0000
  O   O8        1.0  0.54260  0.94259  0.64428  1.0000
  O   O9        1.0  0.31130  0.46223  0.19827  1.0000
  O   O10       1.0  0.18870  0.96223  0.30173  1.0000
  O   O11       1.0  0.68870  0.53777  0.80173  1.0000
  O   O12       1.0  0.81130  0.03777  0.69827  1.0000
  O   O13       1.0  0.17195  0.34127  0.31345  1.0000
  O   O14       1.0  0.32805  0.84127  0.18655  1.0000
  O   O15       1.0  0.82805  0.65873  0.68655  1.0000
  O   O16       1.0  0.67195  0.15873  0.81345  1.0000
  O   O17       1.0  0.96935  0.59586  0.93562  1.0000
  O   O18       1.0  0.53065  0.09586  0.56438  1.0000
  O   O19       1.0  0.03065  0.40414  0.06438  1.0000
  O   O20       1.0  0.46935  0.90414  0.43562  1.0000
  O   O21       1.0  0.83974  0.47573  0.57535  1.0000
  O   O22       1.0  0.66026  0.97573  0.92465  1.0000
  O   O23       1.0  0.16026  0.52427  0.42465  1.0000
  O   O24       1.0  0.33974  0.02427  0.07535  1.0000
  C   C1        1.0  0.93100  0.47550  0.48430  1.0000
  C   C2        1.0  0.56900  0.97550  0.01570  1.0000
  C   C3        1.0  0.06900  0.52450  0.51570  1.0000
  C   C4        1.0  0.43100  0.02450  0.98430  1.0000
  C   C5        1.0  0.37870  0.39816  0.21540  1.0000
  C   C6        1.0  0.12130  0.89816  0.28460  1.0000
  C   C7        1.0  0.62130  0.60184  0.78460  1.0000
  C   C8        1.0  0.87870  0.10184  0.71540  1.0000
  C   C9        1.0  0.29570  0.32624  0.27400  1.0000
  C   C10       1.0  0.20430  0.82624  0.22600  1.0000
  C   C11       1.0  0.70430  0.67376  0.72600  1.0000
  C   C12       1.0  0.79570  0.17376  0.77400  1.0000
  C   C13       1.0  0.00350  0.54415  0.02300  1.0000
  C   C14       1.0  0.49650  0.04415  0.47700  1.0000
  C   C15       1.0  0.99650  0.45585  0.97700  1.0000
  C   C16       1.0  0.50350  0.95585  0.52300  1.0000
  O   O25       1.0  0.35630  0.26086  0.27780  1.0000
  O   O26       1.0  0.14370  0.76086  0.22220  1.0000
  O   O27       1.0  0.64370  0.73914  0.72220  1.0000
  O   O28       1.0  0.85630  0.23914  0.77780  1.0000
  O   O29       1.0  0.50440  0.38742  0.18780  1.0000
  O   O30       1.0  0.99560  0.88742  0.31220  1.0000
  O   O31       1.0  0.49560  0.61258  0.81220  1.0000
  O   O32       1.0  0.00440  0.11258  0.68780  1.0000
