data_image0
_chemical_formula_structural       Zn2O4C2O4C2O8C4Zn2O8C4O4C2O4C2
_chemical_formula_sum              "Zn4 O32 C16"
_cell_length_a       9.393
_cell_length_b       16.675
_cell_length_c       9.812
_cell_angle_alpha    90
_cell_angle_beta     91.32
_cell_angle_gamma    90

_space_group_name_H-M_alt    "P 1"
_space_group_IT_number       1

loop_
  _space_group_symop_operation_xyz
  'x, y, z'

loop_
  _atom_site_type_symbol
  _atom_site_label
  _atom_site_symmetry_multiplicity
  _atom_site_fract_x
  _atom_site_fract_y
  _atom_site_fract_z
  _atom_site_occupancy
  Zn  Zn1       1.0  0.34893  0.54628  0.99512  1.0000
  Zn  Zn2       1.0  0.65107  0.04628  0.00488  1.0000
  O   O1        1.0  0.29570  0.44260  0.88890  1.0000
  O   O2        1.0  0.70430  0.94260  0.11110  1.0000
  O   O3        1.0  0.22130  0.40470  0.68020  1.0000
  O   O4        1.0  0.77870  0.90470  0.31980  1.0000
  C   C1        1.0  0.25520  0.45690  0.76760  1.0000
  C   C2        1.0  0.74480  0.95690  0.23240  1.0000
  O   O5        1.0  0.09360  0.52780  0.32220  1.0000
  O   O6        1.0  0.90640  0.02780  0.67780  1.0000
  O   O7        1.0  0.17230  0.55960  0.11610  1.0000
  O   O8        1.0  0.82770  0.05960  0.88390  1.0000
  C   C3        1.0  0.18260  0.52600  0.23110  1.0000
  C   C4        1.0  0.81740  0.02600  0.76890  1.0000
  O   O9        1.0  0.56380  0.53550  0.94440  1.0000
  O   O10       1.0  0.43620  0.03550  0.05560  1.0000
  O   O11       1.0  0.42220  0.65950  0.05650  1.0000
  O   O12       1.0  0.57780  0.15950  0.94350  1.0000
  O   O13       1.0  0.76780  0.60410  0.96780  1.0000
  O   O14       1.0  0.23220  0.10410  0.03220  1.0000
  O   O15       1.0  0.61620  0.73520  0.03750  1.0000
  O   O16       1.0  0.38380  0.23520  0.96250  1.0000
  C   C5        1.0  0.63580  0.59650  0.97680  1.0000
  C   C6        1.0  0.36420  0.09650  0.02320  1.0000
  C   C7        1.0  0.55130  0.67120  0.02750  1.0000
  C   C8        1.0  0.44870  0.17120  0.97250  1.0000
  Zn  Zn3       1.0  0.15371  0.45508  0.49338  1.0000
  Zn  Zn4       1.0  0.84629  0.95508  0.50662  1.0000
  O   O17       1.0  0.90300  0.25749  0.47940  1.0000
  O   O18       1.0  0.09700  0.75749  0.52060  1.0000
  O   O19       1.0  0.75817  0.38227  0.58910  1.0000
  O   O20       1.0  0.24183  0.88227  0.41090  1.0000
  O   O21       1.0  0.94183  0.46221  0.54986  1.0000
  O   O22       1.0  0.05817  0.96221  0.45014  1.0000
  O   O23       1.0  0.07826  0.34283  0.42842  1.0000
  O   O24       1.0  0.92174  0.84283  0.57158  1.0000
  C   C9        1.0  0.87749  0.39558  0.54492  1.0000
  C   C10       1.0  0.12251  0.89558  0.45508  1.0000
  C   C11       1.0  0.95953  0.32515  0.47795  1.0000
  C   C12       1.0  0.04047  0.82515  0.52205  1.0000
  O   O25       1.0  0.33057  0.44051  0.37306  1.0000
  O   O26       1.0  0.66943  0.94051  0.62694  1.0000
  O   O27       1.0  0.41370  0.47769  0.17011  1.0000
  O   O28       1.0  0.58630  0.97769  0.82989  1.0000
  C   C13       1.0  0.32050  0.47629  0.26256  1.0000
  C   C14       1.0  0.67950  0.97629  0.73744  1.0000
  O   O29       1.0  0.21481  0.55873  0.59937  1.0000
  O   O30       1.0  0.78519  0.05873  0.40063  1.0000
  O   O31       1.0  0.28390  0.59763  0.80960  1.0000
  O   O32       1.0  0.71610  0.09763  0.19040  1.0000
  C   C15       1.0  0.24982  0.54577  0.72206  1.0000
  C   C16       1.0  0.75018  0.04577  0.27794  1.0000
