data_image0
_chemical_formula_structural       Zn2O4C2O4C2O8C4Zn2O8C4O4C2O4C2
_chemical_formula_sum              "Zn4 O32 C16"
_cell_length_a       9.406
_cell_length_b       16.747
_cell_length_c       9.799
_cell_angle_alpha    90
_cell_angle_beta     91.41
_cell_angle_gamma    90

_space_group_name_H-M_alt    "P 1"
_space_group_IT_number       1

loop_
  _space_group_symop_operation_xyz
  'x, y, z'

loop_
  _atom_site_type_symbol
  _atom_site_label
  _atom_site_symmetry_multiplicity
  _atom_site_fract_x
  _atom_site_fract_y
  _atom_site_fract_z
  _atom_site_occupancy
  Zn  Zn1       1.0  0.34871  0.54641  0.99910  1.0000
  Zn  Zn2       1.0  0.65129  0.04641  0.00090  1.0000
  O   O1        1.0  0.29690  0.44330  0.89040  1.0000
  O   O2        1.0  0.70310  0.94330  0.10960  1.0000
  O   O3        1.0  0.21950  0.40440  0.68290  1.0000
  O   O4        1.0  0.78050  0.90440  0.31710  1.0000
  C   C1        1.0  0.25330  0.45640  0.76990  1.0000
  C   C2        1.0  0.74670  0.95640  0.23010  1.0000
  O   O5        1.0  0.09360  0.52680  0.32350  1.0000
  O   O6        1.0  0.90640  0.02680  0.67650  1.0000
  O   O7        1.0  0.17210  0.55930  0.11840  1.0000
  O   O8        1.0  0.82790  0.05930  0.88160  1.0000
  C   C3        1.0  0.18320  0.52560  0.23330  1.0000
  C   C4        1.0  0.81680  0.02560  0.76670  1.0000
  O   O9        1.0  0.56150  0.53800  0.94480  1.0000
  O   O10       1.0  0.43850  0.03800  0.05520  1.0000
  O   O11       1.0  0.41990  0.66040  0.05630  1.0000
  O   O12       1.0  0.58010  0.16040  0.94370  1.0000
  O   O13       1.0  0.76250  0.60840  0.95860  1.0000
  O   O14       1.0  0.23750  0.10840  0.04140  1.0000
  O   O15       1.0  0.61110  0.73680  0.03150  1.0000
  O   O16       1.0  0.38890  0.23680  0.96850  1.0000
  C   C5        1.0  0.63300  0.59880  0.97370  1.0000
  C   C6        1.0  0.36700  0.09880  0.02630  1.0000
  C   C7        1.0  0.54700  0.67290  0.02390  1.0000
  C   C8        1.0  0.45300  0.17290  0.97610  1.0000
  Zn  Zn3       1.0  0.15204  0.45457  0.49668  1.0000
  Zn  Zn4       1.0  0.84796  0.95457  0.50332  1.0000
  O   O17       1.0  0.89870  0.25864  0.47580  1.0000
  O   O18       1.0  0.10130  0.75864  0.52420  1.0000
  O   O19       1.0  0.75420  0.38360  0.58530  1.0000
  O   O20       1.0  0.24580  0.88360  0.41470  1.0000
  O   O21       1.0  0.93920  0.46301  0.54840  1.0000
  O   O22       1.0  0.06080  0.96301  0.45160  1.0000
  O   O23       1.0  0.07540  0.34353  0.42720  1.0000
  O   O24       1.0  0.92460  0.84353  0.57280  1.0000
  C   C9        1.0  0.87410  0.39660  0.54230  1.0000
  C   C10       1.0  0.12590  0.89660  0.45770  1.0000
  C   C11       1.0  0.95610  0.32611  0.47550  1.0000
  C   C12       1.0  0.04390  0.82611  0.52450  1.0000
  O   O25       1.0  0.32940  0.44050  0.37490  1.0000
  O   O26       1.0  0.67060  0.94050  0.62510  1.0000
  O   O27       1.0  0.41500  0.47800  0.17310  1.0000
  O   O28       1.0  0.58500  0.97800  0.82690  1.0000
  C   C13       1.0  0.32080  0.47660  0.26470  1.0000
  C   C14       1.0  0.67920  0.97660  0.73530  1.0000
  O   O29       1.0  0.21280  0.55842  0.60120  1.0000
  O   O30       1.0  0.78720  0.05842  0.39880  1.0000
  O   O31       1.0  0.28030  0.59640  0.81230  1.0000
  O   O32       1.0  0.71970  0.09640  0.18770  1.0000
  C   C15       1.0  0.24650  0.54500  0.72410  1.0000
  C   C16       1.0  0.75350  0.04500  0.27590  1.0000
