data_image0
_chemical_formula_structural       Zn4O24C16O8
_chemical_formula_sum              "Zn4 O32 C16"
_cell_length_a       9.426
_cell_length_b       16.81
_cell_length_c       9.785
_cell_angle_alpha    90
_cell_angle_beta     91.43
_cell_angle_gamma    90

_space_group_name_H-M_alt    "P 1"
_space_group_IT_number       1

loop_
  _space_group_symop_operation_xyz
  'x, y, z'

loop_
  _atom_site_type_symbol
  _atom_site_label
  _atom_site_symmetry_multiplicity
  _atom_site_fract_x
  _atom_site_fract_y
  _atom_site_fract_z
  _atom_site_occupancy
  Zn  Zn1       1.0  0.09920  0.45400  0.25139  1.0000
  Zn  Zn2       1.0  0.40080  0.95400  0.24861  1.0000
  Zn  Zn3       1.0  0.90080  0.54600  0.74861  1.0000
  Zn  Zn4       1.0  0.59920  0.04600  0.75139  1.0000
  O   O1        1.0  0.92210  0.44081  0.37154  1.0000
  O   O2        1.0  0.57790  0.94081  0.12846  1.0000
  O   O3        1.0  0.07790  0.55919  0.62846  1.0000
  O   O4        1.0  0.42210  0.05919  0.87154  1.0000
  O   O5        1.0  0.04390  0.55712  0.14397  1.0000
  O   O6        1.0  0.45610  0.05712  0.35603  1.0000
  O   O7        1.0  0.95610  0.44288  0.85603  1.0000
  O   O8        1.0  0.54390  0.94288  0.64397  1.0000
  O   O9        1.0  0.31146  0.46175  0.19793  1.0000
  O   O10       1.0  0.18854  0.96175  0.30207  1.0000
  O   O11       1.0  0.68854  0.53825  0.80207  1.0000
  O   O12       1.0  0.81146  0.03825  0.69793  1.0000
  O   O13       1.0  0.17205  0.34142  0.31363  1.0000
  O   O14       1.0  0.32795  0.84142  0.18637  1.0000
  O   O15       1.0  0.82795  0.65858  0.68637  1.0000
  O   O16       1.0  0.67205  0.15858  0.81363  1.0000
  O   O17       1.0  0.96983  0.59559  0.93591  1.0000
  O   O18       1.0  0.53017  0.09559  0.56409  1.0000
  O   O19       1.0  0.03017  0.40441  0.06409  1.0000
  O   O20       1.0  0.46983  0.90441  0.43591  1.0000
  O   O21       1.0  0.83961  0.47612  0.57447  1.0000
  O   O22       1.0  0.66039  0.97612  0.92553  1.0000
  O   O23       1.0  0.16039  0.52388  0.42553  1.0000
  O   O24       1.0  0.33961  0.02388  0.07447  1.0000
  C   C1        1.0  0.93110  0.47562  0.48420  1.0000
  C   C2        1.0  0.56890  0.97562  0.01580  1.0000
  C   C3        1.0  0.06890  0.52438  0.51580  1.0000
  C   C4        1.0  0.43110  0.02438  0.98420  1.0000
  C   C5        1.0  0.37830  0.39807  0.21560  1.0000
  C   C6        1.0  0.12170  0.89807  0.28440  1.0000
  C   C7        1.0  0.62170  0.60193  0.78440  1.0000
  C   C8        1.0  0.87830  0.10193  0.71560  1.0000
  C   C9        1.0  0.29560  0.32646  0.27410  1.0000
  C   C10       1.0  0.20440  0.82646  0.22590  1.0000
  C   C11       1.0  0.70440  0.67354  0.72590  1.0000
  C   C12       1.0  0.79560  0.17354  0.77410  1.0000
  C   C13       1.0  0.00400  0.54394  0.02300  1.0000
  C   C14       1.0  0.49600  0.04394  0.47700  1.0000
  C   C15       1.0  0.99600  0.45606  0.97700  1.0000
  C   C16       1.0  0.50400  0.95606  0.52300  1.0000
  O   O25       1.0  0.35580  0.26140  0.27870  1.0000
  O   O26       1.0  0.14420  0.76140  0.22130  1.0000
  O   O27       1.0  0.64420  0.73860  0.72130  1.0000
  O   O28       1.0  0.85580  0.23860  0.77870  1.0000
  O   O29       1.0  0.50370  0.38704  0.18740  1.0000
  O   O30       1.0  0.99630  0.88704  0.31260  1.0000
  O   O31       1.0  0.49630  0.61296  0.81260  1.0000
  O   O32       1.0  0.00370  0.11296  0.68740  1.0000
