data_image0
_chemical_formula_structural       Zn2O4C2O4C2O8C4Zn2O8C4O4C2O4C2
_chemical_formula_sum              "Zn4 O32 C16"
_cell_length_a       9.395
_cell_length_b       16.683
_cell_length_c       9.811
_cell_angle_alpha    90
_cell_angle_beta     91.32
_cell_angle_gamma    90

_space_group_name_H-M_alt    "P 1"
_space_group_IT_number       1

loop_
  _space_group_symop_operation_xyz
  'x, y, z'

loop_
  _atom_site_type_symbol
  _atom_site_label
  _atom_site_symmetry_multiplicity
  _atom_site_fract_x
  _atom_site_fract_y
  _atom_site_fract_z
  _atom_site_occupancy
  Zn  Zn1       1.0  0.34901  0.54630  0.99538  1.0000
  Zn  Zn2       1.0  0.65099  0.04630  0.00462  1.0000
  O   O1        1.0  0.29590  0.44270  0.88920  1.0000
  O   O2        1.0  0.70410  0.94270  0.11080  1.0000
  O   O3        1.0  0.22130  0.40470  0.68030  1.0000
  O   O4        1.0  0.77870  0.90470  0.31970  1.0000
  C   C1        1.0  0.25500  0.45700  0.76810  1.0000
  C   C2        1.0  0.74500  0.95700  0.23190  1.0000
  O   O5        1.0  0.09340  0.52740  0.32240  1.0000
  O   O6        1.0  0.90660  0.02740  0.67760  1.0000
  O   O7        1.0  0.17210  0.55920  0.11660  1.0000
  O   O8        1.0  0.82790  0.05920  0.88340  1.0000
  C   C3        1.0  0.18310  0.52560  0.23140  1.0000
  C   C4        1.0  0.81690  0.02560  0.76860  1.0000
  O   O9        1.0  0.56360  0.53570  0.94450  1.0000
  O   O10       1.0  0.43640  0.03570  0.05550  1.0000
  O   O11       1.0  0.42200  0.65940  0.05670  1.0000
  O   O12       1.0  0.57800  0.15940  0.94330  1.0000
  O   O13       1.0  0.76700  0.60460  0.96730  1.0000
  O   O14       1.0  0.23300  0.10460  0.03270  1.0000
  O   O15       1.0  0.61650  0.73540  0.03740  1.0000
  O   O16       1.0  0.38350  0.23540  0.96260  1.0000
  C   C5        1.0  0.63530  0.59660  0.97620  1.0000
  C   C6        1.0  0.36470  0.09660  0.02380  1.0000
  C   C7        1.0  0.55080  0.67130  0.02750  1.0000
  C   C8        1.0  0.44920  0.17130  0.97250  1.0000
  Zn  Zn3       1.0  0.15364  0.45509  0.49359  1.0000
  Zn  Zn4       1.0  0.84636  0.95509  0.50641  1.0000
  O   O17       1.0  0.90250  0.25748  0.47950  1.0000
  O   O18       1.0  0.09750  0.75748  0.52050  1.0000
  O   O19       1.0  0.75774  0.38232  0.58900  1.0000
  O   O20       1.0  0.24226  0.88232  0.41100  1.0000
  O   O21       1.0  0.94151  0.46221  0.54987  1.0000
  O   O22       1.0  0.05849  0.96221  0.45013  1.0000
  O   O23       1.0  0.07793  0.34276  0.42861  1.0000
  O   O24       1.0  0.92207  0.84276  0.57139  1.0000
  C   C9        1.0  0.87710  0.39559  0.54493  1.0000
  C   C10       1.0  0.12290  0.89559  0.45507  1.0000
  C   C11       1.0  0.95912  0.32511  0.47807  1.0000
  C   C12       1.0  0.04088  0.82511  0.52193  1.0000
  O   O25       1.0  0.33040  0.44036  0.37339  1.0000
  O   O26       1.0  0.66960  0.94036  0.62661  1.0000
  O   O27       1.0  0.41370  0.47745  0.17050  1.0000
  O   O28       1.0  0.58630  0.97745  0.82950  1.0000
  C   C13       1.0  0.32040  0.47611  0.26286  1.0000
  C   C14       1.0  0.67960  0.97611  0.73714  1.0000
  O   O29       1.0  0.21453  0.55863  0.59952  1.0000
  O   O30       1.0  0.78547  0.05863  0.40048  1.0000
  O   O31       1.0  0.28350  0.59757  0.80980  1.0000
  O   O32       1.0  0.71650  0.09757  0.19020  1.0000
  C   C15       1.0  0.24940  0.54571  0.72225  1.0000
  C   C16       1.0  0.75060  0.04571  0.27775  1.0000
