data_image0
_chemical_formula_structural       Zn2O4C2O4C2O8C4Zn2O8C4O4C2O4C2
_chemical_formula_sum              "Zn4 O32 C16"
_cell_length_a       9.402
_cell_length_b       16.718
_cell_length_c       9.806
_cell_angle_alpha    90
_cell_angle_beta     91.36
_cell_angle_gamma    90

_space_group_name_H-M_alt    "P 1"
_space_group_IT_number       1

loop_
  _space_group_symop_operation_xyz
  'x, y, z'

loop_
  _atom_site_type_symbol
  _atom_site_label
  _atom_site_symmetry_multiplicity
  _atom_site_fract_x
  _atom_site_fract_y
  _atom_site_fract_z
  _atom_site_occupancy
  Zn  Zn1       1.0  0.34907  0.54640  0.99660  1.0000
  Zn  Zn2       1.0  0.65093  0.04640  0.00340  1.0000
  O   O1        1.0  0.29650  0.44260  0.88970  1.0000
  O   O2        1.0  0.70350  0.94260  0.11030  1.0000
  O   O3        1.0  0.22030  0.40450  0.68130  1.0000
  O   O4        1.0  0.77970  0.90450  0.31870  1.0000
  C   C1        1.0  0.25450  0.45670  0.76850  1.0000
  C   C2        1.0  0.74550  0.95670  0.23150  1.0000
  O   O5        1.0  0.09370  0.52680  0.32250  1.0000
  O   O6        1.0  0.90630  0.02680  0.67750  1.0000
  O   O7        1.0  0.17190  0.55910  0.11730  1.0000
  O   O8        1.0  0.82810  0.05910  0.88270  1.0000
  C   C3        1.0  0.18310  0.52540  0.23210  1.0000
  C   C4        1.0  0.81690  0.02540  0.76790  1.0000
  O   O9        1.0  0.56300  0.53660  0.94510  1.0000
  O   O10       1.0  0.43700  0.03660  0.05490  1.0000
  O   O11       1.0  0.42160  0.65960  0.05640  1.0000
  O   O12       1.0  0.57840  0.15960  0.94360  1.0000
  O   O13       1.0  0.76550  0.60600  0.96320  1.0000
  O   O14       1.0  0.23450  0.10600  0.03680  1.0000
  O   O15       1.0  0.61440  0.73570  0.03570  1.0000
  O   O16       1.0  0.38560  0.23570  0.96430  1.0000
  C   C5        1.0  0.63480  0.59780  0.97530  1.0000
  C   C6        1.0  0.36520  0.09780  0.02470  1.0000
  C   C7        1.0  0.54950  0.67170  0.02610  1.0000
  C   C8        1.0  0.45050  0.17170  0.97390  1.0000
  Zn  Zn3       1.0  0.15289  0.45490  0.49456  1.0000
  Zn  Zn4       1.0  0.84711  0.95490  0.50544  1.0000
  O   O17       1.0  0.90110  0.25765  0.47800  1.0000
  O   O18       1.0  0.09890  0.75765  0.52200  1.0000
  O   O19       1.0  0.75630  0.38252  0.58740  1.0000
  O   O20       1.0  0.24370  0.88252  0.41260  1.0000
  O   O21       1.0  0.94048  0.46228  0.54920  1.0000
  O   O22       1.0  0.05952  0.96228  0.45080  1.0000
  O   O23       1.0  0.07690  0.34280  0.42801  1.0000
  O   O24       1.0  0.92310  0.84280  0.57199  1.0000
  C   C9        1.0  0.87586  0.39571  0.54380  1.0000
  C   C10       1.0  0.12414  0.89571  0.45620  1.0000
  C   C11       1.0  0.95790  0.32523  0.47700  1.0000
  C   C12       1.0  0.04210  0.82523  0.52300  1.0000
  O   O25       1.0  0.32994  0.44023  0.37400  1.0000
  O   O26       1.0  0.67006  0.94023  0.62600  1.0000
  O   O27       1.0  0.41410  0.47750  0.17150  1.0000
  O   O28       1.0  0.58590  0.97750  0.82850  1.0000
  C   C13       1.0  0.32050  0.47610  0.26354  1.0000
  C   C14       1.0  0.67950  0.97610  0.73646  1.0000
  O   O29       1.0  0.21370  0.55835  0.60010  1.0000
  O   O30       1.0  0.78630  0.05835  0.39990  1.0000
  O   O31       1.0  0.28200  0.59690  0.81080  1.0000
  O   O32       1.0  0.71800  0.09690  0.18920  1.0000
  C   C15       1.0  0.24810  0.54522  0.72290  1.0000
  C   C16       1.0  0.75190  0.04522  0.27710  1.0000
