data_image0
_chemical_formula_structural       Zn2O4C2O4C2O8C4Zn2O8C4O4C2O4C2
_chemical_formula_sum              "Zn4 O32 C16"
_cell_length_a       9.386
_cell_length_b       16.648
_cell_length_c       9.816
_cell_angle_alpha    90
_cell_angle_beta     91.3
_cell_angle_gamma    90

_space_group_name_H-M_alt    "P 1"
_space_group_IT_number       1

loop_
  _space_group_symop_operation_xyz
  'x, y, z'

loop_
  _atom_site_type_symbol
  _atom_site_label
  _atom_site_symmetry_multiplicity
  _atom_site_fract_x
  _atom_site_fract_y
  _atom_site_fract_z
  _atom_site_occupancy
  Zn  Zn1       1.0  0.34877  0.54626  0.99461  1.0000
  Zn  Zn2       1.0  0.65123  0.04626  0.00539  1.0000
  O   O1        1.0  0.29540  0.44220  0.88840  1.0000
  O   O2        1.0  0.70460  0.94220  0.11160  1.0000
  O   O3        1.0  0.22140  0.40450  0.67960  1.0000
  O   O4        1.0  0.77860  0.90450  0.32040  1.0000
  C   C1        1.0  0.25530  0.45710  0.76720  1.0000
  C   C2        1.0  0.74470  0.95710  0.23280  1.0000
  O   O5        1.0  0.09360  0.52780  0.32180  1.0000
  O   O6        1.0  0.90640  0.02780  0.67820  1.0000
  O   O7        1.0  0.17200  0.55930  0.11600  1.0000
  O   O8        1.0  0.82800  0.05930  0.88400  1.0000
  C   C3        1.0  0.18310  0.52570  0.23060  1.0000
  C   C4        1.0  0.81690  0.02570  0.76940  1.0000
  O   O9        1.0  0.56400  0.53520  0.94440  1.0000
  O   O10       1.0  0.43600  0.03520  0.05560  1.0000
  O   O11       1.0  0.42220  0.65960  0.05630  1.0000
  O   O12       1.0  0.57780  0.15960  0.94370  1.0000
  O   O13       1.0  0.76860  0.60370  0.96930  1.0000
  O   O14       1.0  0.23140  0.10370  0.03070  1.0000
  O   O15       1.0  0.61750  0.73560  0.03820  1.0000
  O   O16       1.0  0.38250  0.23560  0.96180  1.0000
  C   C5        1.0  0.63560  0.59660  0.97680  1.0000
  C   C6        1.0  0.36440  0.09660  0.02320  1.0000
  C   C7        1.0  0.55220  0.67110  0.02800  1.0000
  C   C8        1.0  0.44780  0.17110  0.97200  1.0000
  Zn  Zn3       1.0  0.15426  0.45514  0.49305  1.0000
  Zn  Zn4       1.0  0.84574  0.95514  0.50695  1.0000
  O   O17       1.0  0.90330  0.25743  0.48000  1.0000
  O   O18       1.0  0.09670  0.75743  0.52000  1.0000
  O   O19       1.0  0.75850  0.38234  0.58940  1.0000
  O   O20       1.0  0.24150  0.88234  0.41060  1.0000
  O   O21       1.0  0.94214  0.46222  0.54985  1.0000
  O   O22       1.0  0.05786  0.96222  0.45015  1.0000
  O   O23       1.0  0.07853  0.34270  0.42866  1.0000
  O   O24       1.0  0.92147  0.84270  0.57134  1.0000
  C   C9        1.0  0.87782  0.39556  0.54513  1.0000
  C   C10       1.0  0.12218  0.89556  0.45487  1.0000
  C   C11       1.0  0.95983  0.32509  0.47835  1.0000
  C   C12       1.0  0.04017  0.82509  0.52165  1.0000
  O   O25       1.0  0.33078  0.44032  0.37288  1.0000
  O   O26       1.0  0.66922  0.94032  0.62712  1.0000
  O   O27       1.0  0.41380  0.47731  0.16983  1.0000
  O   O28       1.0  0.58620  0.97731  0.83017  1.0000
  C   C13       1.0  0.32064  0.47600  0.26229  1.0000
  C   C14       1.0  0.67936  0.97600  0.73771  1.0000
  O   O29       1.0  0.21517  0.55875  0.59894  1.0000
  O   O30       1.0  0.78483  0.05875  0.40106  1.0000
  O   O31       1.0  0.28440  0.59790  0.80900  1.0000
  O   O32       1.0  0.71560  0.09790  0.19100  1.0000
  C   C15       1.0  0.25027  0.54596  0.72165  1.0000
  C   C16       1.0  0.74973  0.04596  0.27835  1.0000
