data_image0
_chemical_formula_structural       Zn4O24C16O8
_chemical_formula_sum              "Zn4 O32 C16"
_cell_length_a       9.422
_cell_length_b       16.803
_cell_length_c       9.788
_cell_angle_alpha    90
_cell_angle_beta     91.43
_cell_angle_gamma    90

_space_group_name_H-M_alt    "P 1"
_space_group_IT_number       1

loop_
  _space_group_symop_operation_xyz
  'x, y, z'

loop_
  _atom_site_type_symbol
  _atom_site_label
  _atom_site_symmetry_multiplicity
  _atom_site_fract_x
  _atom_site_fract_y
  _atom_site_fract_z
  _atom_site_occupancy
  Zn  Zn1       1.0  0.09903  0.45401  0.25137  1.0000
  Zn  Zn2       1.0  0.40097  0.95401  0.24863  1.0000
  Zn  Zn3       1.0  0.90097  0.54599  0.74863  1.0000
  Zn  Zn4       1.0  0.59903  0.04599  0.75137  1.0000
  O   O1        1.0  0.92181  0.44067  0.37179  1.0000
  O   O2        1.0  0.57819  0.94067  0.12821  1.0000
  O   O3        1.0  0.07819  0.55933  0.62821  1.0000
  O   O4        1.0  0.42181  0.05933  0.87179  1.0000
  O   O5        1.0  0.04349  0.55710  0.14419  1.0000
  O   O6        1.0  0.45651  0.05710  0.35581  1.0000
  O   O7        1.0  0.95651  0.44290  0.85581  1.0000
  O   O8        1.0  0.54349  0.94290  0.64419  1.0000
  O   O9        1.0  0.31134  0.46192  0.19792  1.0000
  O   O10       1.0  0.18866  0.96192  0.30208  1.0000
  O   O11       1.0  0.68866  0.53808  0.80208  1.0000
  O   O12       1.0  0.81134  0.03808  0.69792  1.0000
  O   O13       1.0  0.17194  0.34136  0.31382  1.0000
  O   O14       1.0  0.32806  0.84136  0.18618  1.0000
  O   O15       1.0  0.82806  0.65864  0.68618  1.0000
  O   O16       1.0  0.67194  0.15864  0.81382  1.0000
  O   O17       1.0  0.96981  0.59565  0.93561  1.0000
  O   O18       1.0  0.53019  0.09565  0.56439  1.0000
  O   O19       1.0  0.03019  0.40435  0.06439  1.0000
  O   O20       1.0  0.46981  0.90435  0.43561  1.0000
  O   O21       1.0  0.83961  0.47595  0.57453  1.0000
  O   O22       1.0  0.66039  0.97595  0.92547  1.0000
  O   O23       1.0  0.16039  0.52405  0.42547  1.0000
  O   O24       1.0  0.33961  0.02405  0.07453  1.0000
  C   C1        1.0  0.93110  0.47553  0.48440  1.0000
  C   C2        1.0  0.56890  0.97553  0.01560  1.0000
  C   C3        1.0  0.06890  0.52447  0.51560  1.0000
  C   C4        1.0  0.43110  0.02447  0.98440  1.0000
  C   C5        1.0  0.37830  0.39802  0.21560  1.0000
  C   C6        1.0  0.12170  0.89802  0.28440  1.0000
  C   C7        1.0  0.62170  0.60198  0.78440  1.0000
  C   C8        1.0  0.87830  0.10198  0.71560  1.0000
  C   C9        1.0  0.29550  0.32641  0.27440  1.0000
  C   C10       1.0  0.20450  0.82641  0.22560  1.0000
  C   C11       1.0  0.70450  0.67359  0.72560  1.0000
  C   C12       1.0  0.79550  0.17359  0.77440  1.0000
  C   C13       1.0  0.00360  0.54390  0.02300  1.0000
  C   C14       1.0  0.49640  0.04390  0.47700  1.0000
  C   C15       1.0  0.99640  0.45610  0.97700  1.0000
  C   C16       1.0  0.50360  0.95610  0.52300  1.0000
  O   O25       1.0  0.35600  0.26122  0.27850  1.0000
  O   O26       1.0  0.14400  0.76122  0.22150  1.0000
  O   O27       1.0  0.64400  0.73878  0.72150  1.0000
  O   O28       1.0  0.85600  0.23878  0.77850  1.0000
  O   O29       1.0  0.50400  0.38691  0.18790  1.0000
  O   O30       1.0  0.99600  0.88691  0.31210  1.0000
  O   O31       1.0  0.49600  0.61309  0.81210  1.0000
  O   O32       1.0  0.00400  0.11309  0.68790  1.0000
