data_image0
_chemical_formula_structural       Zn4O24C16O8
_chemical_formula_sum              "Zn4 O32 C16"
_cell_length_a       9.434
_cell_length_b       16.817
_cell_length_c       9.782
_cell_angle_alpha    90
_cell_angle_beta     91.45
_cell_angle_gamma    90

_space_group_name_H-M_alt    "P 1"
_space_group_IT_number       1

loop_
  _space_group_symop_operation_xyz
  'x, y, z'

loop_
  _atom_site_type_symbol
  _atom_site_label
  _atom_site_symmetry_multiplicity
  _atom_site_fract_x
  _atom_site_fract_y
  _atom_site_fract_z
  _atom_site_occupancy
  Zn  Zn1       1.0  0.09958  0.45398  0.25152  1.0000
  Zn  Zn2       1.0  0.40042  0.95398  0.24848  1.0000
  Zn  Zn3       1.0  0.90042  0.54602  0.74848  1.0000
  Zn  Zn4       1.0  0.59958  0.04602  0.75152  1.0000
  O   O1        1.0  0.92237  0.44073  0.37156  1.0000
  O   O2        1.0  0.57763  0.94073  0.12844  1.0000
  O   O3        1.0  0.07763  0.55927  0.62844  1.0000
  O   O4        1.0  0.42237  0.05927  0.87156  1.0000
  O   O5        1.0  0.04399  0.55707  0.14427  1.0000
  O   O6        1.0  0.45601  0.05707  0.35573  1.0000
  O   O7        1.0  0.95601  0.44293  0.85573  1.0000
  O   O8        1.0  0.54399  0.94293  0.64427  1.0000
  O   O9        1.0  0.31143  0.46162  0.19792  1.0000
  O   O10       1.0  0.18857  0.96162  0.30208  1.0000
  O   O11       1.0  0.68857  0.53838  0.80208  1.0000
  O   O12       1.0  0.81143  0.03838  0.69792  1.0000
  O   O13       1.0  0.17215  0.34135  0.31389  1.0000
  O   O14       1.0  0.32785  0.84135  0.18611  1.0000
  O   O15       1.0  0.82785  0.65865  0.68611  1.0000
  O   O16       1.0  0.67215  0.15865  0.81389  1.0000
  O   O17       1.0  0.96956  0.59566  0.93563  1.0000
  O   O18       1.0  0.53044  0.09566  0.56437  1.0000
  O   O19       1.0  0.03044  0.40434  0.06437  1.0000
  O   O20       1.0  0.46956  0.90434  0.43563  1.0000
  O   O21       1.0  0.83975  0.47628  0.57420  1.0000
  O   O22       1.0  0.66025  0.97628  0.92580  1.0000
  O   O23       1.0  0.16025  0.52372  0.42580  1.0000
  O   O24       1.0  0.33975  0.02372  0.07420  1.0000
  C   C1        1.0  0.93120  0.47555  0.48420  1.0000
  C   C2        1.0  0.56880  0.97555  0.01580  1.0000
  C   C3        1.0  0.06880  0.52445  0.51580  1.0000
  C   C4        1.0  0.43120  0.02445  0.98420  1.0000
  C   C5        1.0  0.37840  0.39791  0.21550  1.0000
  C   C6        1.0  0.12160  0.89791  0.28450  1.0000
  C   C7        1.0  0.62160  0.60209  0.78450  1.0000
  C   C8        1.0  0.87840  0.10209  0.71550  1.0000
  C   C9        1.0  0.29590  0.32658  0.27430  1.0000
  C   C10       1.0  0.20410  0.82658  0.22570  1.0000
  C   C11       1.0  0.70410  0.67342  0.72570  1.0000
  C   C12       1.0  0.79590  0.17342  0.77430  1.0000
  C   C13       1.0  0.00420  0.54381  0.02320  1.0000
  C   C14       1.0  0.49580  0.04381  0.47680  1.0000
  C   C15       1.0  0.99580  0.45619  0.97680  1.0000
  C   C16       1.0  0.50420  0.95619  0.52320  1.0000
  O   O25       1.0  0.35590  0.26120  0.27840  1.0000
  O   O26       1.0  0.14410  0.76120  0.22160  1.0000
  O   O27       1.0  0.64410  0.73880  0.72160  1.0000
  O   O28       1.0  0.85590  0.23880  0.77840  1.0000
  O   O29       1.0  0.50360  0.38677  0.18740  1.0000
  O   O30       1.0  0.99640  0.88677  0.31260  1.0000
  O   O31       1.0  0.49640  0.61323  0.81260  1.0000
  O   O32       1.0  0.00360  0.11323  0.68740  1.0000
