data_image0
_chemical_formula_structural       Zn4O24C16O8
_chemical_formula_sum              "Zn4 O32 C16"
_cell_length_a       9.454
_cell_length_b       16.816
_cell_length_c       9.765
_cell_angle_alpha    90
_cell_angle_beta     91.52
_cell_angle_gamma    90

_space_group_name_H-M_alt    "P 1"
_space_group_IT_number       1

loop_
  _space_group_symop_operation_xyz
  'x, y, z'

loop_
  _atom_site_type_symbol
  _atom_site_label
  _atom_site_symmetry_multiplicity
  _atom_site_fract_x
  _atom_site_fract_y
  _atom_site_fract_z
  _atom_site_occupancy
  Zn  Zn1       1.0  0.10057  0.45382  0.25179  1.0000
  Zn  Zn2       1.0  0.39943  0.95382  0.24821  1.0000
  Zn  Zn3       1.0  0.89943  0.54618  0.74821  1.0000
  Zn  Zn4       1.0  0.60057  0.04618  0.75179  1.0000
  O   O1        1.0  0.92320  0.44052  0.37130  1.0000
  O   O2        1.0  0.57680  0.94052  0.12870  1.0000
  O   O3        1.0  0.07680  0.55948  0.62870  1.0000
  O   O4        1.0  0.42320  0.05948  0.87130  1.0000
  O   O5        1.0  0.04450  0.55707  0.14420  1.0000
  O   O6        1.0  0.45550  0.05707  0.35580  1.0000
  O   O7        1.0  0.95550  0.44293  0.85580  1.0000
  O   O8        1.0  0.54450  0.94293  0.64420  1.0000
  O   O9        1.0  0.31150  0.46136  0.19780  1.0000
  O   O10       1.0  0.18850  0.96136  0.30220  1.0000
  O   O11       1.0  0.68850  0.53864  0.80220  1.0000
  O   O12       1.0  0.81150  0.03864  0.69780  1.0000
  O   O13       1.0  0.17310  0.34103  0.31360  1.0000
  O   O14       1.0  0.32690  0.84103  0.18640  1.0000
  O   O15       1.0  0.82690  0.65897  0.68640  1.0000
  O   O16       1.0  0.67310  0.15897  0.81360  1.0000
  O   O17       1.0  0.96890  0.59579  0.93580  1.0000
  O   O18       1.0  0.53110  0.09579  0.56420  1.0000
  O   O19       1.0  0.03110  0.40421  0.06420  1.0000
  O   O20       1.0  0.46890  0.90421  0.43580  1.0000
  O   O21       1.0  0.83950  0.47624  0.57320  1.0000
  O   O22       1.0  0.66050  0.97624  0.92680  1.0000
  O   O23       1.0  0.16050  0.52376  0.42680  1.0000
  O   O24       1.0  0.33950  0.02376  0.07320  1.0000
  C   C1        1.0  0.93190  0.47575  0.48420  1.0000
  C   C2        1.0  0.56810  0.97575  0.01580  1.0000
  C   C3        1.0  0.06810  0.52425  0.51580  1.0000
  C   C4        1.0  0.43190  0.02425  0.98420  1.0000
  C   C5        1.0  0.37830  0.39810  0.21520  1.0000
  C   C6        1.0  0.12170  0.89810  0.28480  1.0000
  C   C7        1.0  0.62170  0.60190  0.78480  1.0000
  C   C8        1.0  0.87830  0.10190  0.71520  1.0000
  C   C9        1.0  0.29630  0.32640  0.27390  1.0000
  C   C10       1.0  0.20370  0.82640  0.22610  1.0000
  C   C11       1.0  0.70370  0.67360  0.72610  1.0000
  C   C12       1.0  0.79630  0.17360  0.77390  1.0000
  C   C13       1.0  0.00420  0.54412  0.02320  1.0000
  C   C14       1.0  0.49580  0.04412  0.47680  1.0000
  C   C15       1.0  0.99580  0.45588  0.97680  1.0000
  C   C16       1.0  0.50420  0.95588  0.52320  1.0000
  O   O25       1.0  0.35610  0.26083  0.27740  1.0000
  O   O26       1.0  0.14390  0.76083  0.22260  1.0000
  O   O27       1.0  0.64390  0.73917  0.72260  1.0000
  O   O28       1.0  0.85610  0.23917  0.77740  1.0000
  O   O29       1.0  0.50290  0.38676  0.18560  1.0000
  O   O30       1.0  0.99710  0.88676  0.31440  1.0000
  O   O31       1.0  0.49710  0.61324  0.81440  1.0000
  O   O32       1.0  0.00290  0.11324  0.68560  1.0000
