data_image0
_chemical_formula_structural       Zn2O4C2O4C2O8C4Zn2O8C4O4C2O4C2
_chemical_formula_sum              "Zn4 O32 C16"
_cell_length_a       9.397
_cell_length_b       16.694
_cell_length_c       9.81
_cell_angle_alpha    90
_cell_angle_beta     91.33
_cell_angle_gamma    90

_space_group_name_H-M_alt    "P 1"
_space_group_IT_number       1

loop_
  _space_group_symop_operation_xyz
  'x, y, z'

loop_
  _atom_site_type_symbol
  _atom_site_label
  _atom_site_symmetry_multiplicity
  _atom_site_fract_x
  _atom_site_fract_y
  _atom_site_fract_z
  _atom_site_occupancy
  Zn  Zn1       1.0  0.34901  0.54631  0.99563  1.0000
  Zn  Zn2       1.0  0.65099  0.04631  0.00437  1.0000
  O   O1        1.0  0.29600  0.44280  0.88890  1.0000
  O   O2        1.0  0.70400  0.94280  0.11110  1.0000
  O   O3        1.0  0.22100  0.40460  0.68120  1.0000
  O   O4        1.0  0.77900  0.90460  0.31880  1.0000
  C   C1        1.0  0.25540  0.45670  0.76820  1.0000
  C   C2        1.0  0.74460  0.95670  0.23180  1.0000
  O   O5        1.0  0.09330  0.52750  0.32220  1.0000
  O   O6        1.0  0.90670  0.02750  0.67780  1.0000
  O   O7        1.0  0.17210  0.55950  0.11650  1.0000
  O   O8        1.0  0.82790  0.05950  0.88350  1.0000
  C   C3        1.0  0.18310  0.52580  0.23100  1.0000
  C   C4        1.0  0.81690  0.02580  0.76900  1.0000
  O   O9        1.0  0.56370  0.53590  0.94490  1.0000
  O   O10       1.0  0.43630  0.03590  0.05510  1.0000
  O   O11       1.0  0.42210  0.65950  0.05660  1.0000
  O   O12       1.0  0.57790  0.15950  0.94340  1.0000
  O   O13       1.0  0.76670  0.60500  0.96570  1.0000
  O   O14       1.0  0.23330  0.10500  0.03430  1.0000
  O   O15       1.0  0.61580  0.73570  0.03660  1.0000
  O   O16       1.0  0.38420  0.23570  0.96340  1.0000
  C   C5        1.0  0.63540  0.59710  0.97620  1.0000
  C   C6        1.0  0.36460  0.09710  0.02380  1.0000
  C   C7        1.0  0.55070  0.67170  0.02690  1.0000
  C   C8        1.0  0.44930  0.17170  0.97310  1.0000
  Zn  Zn3       1.0  0.15341  0.45504  0.49378  1.0000
  Zn  Zn4       1.0  0.84659  0.95504  0.50622  1.0000
  O   O17       1.0  0.90230  0.25758  0.47890  1.0000
  O   O18       1.0  0.09770  0.75758  0.52110  1.0000
  O   O19       1.0  0.75742  0.38237  0.58850  1.0000
  O   O20       1.0  0.24258  0.88237  0.41150  1.0000
  O   O21       1.0  0.94129  0.46225  0.54967  1.0000
  O   O22       1.0  0.05871  0.96225  0.45033  1.0000
  O   O23       1.0  0.07776  0.34284  0.42836  1.0000
  O   O24       1.0  0.92224  0.84284  0.57164  1.0000
  C   C9        1.0  0.87684  0.39564  0.54456  1.0000
  C   C10       1.0  0.12316  0.89564  0.45544  1.0000
  C   C11       1.0  0.95890  0.32521  0.47764  1.0000
  C   C12       1.0  0.04110  0.82521  0.52236  1.0000
  O   O25       1.0  0.33035  0.44043  0.37356  1.0000
  O   O26       1.0  0.66965  0.94043  0.62644  1.0000
  O   O27       1.0  0.41390  0.47765  0.17080  1.0000
  O   O28       1.0  0.58610  0.97765  0.82920  1.0000
  C   C13       1.0  0.32050  0.47624  0.26308  1.0000
  C   C14       1.0  0.67950  0.97624  0.73692  1.0000
  O   O29       1.0  0.21434  0.55861  0.59980  1.0000
  O   O30       1.0  0.78566  0.05861  0.40020  1.0000
  O   O31       1.0  0.28310  0.59739  0.81020  1.0000
  O   O32       1.0  0.71690  0.09739  0.18980  1.0000
  C   C15       1.0  0.24910  0.54557  0.72251  1.0000
  C   C16       1.0  0.75090  0.04557  0.27749  1.0000
