data_image0
_chemical_formula_structural       Zn2O4C2O4C2O8C4Zn2O8C4O4C2O4C2
_chemical_formula_sum              "Zn4 O32 C16"
_cell_length_a       9.399
_cell_length_b       16.703
_cell_length_c       9.807
_cell_angle_alpha    90
_cell_angle_beta     91.34
_cell_angle_gamma    90

_space_group_name_H-M_alt    "P 1"
_space_group_IT_number       1

loop_
  _space_group_symop_operation_xyz
  'x, y, z'

loop_
  _atom_site_type_symbol
  _atom_site_label
  _atom_site_symmetry_multiplicity
  _atom_site_fract_x
  _atom_site_fract_y
  _atom_site_fract_z
  _atom_site_occupancy
  Zn  Zn1       1.0  0.34898  0.54632  0.99610  1.0000
  Zn  Zn2       1.0  0.65102  0.04632  0.00390  1.0000
  O   O1        1.0  0.29640  0.44270  0.88930  1.0000
  O   O2        1.0  0.70360  0.94270  0.11070  1.0000
  O   O3        1.0  0.22060  0.40480  0.68100  1.0000
  O   O4        1.0  0.77940  0.90480  0.31900  1.0000
  C   C1        1.0  0.25490  0.45700  0.76870  1.0000
  C   C2        1.0  0.74510  0.95700  0.23130  1.0000
  O   O5        1.0  0.09340  0.52710  0.32220  1.0000
  O   O6        1.0  0.90660  0.02710  0.67780  1.0000
  O   O7        1.0  0.17210  0.55920  0.11670  1.0000
  O   O8        1.0  0.82790  0.05920  0.88330  1.0000
  C   C3        1.0  0.18320  0.52550  0.23140  1.0000
  C   C4        1.0  0.81680  0.02550  0.76860  1.0000
  O   O9        1.0  0.56310  0.53620  0.94480  1.0000
  O   O10       1.0  0.43690  0.03620  0.05520  1.0000
  O   O11       1.0  0.42160  0.65960  0.05690  1.0000
  O   O12       1.0  0.57840  0.15960  0.94310  1.0000
  O   O13       1.0  0.76600  0.60540  0.96510  1.0000
  O   O14       1.0  0.23400  0.10540  0.03490  1.0000
  O   O15       1.0  0.61500  0.73530  0.03680  1.0000
  O   O16       1.0  0.38500  0.23530  0.96320  1.0000
  C   C5        1.0  0.63460  0.59760  0.97600  1.0000
  C   C6        1.0  0.36540  0.09760  0.02400  1.0000
  C   C7        1.0  0.54930  0.67140  0.02640  1.0000
  C   C8        1.0  0.45070  0.17140  0.97360  1.0000
  Zn  Zn3       1.0  0.15307  0.45498  0.49414  1.0000
  Zn  Zn4       1.0  0.84693  0.95498  0.50586  1.0000
  O   O17       1.0  0.90160  0.25757  0.47870  1.0000
  O   O18       1.0  0.09840  0.75757  0.52130  1.0000
  O   O19       1.0  0.75675  0.38240  0.58810  1.0000
  O   O20       1.0  0.24325  0.88240  0.41190  1.0000
  O   O21       1.0  0.94075  0.46223  0.54950  1.0000
  O   O22       1.0  0.05925  0.96223  0.45050  1.0000
  O   O23       1.0  0.07720  0.34278  0.42833  1.0000
  O   O24       1.0  0.92280  0.84278  0.57167  1.0000
  C   C9        1.0  0.87624  0.39564  0.54432  1.0000
  C   C10       1.0  0.12376  0.89564  0.45568  1.0000
  C   C11       1.0  0.95830  0.32518  0.47750  1.0000
  C   C12       1.0  0.04170  0.82518  0.52250  1.0000
  O   O25       1.0  0.33000  0.44029  0.37380  1.0000
  O   O26       1.0  0.67000  0.94029  0.62620  1.0000
  O   O27       1.0  0.41380  0.47750  0.17110  1.0000
  O   O28       1.0  0.58620  0.97750  0.82890  1.0000
  C   C13       1.0  0.32030  0.47610  0.26332  1.0000
  C   C14       1.0  0.67970  0.97610  0.73668  1.0000
  O   O29       1.0  0.21390  0.55850  0.59990  1.0000
  O   O30       1.0  0.78610  0.05850  0.40010  1.0000
  O   O31       1.0  0.28240  0.59725  0.81030  1.0000
  O   O32       1.0  0.71760  0.09725  0.18970  1.0000
  C   C15       1.0  0.24840  0.54544  0.72267  1.0000
  C   C16       1.0  0.75160  0.04544  0.27733  1.0000
