data_image0
_chemical_formula_structural       Zn2O4C2O4C2O8C4Zn2O8C4O4C2O4C2
_chemical_formula_sum              "Zn4 O32 C16"
_cell_length_a       9.39
_cell_length_b       16.663
_cell_length_c       9.814
_cell_angle_alpha    90
_cell_angle_beta     91.31
_cell_angle_gamma    90

_space_group_name_H-M_alt    "P 1"
_space_group_IT_number       1

loop_
  _space_group_symop_operation_xyz
  'x, y, z'

loop_
  _atom_site_type_symbol
  _atom_site_label
  _atom_site_symmetry_multiplicity
  _atom_site_fract_x
  _atom_site_fract_y
  _atom_site_fract_z
  _atom_site_occupancy
  Zn  Zn1       1.0  0.34887  0.54625  0.99485  1.0000
  Zn  Zn2       1.0  0.65113  0.04625  0.00515  1.0000
  O   O1        1.0  0.29580  0.44250  0.88840  1.0000
  O   O2        1.0  0.70420  0.94250  0.11160  1.0000
  O   O3        1.0  0.22150  0.40480  0.67990  1.0000
  O   O4        1.0  0.77850  0.90480  0.32010  1.0000
  C   C1        1.0  0.25520  0.45700  0.76770  1.0000
  C   C2        1.0  0.74480  0.95700  0.23230  1.0000
  O   O5        1.0  0.09370  0.52780  0.32220  1.0000
  O   O6        1.0  0.90630  0.02780  0.67780  1.0000
  O   O7        1.0  0.17190  0.55930  0.11590  1.0000
  O   O8        1.0  0.82810  0.05930  0.88410  1.0000
  C   C3        1.0  0.18310  0.52600  0.23060  1.0000
  C   C4        1.0  0.81690  0.02600  0.76940  1.0000
  O   O9        1.0  0.56410  0.53530  0.94440  1.0000
  O   O10       1.0  0.43590  0.03530  0.05560  1.0000
  O   O11       1.0  0.42230  0.65940  0.05630  1.0000
  O   O12       1.0  0.57770  0.15940  0.94370  1.0000
  O   O13       1.0  0.76790  0.60420  0.96800  1.0000
  O   O14       1.0  0.23210  0.10420  0.03200  1.0000
  O   O15       1.0  0.61720  0.73550  0.03810  1.0000
  O   O16       1.0  0.38280  0.23550  0.96190  1.0000
  C   C5        1.0  0.63570  0.59680  0.97670  1.0000
  C   C6        1.0  0.36430  0.09680  0.02330  1.0000
  C   C7        1.0  0.55110  0.67070  0.02750  1.0000
  C   C8        1.0  0.44890  0.17070  0.97250  1.0000
  Zn  Zn3       1.0  0.15390  0.45514  0.49322  1.0000
  Zn  Zn4       1.0  0.84610  0.95514  0.50678  1.0000
  O   O17       1.0  0.90310  0.25737  0.47990  1.0000
  O   O18       1.0  0.09690  0.75737  0.52010  1.0000
  O   O19       1.0  0.75824  0.38224  0.58920  1.0000
  O   O20       1.0  0.24176  0.88224  0.41080  1.0000
  O   O21       1.0  0.94183  0.46217  0.54977  1.0000
  O   O22       1.0  0.05817  0.96217  0.45023  1.0000
  O   O23       1.0  0.07834  0.34269  0.42867  1.0000
  O   O24       1.0  0.92166  0.84269  0.57133  1.0000
  C   C9        1.0  0.87755  0.39551  0.54501  1.0000
  C   C10       1.0  0.12245  0.89551  0.45499  1.0000
  C   C11       1.0  0.95966  0.32503  0.47824  1.0000
  C   C12       1.0  0.04034  0.82503  0.52176  1.0000
  O   O25       1.0  0.33058  0.44037  0.37299  1.0000
  O   O26       1.0  0.66942  0.94037  0.62701  1.0000
  O   O27       1.0  0.41360  0.47739  0.16995  1.0000
  O   O28       1.0  0.58640  0.97739  0.83005  1.0000
  C   C13       1.0  0.32044  0.47605  0.26240  1.0000
  C   C14       1.0  0.67956  0.97605  0.73760  1.0000
  O   O29       1.0  0.21475  0.55879  0.59897  1.0000
  O   O30       1.0  0.78525  0.05879  0.40103  1.0000
  O   O31       1.0  0.28390  0.59793  0.80910  1.0000
  O   O32       1.0  0.71610  0.09793  0.19090  1.0000
  C   C15       1.0  0.24979  0.54597  0.72169  1.0000
  C   C16       1.0  0.75021  0.04597  0.27831  1.0000
