data_image0
_chemical_formula_structural       Zn2O4C2O4C2O8C4Zn2O8C4O4C2O4C2
_chemical_formula_sum              "Zn4 O32 C16"
_cell_length_a       9.384
_cell_length_b       16.641
_cell_length_c       9.817
_cell_angle_alpha    90
_cell_angle_beta     91.3
_cell_angle_gamma    90

_space_group_name_H-M_alt    "P 1"
_space_group_IT_number       1

loop_
  _space_group_symop_operation_xyz
  'x, y, z'

loop_
  _atom_site_type_symbol
  _atom_site_label
  _atom_site_symmetry_multiplicity
  _atom_site_fract_x
  _atom_site_fract_y
  _atom_site_fract_z
  _atom_site_occupancy
  Zn  Zn1       1.0  0.34879  0.54628  0.99448  1.0000
  Zn  Zn2       1.0  0.65121  0.04628  0.00552  1.0000
  O   O1        1.0  0.29540  0.44220  0.88830  1.0000
  O   O2        1.0  0.70460  0.94220  0.11170  1.0000
  O   O3        1.0  0.22150  0.40440  0.67960  1.0000
  O   O4        1.0  0.77850  0.90440  0.32040  1.0000
  C   C1        1.0  0.25530  0.45650  0.76780  1.0000
  C   C2        1.0  0.74470  0.95650  0.23220  1.0000
  O   O5        1.0  0.09380  0.52790  0.32220  1.0000
  O   O6        1.0  0.90620  0.02790  0.67780  1.0000
  O   O7        1.0  0.17160  0.55940  0.11570  1.0000
  O   O8        1.0  0.82840  0.05940  0.88430  1.0000
  C   C3        1.0  0.18310  0.52580  0.23050  1.0000
  C   C4        1.0  0.81690  0.02580  0.76950  1.0000
  O   O9        1.0  0.56390  0.53510  0.94470  1.0000
  O   O10       1.0  0.43610  0.03510  0.05530  1.0000
  O   O11       1.0  0.42250  0.65950  0.05620  1.0000
  O   O12       1.0  0.57750  0.15950  0.94380  1.0000
  O   O13       1.0  0.76890  0.60350  0.96910  1.0000
  O   O14       1.0  0.23110  0.10350  0.03090  1.0000
  O   O15       1.0  0.61800  0.73550  0.03890  1.0000
  O   O16       1.0  0.38200  0.23550  0.96110  1.0000
  C   C5        1.0  0.63660  0.59600  0.97730  1.0000
  C   C6        1.0  0.36340  0.09600  0.02270  1.0000
  C   C7        1.0  0.55180  0.67100  0.02850  1.0000
  C   C8        1.0  0.44820  0.17100  0.97150  1.0000
  Zn  Zn3       1.0  0.15447  0.45514  0.49293  1.0000
  Zn  Zn4       1.0  0.84553  0.95514  0.50707  1.0000
  O   O17       1.0  0.90370  0.25729  0.48030  1.0000
  O   O18       1.0  0.09630  0.75729  0.51970  1.0000
  O   O19       1.0  0.75884  0.38215  0.58970  1.0000
  O   O20       1.0  0.24116  0.88215  0.41030  1.0000
  O   O21       1.0  0.94230  0.46210  0.55006  1.0000
  O   O22       1.0  0.05770  0.96210  0.44994  1.0000
  O   O23       1.0  0.07877  0.34264  0.42878  1.0000
  O   O24       1.0  0.92123  0.84264  0.57122  1.0000
  C   C9        1.0  0.87809  0.39540  0.54541  1.0000
  C   C10       1.0  0.12191  0.89540  0.45459  1.0000
  C   C11       1.0  0.96015  0.32498  0.47858  1.0000
  C   C12       1.0  0.03985  0.82498  0.52142  1.0000
  O   O25       1.0  0.33079  0.44038  0.37274  1.0000
  O   O26       1.0  0.66921  0.94038  0.62726  1.0000
  O   O27       1.0  0.41360  0.47739  0.16959  1.0000
  O   O28       1.0  0.58640  0.97739  0.83041  1.0000
  C   C13       1.0  0.32049  0.47603  0.26216  1.0000
  C   C14       1.0  0.67951  0.97603  0.73784  1.0000
  O   O29       1.0  0.21523  0.55878  0.59888  1.0000
  O   O30       1.0  0.78477  0.05878  0.40112  1.0000
  O   O31       1.0  0.28460  0.59798  0.80890  1.0000
  O   O32       1.0  0.71540  0.09798  0.19110  1.0000
  C   C15       1.0  0.25046  0.54601  0.72157  1.0000
  C   C16       1.0  0.74954  0.04601  0.27843  1.0000
