data_image0
_chemical_formula_structural       Zn16O96C48
_chemical_formula_sum              "Zn16 O96 C48"
_cell_length_a       16.7253
_cell_length_b       9.254
_cell_length_c       31.2982
_cell_angle_alpha    90
_cell_angle_beta     98.59
_cell_angle_gamma    90

_space_group_name_H-M_alt    "P 1"
_space_group_IT_number       1

loop_
  _space_group_symop_operation_xyz
  'x, y, z'

loop_
  _atom_site_type_symbol
  _atom_site_label
  _atom_site_symmetry_multiplicity
  _atom_site_fract_x
  _atom_site_fract_y
  _atom_site_fract_z
  _atom_site_occupancy
  Zn  Zn1       1.0  0.47695  0.13449  0.36116  1.0000
  Zn  Zn2       1.0  0.97695  0.63449  0.36116  1.0000
  Zn  Zn3       1.0  0.47695  0.86551  0.86116  1.0000
  Zn  Zn4       1.0  0.97695  0.36551  0.86116  1.0000
  Zn  Zn5       1.0  0.52305  0.86551  0.63884  1.0000
  Zn  Zn6       1.0  0.02305  0.36551  0.63884  1.0000
  Zn  Zn7       1.0  0.52305  0.13449  0.13884  1.0000
  Zn  Zn8       1.0  0.02305  0.63449  0.13884  1.0000
  Zn  Zn9       1.0  0.15134  0.13594  0.35957  1.0000
  Zn  Zn10      1.0  0.65134  0.63594  0.35957  1.0000
  Zn  Zn11      1.0  0.15134  0.86406  0.85957  1.0000
  Zn  Zn12      1.0  0.65134  0.36406  0.85957  1.0000
  Zn  Zn13      1.0  0.84866  0.86406  0.64043  1.0000
  Zn  Zn14      1.0  0.34866  0.36406  0.64043  1.0000
  Zn  Zn15      1.0  0.84866  0.13594  0.14043  1.0000
  Zn  Zn16      1.0  0.34866  0.63594  0.14043  1.0000
  O   O1        1.0  0.39110  0.06920  0.39880  1.0000
  O   O2        1.0  0.89110  0.56920  0.39880  1.0000
  O   O3        1.0  0.39110  0.93080  0.89880  1.0000
  O   O4        1.0  0.89110  0.43080  0.89880  1.0000
  O   O5        1.0  0.60890  0.93080  0.60120  1.0000
  O   O6        1.0  0.10890  0.43080  0.60120  1.0000
  O   O7        1.0  0.60890  0.06920  0.10120  1.0000
  O   O8        1.0  0.10890  0.56920  0.10120  1.0000
  O   O9        1.0  0.37090  0.19500  0.32100  1.0000
  O   O10       1.0  0.87090  0.69500  0.32100  1.0000
  O   O11       1.0  0.37090  0.80500  0.82100  1.0000
  O   O12       1.0  0.87090  0.30500  0.82100  1.0000
  O   O13       1.0  0.62910  0.80500  0.67900  1.0000
  O   O14       1.0  0.12910  0.30500  0.67900  1.0000
  O   O15       1.0  0.62910  0.19500  0.17900  1.0000
  O   O16       1.0  0.12910  0.69500  0.17900  1.0000
  O   O17       1.0  0.57360  0.02450  0.39780  1.0000
  O   O18       1.0  0.07360  0.52450  0.39780  1.0000
  O   O19       1.0  0.57360  0.97550  0.89780  1.0000
  O   O20       1.0  0.07360  0.47550  0.89780  1.0000
  O   O21       1.0  0.42640  0.97550  0.60220  1.0000
  O   O22       1.0  0.92640  0.47550  0.60220  1.0000
  O   O23       1.0  0.42640  0.02450  0.10220  1.0000
  O   O24       1.0  0.92640  0.52450  0.10220  1.0000
  O   O25       1.0  0.50030  0.32670  0.39670  1.0000
  O   O26       1.0  0.00030  0.82670  0.39670  1.0000
  O   O27       1.0  0.50030  0.67330  0.89670  1.0000
  O   O28       1.0  0.00030  0.17330  0.89670  1.0000
  O   O29       1.0  0.49970  0.67330  0.60330  1.0000
  O   O30       1.0  0.99970  0.17330  0.60330  1.0000
  O   O31       1.0  0.49970  0.32670  0.10330  1.0000
  O   O32       1.0  0.99970  0.82670  0.10330  1.0000
  O   O33       1.0  0.55190  0.24400  0.32340  1.0000
  O   O34       1.0  0.05190  0.74400  0.32340  1.0000
  O   O35       1.0  0.55190  0.75600  0.82340  1.0000
  O   O36       1.0  0.05190  0.25600  0.82340  1.0000
  O   O37       1.0  0.44810  0.75600  0.67660  1.0000
  O   O38       1.0  0.94810  0.25600  0.67660  1.0000
  O   O39       1.0  0.44810  0.24400  0.17660  1.0000
  O   O40       1.0  0.94810  0.74400  0.17660  1.0000
  O   O41       1.0  0.47930  0.94250  0.32430  1.0000
  O   O42       1.0  0.97930  0.44250  0.32430  1.0000
  O   O43       1.0  0.47930  0.05750  0.82430  1.0000
  O   O44       1.0  0.97930  0.55750  0.82430  1.0000
  O   O45       1.0  0.52070  0.05750  0.67570  1.0000
  O   O46       1.0  0.02070  0.55750  0.67570  1.0000
  O   O47       1.0  0.52070  0.94250  0.17570  1.0000
  O   O48       1.0  0.02070  0.44250  0.17570  1.0000
  O   O49       1.0  0.64670  0.82320  0.39550  1.0000
  O   O50       1.0  0.14670  0.32320  0.39550  1.0000
  O   O51       1.0  0.64670  0.17680  0.89550  1.0000
  O   O52       1.0  0.14670  0.67680  0.89550  1.0000
  O   O53       1.0  0.35330  0.17680  0.60450  1.0000
  O   O54       1.0  0.85330  0.67680  0.60450  1.0000
  O   O55       1.0  0.35330  0.82320  0.10450  1.0000
  O   O56       1.0  0.85330  0.32320  0.10450  1.0000
  O   O57       1.0  0.25700  0.06630  0.39770  1.0000
  O   O58       1.0  0.75700  0.56630  0.39770  1.0000
  O   O59       1.0  0.25700  0.93370  0.89770  1.0000
  O   O60       1.0  0.75700  0.43370  0.89770  1.0000
  O   O61       1.0  0.74300  0.93370  0.60230  1.0000
  O   O62       1.0  0.24300  0.43370  0.60230  1.0000
  O   O63       1.0  0.74300  0.06630  0.10230  1.0000
  O   O64       1.0  0.24300  0.56630  0.10230  1.0000
  O   O65       1.0  0.62520  0.44550  0.32390  1.0000
  O   O66       1.0  0.12520  0.94550  0.32390  1.0000
  O   O67       1.0  0.62520  0.55450  0.82390  1.0000
  O   O68       1.0  0.12520  0.05450  0.82390  1.0000
  O   O69       1.0  0.37480  0.55450  0.67610  1.0000
  O   O70       1.0  0.87480  0.05450  0.67610  1.0000
  O   O71       1.0  0.37480  0.44550  0.17610  1.0000
  O   O72       1.0  0.87480  0.94550  0.17610  1.0000
  O   O73       1.0  0.23710  0.20310  0.32110  1.0000
  O   O74       1.0  0.73710  0.70310  0.32110  1.0000
  O   O75       1.0  0.23710  0.79690  0.82110  1.0000
  O   O76       1.0  0.73710  0.29690  0.82110  1.0000
  O   O77       1.0  0.76290  0.79690  0.67890  1.0000
  O   O78       1.0  0.26290  0.29690  0.67890  1.0000
  O   O79       1.0  0.76290  0.20310  0.17890  1.0000
  O   O80       1.0  0.26290  0.70310  0.17890  1.0000
  O   O81       1.0  0.55800  0.74960  0.31990  1.0000
  O   O82       1.0  0.05800  0.24960  0.31990  1.0000
  O   O83       1.0  0.55800  0.25040  0.81990  1.0000
  O   O84       1.0  0.05800  0.75040  0.81990  1.0000
  O   O85       1.0  0.44200  0.25040  0.68010  1.0000
  O   O86       1.0  0.94200  0.75040  0.68010  1.0000
  O   O87       1.0  0.44200  0.74960  0.18010  1.0000
  O   O88       1.0  0.94200  0.24960  0.18010  1.0000
  O   O89       1.0  0.57240  0.53000  0.39680  1.0000
  O   O90       1.0  0.07240  0.03000  0.39680  1.0000
  O   O91       1.0  0.57240  0.47000  0.89680  1.0000
  O   O92       1.0  0.07240  0.97000  0.89680  1.0000
  O   O93       1.0  0.42760  0.47000  0.60320  1.0000
  O   O94       1.0  0.92760  0.97000  0.60320  1.0000
  O   O95       1.0  0.42760  0.53000  0.10320  1.0000
  O   O96       1.0  0.92760  0.03000  0.10320  1.0000
  C   C1        1.0  0.31980  0.09720  0.38210  1.0000
  C   C2        1.0  0.81980  0.59720  0.38210  1.0000
  C   C3        1.0  0.31980  0.90280  0.88210  1.0000
  C   C4        1.0  0.81980  0.40280  0.88210  1.0000
  C   C5        1.0  0.68020  0.90280  0.61790  1.0000
  C   C6        1.0  0.18020  0.40280  0.61790  1.0000
  C   C7        1.0  0.68020  0.09720  0.11790  1.0000
  C   C8        1.0  0.18020  0.59720  0.11790  1.0000
  C   C9        1.0  0.30780  0.17370  0.33790  1.0000
  C   C10       1.0  0.80780  0.67370  0.33790  1.0000
  C   C11       1.0  0.30780  0.82630  0.83790  1.0000
  C   C12       1.0  0.80780  0.32630  0.83790  1.0000
  C   C13       1.0  0.69220  0.82630  0.66210  1.0000
  C   C14       1.0  0.19220  0.32630  0.66210  1.0000
  C   C15       1.0  0.69220  0.17370  0.16210  1.0000
  C   C16       1.0  0.19220  0.67370  0.16210  1.0000
  C   C17       1.0  0.59130  0.90790  0.38090  1.0000
  C   C18       1.0  0.09130  0.40790  0.38090  1.0000
  C   C19       1.0  0.59130  0.09210  0.88090  1.0000
  C   C20       1.0  0.09130  0.59210  0.88090  1.0000
  C   C21       1.0  0.40870  0.09210  0.61910  1.0000
  C   C22       1.0  0.90870  0.59210  0.61910  1.0000
  C   C23       1.0  0.40870  0.90790  0.11910  1.0000
  C   C24       1.0  0.90870  0.40790  0.11910  1.0000
  C   C25       1.0  0.54720  0.41040  0.38160  1.0000
  C   C26       1.0  0.04720  0.91040  0.38160  1.0000
  C   C27       1.0  0.54720  0.58960  0.88160  1.0000
  C   C28       1.0  0.04720  0.08960  0.88160  1.0000
  C   C29       1.0  0.45280  0.58960  0.61840  1.0000
  C   C30       1.0  0.95280  0.08960  0.61840  1.0000
  C   C31       1.0  0.45280  0.41040  0.11840  1.0000
  C   C32       1.0  0.95280  0.91040  0.11840  1.0000
  C   C33       1.0  0.57790  0.36280  0.33950  1.0000
  C   C34       1.0  0.07790  0.86280  0.33950  1.0000
  C   C35       1.0  0.57790  0.63720  0.83950  1.0000
  C   C36       1.0  0.07790  0.13720  0.83950  1.0000
  C   C37       1.0  0.42210  0.63720  0.66050  1.0000
  C   C38       1.0  0.92210  0.13720  0.66050  1.0000
  C   C39       1.0  0.42210  0.36280  0.16050  1.0000
  C   C40       1.0  0.92210  0.86280  0.16050  1.0000
  C   C41       1.0  0.53840  0.86360  0.33780  1.0000
  C   C42       1.0  0.03840  0.36360  0.33780  1.0000
  C   C43       1.0  0.53840  0.13640  0.83780  1.0000
  C   C44       1.0  0.03840  0.63640  0.83780  1.0000
  C   C45       1.0  0.46160  0.13640  0.66220  1.0000
  C   C46       1.0  0.96160  0.63640  0.66220  1.0000
  C   C47       1.0  0.46160  0.86360  0.16220  1.0000
  C   C48       1.0  0.96160  0.36360  0.16220  1.0000
