data_image0
_chemical_formula_structural       Zn4O24C16O8
_chemical_formula_sum              "Zn4 O32 C16"
_cell_length_a       9.418
_cell_length_b       16.794
_cell_length_c       9.79
_cell_angle_alpha    90
_cell_angle_beta     91.43
_cell_angle_gamma    90

_space_group_name_H-M_alt    "P 1"
_space_group_IT_number       1

loop_
  _space_group_symop_operation_xyz
  'x, y, z'

loop_
  _atom_site_type_symbol
  _atom_site_label
  _atom_site_symmetry_multiplicity
  _atom_site_fract_x
  _atom_site_fract_y
  _atom_site_fract_z
  _atom_site_occupancy
  Zn  Zn1       1.0  0.09888  0.45398  0.25133  1.0000
  Zn  Zn2       1.0  0.40112  0.95398  0.24867  1.0000
  Zn  Zn3       1.0  0.90112  0.54602  0.74867  1.0000
  Zn  Zn4       1.0  0.59888  0.04602  0.75133  1.0000
  O   O1        1.0  0.92178  0.44071  0.37185  1.0000
  O   O2        1.0  0.57822  0.94071  0.12815  1.0000
  O   O3        1.0  0.07822  0.55929  0.62815  1.0000
  O   O4        1.0  0.42178  0.05929  0.87185  1.0000
  O   O5        1.0  0.04338  0.55716  0.14422  1.0000
  O   O6        1.0  0.45662  0.05716  0.35578  1.0000
  O   O7        1.0  0.95662  0.44284  0.85578  1.0000
  O   O8        1.0  0.54338  0.94284  0.64422  1.0000
  O   O9        1.0  0.31131  0.46196  0.19800  1.0000
  O   O10       1.0  0.18869  0.96196  0.30200  1.0000
  O   O11       1.0  0.68869  0.53804  0.80200  1.0000
  O   O12       1.0  0.81131  0.03804  0.69800  1.0000
  O   O13       1.0  0.17174  0.34143  0.31356  1.0000
  O   O14       1.0  0.32826  0.84143  0.18644  1.0000
  O   O15       1.0  0.82826  0.65857  0.68644  1.0000
  O   O16       1.0  0.67174  0.15857  0.81356  1.0000
  O   O17       1.0  0.96967  0.59579  0.93576  1.0000
  O   O18       1.0  0.53033  0.09579  0.56424  1.0000
  O   O19       1.0  0.03033  0.40421  0.06424  1.0000
  O   O20       1.0  0.46967  0.90421  0.43576  1.0000
  O   O21       1.0  0.83965  0.47596  0.57473  1.0000
  O   O22       1.0  0.66035  0.97596  0.92527  1.0000
  O   O23       1.0  0.16035  0.52404  0.42527  1.0000
  O   O24       1.0  0.33965  0.02404  0.07473  1.0000
  C   C1        1.0  0.93140  0.47588  0.48430  1.0000
  C   C2        1.0  0.56860  0.97588  0.01570  1.0000
  C   C3        1.0  0.06860  0.52412  0.51570  1.0000
  C   C4        1.0  0.43140  0.02412  0.98430  1.0000
  C   C5        1.0  0.37880  0.39829  0.21560  1.0000
  C   C6        1.0  0.12120  0.89829  0.28440  1.0000
  C   C7        1.0  0.62120  0.60171  0.78440  1.0000
  C   C8        1.0  0.87880  0.10171  0.71560  1.0000
  C   C9        1.0  0.29550  0.32655  0.27430  1.0000
  C   C10       1.0  0.20450  0.82655  0.22570  1.0000
  C   C11       1.0  0.70450  0.67345  0.72570  1.0000
  C   C12       1.0  0.79550  0.17345  0.77430  1.0000
  C   C13       1.0  0.00400  0.54401  0.02320  1.0000
  C   C14       1.0  0.49600  0.04401  0.47680  1.0000
  C   C15       1.0  0.99600  0.45599  0.97680  1.0000
  C   C16       1.0  0.50400  0.95599  0.52320  1.0000
  O   O25       1.0  0.35600  0.26114  0.27830  1.0000
  O   O26       1.0  0.14400  0.76114  0.22170  1.0000
  O   O27       1.0  0.64400  0.73886  0.72170  1.0000
  O   O28       1.0  0.85600  0.23886  0.77830  1.0000
  O   O29       1.0  0.50410  0.38700  0.18780  1.0000
  O   O30       1.0  0.99590  0.88700  0.31220  1.0000
  O   O31       1.0  0.49590  0.61300  0.81220  1.0000
  O   O32       1.0  0.00410  0.11300  0.68780  1.0000
