data_image0
_chemical_formula_structural       V8O64C32O8
_chemical_formula_sum              "V8 O72 C32"
_cell_length_a       11.9281
_cell_length_b       13.7771
_cell_length_c       12.7247
_cell_angle_alpha    90
_cell_angle_beta     104.388
_cell_angle_gamma    90

_space_group_name_H-M_alt    "P 1"
_space_group_IT_number       1

loop_
  _space_group_symop_operation_xyz
  'x, y, z'

loop_
  _atom_site_type_symbol
  _atom_site_label
  _atom_site_symmetry_multiplicity
  _atom_site_fract_x
  _atom_site_fract_y
  _atom_site_fract_z
  _atom_site_occupancy
  V   V1        1.0  0.25362  0.14485  0.15604  1.0000
  V   V2        1.0  0.74638  0.64485  0.34396  1.0000
  V   V3        1.0  0.74638  0.85515  0.84396  1.0000
  V   V4        1.0  0.25362  0.35515  0.65604  1.0000
  V   V5        1.0  0.73750  0.09386  0.30971  1.0000
  V   V6        1.0  0.26250  0.59386  0.19029  1.0000
  V   V7        1.0  0.26250  0.90614  0.69029  1.0000
  V   V8        1.0  0.73750  0.40614  0.80971  1.0000
  O   O1        1.0  0.40752  0.18929  0.29030  1.0000
  O   O2        1.0  0.59248  0.68929  0.20970  1.0000
  O   O3        1.0  0.59248  0.81071  0.70970  1.0000
  O   O4        1.0  0.40752  0.31071  0.79030  1.0000
  O   O5        1.0  0.39165  0.06977  0.12509  1.0000
  O   O6        1.0  0.60835  0.56977  0.37491  1.0000
  O   O7        1.0  0.60835  0.93023  0.87491  1.0000
  O   O8        1.0  0.39165  0.43023  0.62509  1.0000
  O   O9        1.0  0.58426  0.05114  0.17141  1.0000
  O   O10       1.0  0.41574  0.55114  0.32859  1.0000
  O   O11       1.0  0.41574  0.94886  0.82859  1.0000
  O   O12       1.0  0.58426  0.44886  0.67141  1.0000
  O   O13       1.0  0.60002  0.17014  0.33918  1.0000
  O   O14       1.0  0.39998  0.67014  0.16082  1.0000
  O   O15       1.0  0.39998  0.82986  0.66082  1.0000
  O   O16       1.0  0.60002  0.32986  0.83918  1.0000
  O   O17       1.0  0.76448  0.19865  0.21034  1.0000
  O   O18       1.0  0.23552  0.69865  0.28966  1.0000
  O   O19       1.0  0.23552  0.80135  0.78966  1.0000
  O   O20       1.0  0.76448  0.30135  0.71034  1.0000
  O   O21       1.0  0.83433  0.01914  0.23065  1.0000
  O   O22       1.0  0.16567  0.51914  0.26935  1.0000
  O   O23       1.0  0.16567  0.98086  0.76935  1.0000
  O   O24       1.0  0.83433  0.48086  0.73065  1.0000
  O   O25       1.0  0.88440  0.23554  0.10740  1.0000
  O   O26       1.0  0.11560  0.73554  0.39260  1.0000
  O   O27       1.0  0.11560  0.76446  0.89260  1.0000
  O   O28       1.0  0.88440  0.26446  0.60740  1.0000
  O   O29       1.0  0.95670  0.04441  0.12645  1.0000
  O   O30       1.0  0.04330  0.54441  0.37355  1.0000
  O   O31       1.0  0.04330  0.95559  0.87355  1.0000
  O   O32       1.0  0.95670  0.45559  0.62645  1.0000
  O   O33       1.0  0.22806  0.04233  0.25942  1.0000
  O   O34       1.0  0.77194  0.54233  0.24058  1.0000
  O   O35       1.0  0.77194  0.95767  0.74058  1.0000
  O   O36       1.0  0.22806  0.45767  0.75942  1.0000
  O   O37       1.0  0.15994  0.22140  0.23739  1.0000
  O   O38       1.0  0.84006  0.72140  0.26261  1.0000
  O   O39       1.0  0.84006  0.77860  0.76261  1.0000
  O   O40       1.0  0.15994  0.27860  0.73739  1.0000
  O   O41       1.0  0.05726  0.20483  0.36085  1.0000
  O   O42       1.0  0.94274  0.70483  0.13915  1.0000
  O   O43       1.0  0.94274  0.79517  0.63915  1.0000
  O   O44       1.0  0.05726  0.29517  0.86085  1.0000
  O   O45       1.0  0.12602  0.01221  0.38065  1.0000
  O   O46       1.0  0.87398  0.51221  0.11935  1.0000
  O   O47       1.0  0.87398  0.98779  0.61935  1.0000
  O   O48       1.0  0.12602  0.48779  0.88065  1.0000
  O   O49       1.0  0.70062  0.96260  0.36248  1.0000
  O   O50       1.0  0.29938  0.46260  0.13752  1.0000
  O   O51       1.0  0.29938  0.03740  0.63752  1.0000
  O   O52       1.0  0.70062  0.53740  0.86248  1.0000
  O   O53       1.0  0.52030  0.96785  0.37840  1.0000
  O   O54       1.0  0.47970  0.46785  0.12160  1.0000
  O   O55       1.0  0.47970  0.03215  0.62160  1.0000
  O   O56       1.0  0.52030  0.53215  0.87840  1.0000
  O   O57       1.0  0.54185  0.77541  0.43840  1.0000
  O   O58       1.0  0.45815  0.27541  0.06160  1.0000
  O   O59       1.0  0.45815  0.22459  0.56160  1.0000
  O   O60       1.0  0.54185  0.72459  0.93840  1.0000
  O   O61       1.0  0.71269  0.77593  0.39805  1.0000
  O   O62       1.0  0.28731  0.27593  0.10195  1.0000
  O   O63       1.0  0.28731  0.22407  0.60195  1.0000
  O   O64       1.0  0.71269  0.72407  0.89805  1.0000
  C   C1        1.0  0.49978  0.15415  0.28016  1.0000
  C   C2        1.0  0.50022  0.65415  0.21984  1.0000
  C   C3        1.0  0.50022  0.84585  0.71984  1.0000
  C   C4        1.0  0.49978  0.34585  0.78016  1.0000
  C   C5        1.0  0.49223  0.08519  0.18414  1.0000
  C   C6        1.0  0.50777  0.58519  0.31586  1.0000
  C   C7        1.0  0.50777  0.91481  0.81586  1.0000
  C   C8        1.0  0.49223  0.41481  0.68414  1.0000
  C   C9        1.0  0.84320  0.17889  0.15990  1.0000
  C   C10       1.0  0.15680  0.67889  0.34010  1.0000
  C   C11       1.0  0.15680  0.82111  0.84010  1.0000
  C   C12       1.0  0.84320  0.32111  0.65990  1.0000
  C   C13       1.0  0.88302  0.07127  0.17144  1.0000
  C   C14       1.0  0.11698  0.57127  0.32856  1.0000
  C   C15       1.0  0.11698  0.92873  0.82856  1.0000
  C   C16       1.0  0.88302  0.42873  0.67144  1.0000
  C   C17       1.0  0.11999  0.17339  0.30668  1.0000
  C   C18       1.0  0.88001  0.67339  0.19332  1.0000
  C   C19       1.0  0.88001  0.82661  0.69332  1.0000
  C   C20       1.0  0.11999  0.32661  0.80668  1.0000
  C   C21       1.0  0.15872  0.06562  0.31825  1.0000
  C   C22       1.0  0.84128  0.56562  0.18175  1.0000
  C   C23       1.0  0.84128  0.93438  0.68175  1.0000
  C   C24       1.0  0.15872  0.43438  0.81825  1.0000
  C   C25       1.0  0.62034  0.81564  0.40942  1.0000
  C   C26       1.0  0.37966  0.31564  0.09058  1.0000
  C   C27       1.0  0.37966  0.18436  0.59058  1.0000
  C   C28       1.0  0.62034  0.68436  0.90942  1.0000
  C   C29       1.0  0.61090  0.92613  0.38220  1.0000
  C   C30       1.0  0.38910  0.42613  0.11780  1.0000
  C   C31       1.0  0.38910  0.07387  0.61780  1.0000
  C   C32       1.0  0.61090  0.57387  0.88220  1.0000
  O   O65       1.0  0.16824  0.11037  0.04498  1.0000
  O   O66       1.0  0.83176  0.61037  0.45502  1.0000
  O   O67       1.0  0.83176  0.88963  0.95502  1.0000
  O   O68       1.0  0.16824  0.38963  0.54498  1.0000
  O   O69       1.0  0.82712  0.12594  0.41891  1.0000
  O   O70       1.0  0.17288  0.62594  0.08109  1.0000
  O   O71       1.0  0.17288  0.87406  0.58109  1.0000
  O   O72       1.0  0.82712  0.37406  0.91891  1.0000
