data_image0
_chemical_formula_structural       U3O22H4C6H4C4H4C2
_chemical_formula_sum              "U3 O22 H12 C12"
_cell_length_a       8.498
_cell_length_b       9.2992
_cell_length_c       13.2045
_cell_angle_alpha    86.048
_cell_angle_beta     87.745
_cell_angle_gamma    88.381

_space_group_name_H-M_alt    "P 1"
_space_group_IT_number       1

loop_
  _space_group_symop_operation_xyz
  'x, y, z'

loop_
  _atom_site_type_symbol
  _atom_site_label
  _atom_site_symmetry_multiplicity
  _atom_site_fract_x
  _atom_site_fract_y
  _atom_site_fract_z
  _atom_site_occupancy
  U   U1        1.0  0.70145  0.06776  0.54876  1.0000
  U   U2        1.0  0.29855  0.93224  0.45123  1.0000
  U   U3        1.0  0.00000  0.00000  1.00000  1.0000
  O   O1        1.0  0.42770  0.03760  0.58492  1.0000
  O   O2        1.0  0.57230  0.96240  0.41508  1.0000
  O   O3        1.0  0.61560  0.14410  0.71008  1.0000
  O   O4        1.0  0.38440  0.85590  0.28992  1.0000
  O   O5        1.0  0.42300  0.19620  0.82296  1.0000
  O   O6        1.0  0.57700  0.80380  0.17704  1.0000
  O   O7        1.0  0.25660  0.91570  0.92275  1.0000
  O   O8        1.0  0.74340  0.08430  0.07725  1.0000
  O   O9        1.0  0.06630  0.96860  0.81877  1.0000
  O   O10       1.0  0.93370  0.03140  0.18123  1.0000
  O   O11       1.0  0.93790  0.14890  0.62169  1.0000
  O   O12       1.0  0.06210  0.85110  0.37831  1.0000
  O   O13       1.0  0.10380  0.97210  0.57773  1.0000
  O   O14       1.0  0.89620  0.02790  0.42227  1.0000
  O   O15       1.0  0.66950  0.24540  0.49229  1.0000
  O   O16       1.0  0.33050  0.75460  0.50771  1.0000
  O   O17       1.0  0.73990  0.89230  0.60598  1.0000
  O   O18       1.0  0.26010  0.10770  0.39402  1.0000
  O   O19       1.0  0.04440  0.18380  0.97267  1.0000
  O   O20       1.0  0.95560  0.81620  0.02733  1.0000
  O   O21       1.0  0.22500  0.98800  0.11092  1.0000
  O   O22       1.0  0.77500  0.01200  0.88908  1.0000
  H   H1        1.0  0.31760  0.03530  0.09830  1.0000
  H   H2        1.0  0.68240  0.96470  0.90170  1.0000
  H   H3        1.0  0.23010  0.95450  0.17290  1.0000
  H   H4        1.0  0.76990  0.04550  0.82710  1.0000
  C   C1        1.0  0.35530  0.06790  0.68010  1.0000
  C   C2        1.0  0.64470  0.93210  0.31990  1.0000
  C   C3        1.0  0.47190  0.14460  0.74370  1.0000
  C   C4        1.0  0.52810  0.85540  0.25630  1.0000
  C   C5        1.0  0.32240  0.92260  0.74260  1.0000
  C   C6        1.0  0.67760  0.07740  0.25740  1.0000
  H   H5        1.0  0.27980  0.85600  0.69800  1.0000
  H   H6        1.0  0.72020  0.14400  0.30200  1.0000
  H   H7        1.0  0.42150  0.88130  0.76630  1.0000
  H   H8        1.0  0.57850  0.11870  0.23370  1.0000
  C   C7        1.0  0.21050  0.93620  0.83220  1.0000
  C   C8        1.0  0.78950  0.06380  0.16780  1.0000
  C   C9        1.0  0.20750  0.16450  0.66390  1.0000
  C   C10       1.0  0.79250  0.83550  0.33610  1.0000
  H   H9        1.0  0.17160  0.19920  0.72870  1.0000
  H   H10       1.0  0.82840  0.80080  0.27130  1.0000
  H   H11       1.0  0.23570  0.24770  0.61920  1.0000
  H   H12       1.0  0.76430  0.75230  0.38080  1.0000
  C   C11       1.0  0.07280  0.09020  0.61890  1.0000
  C   C12       1.0  0.92720  0.90980  0.38110  1.0000
