data_image0
_chemical_formula_structural       U12O28H4O28C12H8C8H8C4O28H4C12H8C8H8C4
_chemical_formula_sum              "U12 O84 H40 C48"
_cell_length_a       10.0669
_cell_length_b       29.4919
_cell_length_c       11.1076
_cell_angle_alpha    90
_cell_angle_beta     107.873
_cell_angle_gamma    90

_space_group_name_H-M_alt    "P 1"
_space_group_IT_number       1

loop_
  _space_group_symop_operation_xyz
  'x, y, z'

loop_
  _atom_site_type_symbol
  _atom_site_label
  _atom_site_symmetry_multiplicity
  _atom_site_fract_x
  _atom_site_fract_y
  _atom_site_fract_z
  _atom_site_occupancy
  U   U1        1.0  0.59415  0.96068  0.14165  1.0000
  U   U2        1.0  0.90585  0.46068  0.35835  1.0000
  U   U3        1.0  0.40585  0.03932  0.85835  1.0000
  U   U4        1.0  0.09415  0.53932  0.64165  1.0000
  U   U5        1.0  0.83755  0.13825  0.52382  1.0000
  U   U6        1.0  0.66245  0.63825  0.97618  1.0000
  U   U7        1.0  0.16245  0.86175  0.47618  1.0000
  U   U8        1.0  0.33755  0.36175  0.02382  1.0000
  U   U9        1.0  0.37278  0.24184  0.17684  1.0000
  U   U10       1.0  0.12722  0.74184  0.32316  1.0000
  U   U11       1.0  0.62722  0.75816  0.82316  1.0000
  U   U12       1.0  0.87278  0.25816  0.67684  1.0000
  O   O1        1.0  0.45970  0.96810  0.21420  1.0000
  O   O2        1.0  0.04030  0.46810  0.28580  1.0000
  O   O3        1.0  0.54030  0.03190  0.78580  1.0000
  O   O4        1.0  0.95970  0.53190  0.71420  1.0000
  O   O5        1.0  0.73310  0.95224  0.07470  1.0000
  O   O6        1.0  0.76690  0.45224  0.42530  1.0000
  O   O7        1.0  0.26690  0.04776  0.92530  1.0000
  O   O8        1.0  0.23310  0.54776  0.57470  1.0000
  O   O9        1.0  0.74540  0.10701  0.61110  1.0000
  O   O10       1.0  0.75460  0.60701  0.88890  1.0000
  O   O11       1.0  0.25460  0.89299  0.38890  1.0000
  O   O12       1.0  0.24540  0.39299  0.11110  1.0000
  O   O13       1.0  0.93260  0.16501  0.43270  1.0000
  O   O14       1.0  0.56740  0.66501  0.06730  1.0000
  O   O15       1.0  0.06740  0.83499  0.56730  1.0000
  O   O16       1.0  0.43260  0.33499  0.93270  1.0000
  O   O17       1.0  0.25410  0.24213  0.26700  1.0000
  O   O18       1.0  0.24590  0.74213  0.23300  1.0000
  O   O19       1.0  0.74590  0.75787  0.73300  1.0000
  O   O20       1.0  0.75410  0.25787  0.76700  1.0000
  O   O21       1.0  0.49410  0.23793  0.08970  1.0000
  O   O22       1.0  0.00590  0.73793  0.41030  1.0000
  O   O23       1.0  0.50590  0.76207  0.91030  1.0000
  O   O24       1.0  0.99410  0.26207  0.58970  1.0000
  O   O25       1.0  0.73670  0.20550  0.54450  1.0000
  O   O26       1.0  0.76330  0.70550  0.95550  1.0000
  O   O27       1.0  0.26330  0.79450  0.45550  1.0000
  O   O28       1.0  0.23670  0.29450  0.04450  1.0000
  H   H1        1.0  0.68290  0.21100  0.47470  1.0000
  H   H2        1.0  0.81710  0.71100  0.02530  1.0000
  H   H3        1.0  0.31710  0.78900  0.52530  1.0000
  H   H4        1.0  0.18290  0.28900  0.97470  1.0000
  O   O29       1.0  0.56500  0.03638  0.06880  1.0000
  O   O30       1.0  0.93500  0.53638  0.43120  1.0000
  O   O31       1.0  0.43500  0.96362  0.93120  1.0000
  O   O32       1.0  0.06500  0.46362  0.56880  1.0000
  O   O33       1.0  0.49560  0.11200  0.92760  1.0000
  O   O34       1.0  0.00440  0.61200  0.57240  1.0000
  O   O35       1.0  0.50440  0.88800  0.07240  1.0000
  O   O36       1.0  0.99560  0.38800  0.42760  1.0000
  O   O37       1.0  0.65090  0.15780  0.03040  1.0000
  O   O38       1.0  0.84910  0.65780  0.46960  1.0000
  O   O39       1.0  0.34910  0.84220  0.96960  1.0000
  O   O40       1.0  0.15090  0.34220  0.53040  1.0000
  O   O41       1.0  0.73980  0.00690  0.30280  1.0000
  O   O42       1.0  0.76020  0.50690  0.19720  1.0000
  O   O43       1.0  0.26020  0.99310  0.69720  1.0000
  O   O44       1.0  0.23980  0.49310  0.80280  1.0000
  O   O45       1.0  0.82830  0.06740  0.41370  1.0000
  O   O46       1.0  0.67170  0.56740  0.08630  1.0000
  O   O47       1.0  0.17170  0.93260  0.58630  1.0000
  O   O48       1.0  0.32830  0.43260  0.91370  1.0000
  O   O49       1.0  0.63660  0.14330  0.35010  1.0000
  O   O50       1.0  0.86340  0.64330  0.14990  1.0000
  O   O51       1.0  0.36340  0.85670  0.64990  1.0000
  O   O52       1.0  0.13660  0.35670  0.85010  1.0000
  O   O53       1.0  0.42710  0.16500  0.23890  1.0000
  O   O54       1.0  0.07290  0.66500  0.26110  1.0000
  O   O55       1.0  0.57290  0.83500  0.76110  1.0000
  O   O56       1.0  0.92710  0.33500  0.73890  1.0000
  C   C1        1.0  0.60250  0.08210  0.12460  1.0000
  C   C2        1.0  0.89750  0.58210  0.37540  1.0000
  C   C3        1.0  0.39750  0.91790  0.87540  1.0000
  C   C4        1.0  0.10250  0.41790  0.62460  1.0000
  C   C5        1.0  0.59250  0.11870  0.02430  1.0000
  C   C6        1.0  0.90750  0.61870  0.47570  1.0000
  C   C7        1.0  0.40750  0.88130  0.97570  1.0000
  C   C8        1.0  0.09250  0.38130  0.52430  1.0000
  C   C9        1.0  0.75740  0.08180  0.19650  1.0000
  C   C10       1.0  0.74260  0.58180  0.30350  1.0000
  C   C11       1.0  0.24260  0.91820  0.80350  1.0000
  C   C12       1.0  0.25740  0.41820  0.69650  1.0000
  H   H5        1.0  0.79070  0.11190  0.22600  1.0000
  H   H6        1.0  0.70930  0.61190  0.27400  1.0000
  H   H7        1.0  0.20930  0.88810  0.77400  1.0000
  H   H8        1.0  0.29070  0.38810  0.72600  1.0000
  H   H9        1.0  0.81160  0.07000  0.14490  1.0000
  H   H10       1.0  0.68840  0.57000  0.35510  1.0000
  H   H11       1.0  0.18840  0.93000  0.85510  1.0000
  H   H12       1.0  0.31160  0.43000  0.64490  1.0000
  C   C13       1.0  0.76370  0.04870  0.31210  1.0000
  C   C14       1.0  0.73630  0.54870  0.18790  1.0000
  C   C15       1.0  0.23630  0.95130  0.68790  1.0000
  C   C16       1.0  0.26370  0.45130  0.81210  1.0000
  C   C17       1.0  0.50280  0.09060  0.20170  1.0000
  C   C18       1.0  0.99720  0.59060  0.29830  1.0000
  C   C19       1.0  0.49720  0.90940  0.79830  1.0000
  C   C20       1.0  0.00280  0.40940  0.70170  1.0000
  H   H13       1.0  0.40770  0.08870  0.14590  1.0000
  H   H14       1.0  0.09230  0.58870  0.35410  1.0000
  H   H15       1.0  0.59230  0.91130  0.85410  1.0000
  H   H16       1.0  0.90770  0.41130  0.64590  1.0000
  H   H17       1.0  0.51540  0.06680  0.26450  1.0000
  H   H18       1.0  0.98460  0.56680  0.23550  1.0000
  H   H19       1.0  0.48460  0.93320  0.73550  1.0000
  H   H20       1.0  0.01540  0.43320  0.76450  1.0000
  C   C21       1.0  0.52290  0.13600  0.26830  1.0000
  C   C22       1.0  0.97710  0.63600  0.23170  1.0000
  C   C23       1.0  0.47710  0.86400  0.73170  1.0000
  C   C24       1.0  0.02290  0.36400  0.76830  1.0000
  O   O57       1.0  0.05220  0.82127  0.28710  1.0000
  O   O58       1.0  0.44780  0.32127  0.21290  1.0000
  O   O59       1.0  0.94780  0.17873  0.71290  1.0000
  O   O60       1.0  0.55220  0.67873  0.78710  1.0000
  O   O61       1.0  0.94370  0.75602  0.13170  1.0000
  O   O62       1.0  0.55630  0.25602  0.36830  1.0000
  O   O63       1.0  0.05630  0.24398  0.86830  1.0000
  O   O64       1.0  0.44370  0.74398  0.63170  1.0000
  O   O65       1.0  0.79000  0.80036  0.99330  1.0000
  O   O66       1.0  0.71000  0.30036  0.50670  1.0000
  O   O67       1.0  0.21000  0.19964  0.00670  1.0000
  O   O68       1.0  0.29000  0.69964  0.49330  1.0000
  O   O69       1.0  0.94670  0.90007  0.38150  1.0000
  O   O70       1.0  0.55330  0.40007  0.11850  1.0000
  O   O71       1.0  0.05330  0.09993  0.61850  1.0000
  O   O72       1.0  0.44670  0.59993  0.88150  1.0000
  O   O73       1.0  0.71730  0.91049  0.30610  1.0000
  O   O74       1.0  0.78270  0.41049  0.19390  1.0000
  O   O75       1.0  0.28270  0.08951  0.69390  1.0000
  O   O76       1.0  0.21730  0.58951  0.80610  1.0000
  O   O77       1.0  0.16660  0.90550  0.07880  1.0000
  O   O78       1.0  0.33340  0.40550  0.42120  1.0000
  O   O79       1.0  0.83340  0.09450  0.92120  1.0000
  O   O80       1.0  0.66660  0.59450  0.57880  1.0000
  O   O81       1.0  0.10350  0.83440  0.02120  1.0000
  O   O82       1.0  0.39650  0.33440  0.47880  1.0000
  O   O83       1.0  0.89650  0.16560  0.97880  1.0000
  O   O84       1.0  0.60350  0.66560  0.52120  1.0000
  H   H21       1.0  0.19530  0.83330  0.01190  1.0000
  H   H22       1.0  0.30470  0.33330  0.48810  1.0000
  H   H23       1.0  0.80470  0.16670  0.98810  1.0000
  H   H24       1.0  0.69530  0.66670  0.51190  1.0000
  C   C25       1.0  0.93170  0.83430  0.18910  1.0000
  C   C26       1.0  0.56830  0.33430  0.31090  1.0000
  C   C27       1.0  0.06830  0.16570  0.81090  1.0000
  C   C28       1.0  0.43170  0.66570  0.68910  1.0000
  C   C29       1.0  0.88800  0.79440  0.09420  1.0000
  C   C30       1.0  0.61200  0.29440  0.40580  1.0000
  C   C31       1.0  0.11200  0.20560  0.90580  1.0000
  C   C32       1.0  0.38800  0.70560  0.59420  1.0000
  C   C33       1.0  0.81130  0.84490  0.23650  1.0000
  C   C34       1.0  0.68870  0.34490  0.26350  1.0000
  C   C35       1.0  0.18870  0.15510  0.76350  1.0000
  C   C36       1.0  0.31130  0.65510  0.73650  1.0000
  H   H25       1.0  0.72750  0.84720  0.16460  1.0000
  H   H26       1.0  0.77250  0.34720  0.33540  1.0000
  H   H27       1.0  0.27250  0.15280  0.83540  1.0000
  H   H28       1.0  0.22750  0.65280  0.66460  1.0000
  H   H29       1.0  0.79860  0.81980  0.28830  1.0000
  H   H30       1.0  0.70140  0.31980  0.21170  1.0000
  H   H31       1.0  0.20140  0.18020  0.71170  1.0000
  H   H32       1.0  0.29860  0.68020  0.78830  1.0000
  C   C37       1.0  0.82630  0.88760  0.31250  1.0000
  C   C38       1.0  0.67370  0.38760  0.18750  1.0000
  C   C39       1.0  0.17370  0.11240  0.68750  1.0000
  C   C40       1.0  0.32630  0.61240  0.81250  1.0000
  C   C41       1.0  0.96160  0.87610  0.11520  1.0000
  C   C42       1.0  0.53840  0.37610  0.38480  1.0000
  C   C43       1.0  0.03840  0.12390  0.88480  1.0000
  C   C44       1.0  0.46160  0.62390  0.61520  1.0000
  H   H33       1.0  0.96820  0.90270  0.16810  1.0000
  H   H34       1.0  0.53180  0.40270  0.33190  1.0000
  H   H35       1.0  0.03180  0.09730  0.83190  1.0000
  H   H36       1.0  0.46820  0.59730  0.66810  1.0000
  H   H37       1.0  0.88170  0.88040  0.04060  1.0000
  H   H38       1.0  0.61830  0.38040  0.45940  1.0000
  H   H39       1.0  0.11830  0.11960  0.95940  1.0000
  H   H40       1.0  0.38170  0.61960  0.54060  1.0000
  C   C45       1.0  0.08970  0.87440  0.07370  1.0000
  C   C46       1.0  0.41030  0.37440  0.42630  1.0000
  C   C47       1.0  0.91030  0.12560  0.92630  1.0000
  C   C48       1.0  0.58970  0.62560  0.57370  1.0000
