data_image0
_chemical_formula_structural       Mo12Ni4O12H2O2H2O2H2O14H2O6H2O2H2O12H4N4H2N4H2N4H2C2H2C2H2C2H2C2H2C2H2C2H2C2H2C2H2C2H2
_chemical_formula_sum              "Mo12 Ni4 O50 H40 N12 C18"
_cell_length_a       12.7092
_cell_length_b       13.6302
_cell_length_c       14.3496
_cell_angle_alpha    68.072
_cell_angle_beta     68.57
_cell_angle_gamma    73.613

_space_group_name_H-M_alt    "P 1"
_space_group_IT_number       1

loop_
  _space_group_symop_operation_xyz
  'x, y, z'

loop_
  _atom_site_type_symbol
  _atom_site_label
  _atom_site_symmetry_multiplicity
  _atom_site_fract_x
  _atom_site_fract_y
  _atom_site_fract_z
  _atom_site_occupancy
  Mo  Mo1       1.0  0.47839  0.25230  0.16993  1.0000
  Mo  Mo2       1.0  0.52161  0.74770  0.83007  1.0000
  Mo  Mo3       1.0  0.69623  0.29140  0.95330  1.0000
  Mo  Mo4       1.0  0.30377  0.70860  0.04670  1.0000
  Mo  Mo5       1.0  0.28153  0.46267  0.21362  1.0000
  Mo  Mo6       1.0  0.71847  0.53733  0.78638  1.0000
  Mo  Mo7       1.0  0.13623  0.24682  0.05409  1.0000
  Mo  Mo8       1.0  0.86377  0.75318  0.94591  1.0000
  Mo  Mo9       1.0  0.25833  0.42952  0.84718  1.0000
  Mo  Mo10      1.0  0.74167  0.57048  0.15282  1.0000
  Mo  Mo11      1.0  0.87775  0.31632  0.21027  1.0000
  Mo  Mo12      1.0  0.12225  0.68368  0.78973  1.0000
  Ni  Ni1       1.0  0.25279  0.07125  0.28147  1.0000
  Ni  Ni2       1.0  0.74721  0.92875  0.71853  1.0000
  Ni  Ni3       1.0  0.50000  0.50000  0.00000  1.0000
  Ni  Ni4       1.0  0.00000  0.50000  0.00000  1.0000
  O   O1        1.0  0.36800  0.18210  0.21360  1.0000
  O   O2        1.0  0.63200  0.81790  0.78640  1.0000
  O   O3        1.0  0.18570  0.16680  0.15980  1.0000
  O   O4        1.0  0.81430  0.83320  0.84020  1.0000
  O   O5        1.0  0.56760  0.17420  0.24270  1.0000
  O   O6        1.0  0.43240  0.82580  0.75730  1.0000
  O   O7        1.0  0.55880  0.22690  0.03650  1.0000
  O   O8        1.0  0.44120  0.77310  0.96350  1.0000
  O   O9        1.0  0.40420  0.35190  0.25450  1.0000
  O   O10       1.0  0.59580  0.64810  0.74550  1.0000
  O   O11       1.0  0.38200  0.39730  0.07760  1.0000
  O   O12       1.0  0.61800  0.60270  0.92240  1.0000
  H   H1        1.0  0.33000  0.40500  0.07580  1.0000
  H   H2        1.0  0.67000  0.59500  0.92420  1.0000
  O   O13       1.0  0.59670  0.37070  0.07920  1.0000
  O   O14       1.0  0.40330  0.62930  0.92080  1.0000
  H   H3        1.0  0.63970  0.38420  0.11640  1.0000
  H   H4        1.0  0.36030  0.61580  0.88360  1.0000
  O   O15       1.0  0.58240  0.43710  0.88000  1.0000
  O   O16       1.0  0.41760  0.56290  0.12000  1.0000
  H   H5        1.0  0.53620  0.42760  0.84320  1.0000
  H   H6        1.0  0.46380  0.57240  0.15680  1.0000
  O   O17       1.0  0.79330  0.21450  0.01830  1.0000
  O   O18       1.0  0.20670  0.78550  0.98170  1.0000
  O   O19       1.0  0.73070  0.24650  0.84690  1.0000
  O   O20       1.0  0.26930  0.75350  0.15310  1.0000
  O   O21       1.0  0.77570  0.41670  0.88990  1.0000
  O   O22       1.0  0.22430  0.58330  0.11010  1.0000
  O   O23       1.0  0.24650  0.51350  0.31510  1.0000
  O   O24       1.0  0.75350  0.48650  0.68490  1.0000
  O   O25       1.0  0.17270  0.39130  0.24780  1.0000
  O   O26       1.0  0.82730  0.60870  0.75220  1.0000
  O   O27       1.0  0.25970  0.33140  0.98520  1.0000
  O   O28       1.0  0.74030  0.66860  0.01480  1.0000
  O   O29       1.0  0.04310  0.38090  0.12570  1.0000
  O   O30       1.0  0.95690  0.61910  0.87430  1.0000
  H   H7        1.0  0.07920  0.39840  0.16590  1.0000
  H   H8        1.0  0.92080  0.60160  0.83410  1.0000
  O   O31       1.0  0.97340  0.23560  0.11410  1.0000
  O   O32       1.0  0.02660  0.76440  0.88590  1.0000
  O   O33       1.0  0.16950  0.16410  0.98050  1.0000
  O   O34       1.0  0.83050  0.83590  0.01950  1.0000
  O   O35       1.0  0.15390  0.55310  0.93350  1.0000
  O   O36       1.0  0.84610  0.44690  0.06650  1.0000
  H   H9        1.0  0.18670  0.56850  0.97760  1.0000
  H   H10       1.0  0.81330  0.43150  0.02240  1.0000
  O   O37       1.0  0.08400  0.38550  0.92860  1.0000
  O   O38       1.0  0.91600  0.61450  0.07140  1.0000
  H   H11       1.0  0.04630  0.37220  0.88690  1.0000
  H   H12       1.0  0.95370  0.62780  0.11310  1.0000
  O   O39       1.0  0.38240  0.47540  0.81820  1.0000
  O   O40       1.0  0.61760  0.52460  0.18180  1.0000
  O   O41       1.0  0.29240  0.34370  0.77500  1.0000
  O   O42       1.0  0.70760  0.65630  0.22500  1.0000
  O   O43       1.0  0.18100  0.54910  0.75540  1.0000
  O   O44       1.0  0.81900  0.45090  0.24460  1.0000
  O   O45       1.0  0.92260  0.24760  0.31970  1.0000
  O   O46       1.0  0.07740  0.75240  0.68030  1.0000
  O   O47       1.0  0.75150  0.27420  0.23850  1.0000
  O   O48       1.0  0.24850  0.72580  0.76150  1.0000
  O   O49       1.0  0.13760  0.18540  0.35750  1.0000
  O   O50       1.0  0.86240  0.81460  0.64250  1.0000
  H   H13       1.0  0.07580  0.16110  0.39530  1.0000
  H   H14       1.0  0.92420  0.83890  0.60470  1.0000
  H   H15       1.0  0.16820  0.19580  0.39600  1.0000
  H   H16       1.0  0.83180  0.80420  0.60400  1.0000
  N   N1        1.0  0.37460  0.98030  0.19390  1.0000
  N   N2        1.0  0.62540  0.01970  0.80610  1.0000
  N   N3        1.0  0.46340  0.88850  0.08320  1.0000
  N   N4        1.0  0.53660  0.11150  0.91680  1.0000
  H   H17       1.0  0.47490  0.86000  0.03520  1.0000
  H   H18       1.0  0.52510  0.14000  0.96480  1.0000
  N   N5        1.0  0.30410  0.00130  0.41710  1.0000
  N   N6        1.0  0.69590  0.99870  0.58290  1.0000
  N   N7        1.0  0.31150  0.90360  0.57570  1.0000
  N   N8        1.0  0.68850  0.09640  0.42430  1.0000
  H   H19       1.0  0.30230  0.85230  0.63390  1.0000
  H   H20       1.0  0.69770  0.14770  0.36610  1.0000
  N   N9        1.0  0.13380  0.97070  0.33200  1.0000
  N   N10       1.0  0.86620  0.02930  0.66800  1.0000
  N   N11       1.0  0.05720  0.82710  0.38290  1.0000
  N   N12       1.0  0.94280  0.17290  0.61710  1.0000
  H   H21       1.0  0.05160  0.76140  0.39620  1.0000
  H   H22       1.0  0.94840  0.23860  0.60380  1.0000
  C   C1        1.0  0.36690  0.95120  0.12060  1.0000
  C   C2        1.0  0.63310  0.04880  0.87940  1.0000
  H   H23       1.0  0.30250  0.97130  0.09700  1.0000
  H   H24       1.0  0.69750  0.02870  0.90300  1.0000
  C   C3        1.0  0.53930  0.87750  0.13310  1.0000
  C   C4        1.0  0.46070  0.12250  0.86690  1.0000
  H   H25       1.0  0.61310  0.83800  0.12310  1.0000
  H   H26       1.0  0.38690  0.16200  0.87690  1.0000
  C   C5        1.0  0.48560  0.93600  0.20130  1.0000
  C   C6        1.0  0.51440  0.06400  0.79870  1.0000
  H   H27       1.0  0.51760  0.94510  0.24570  1.0000
  H   H28       1.0  0.48240  0.05490  0.75430  1.0000
  C   C7        1.0  0.28040  0.91290  0.49420  1.0000
  C   C8        1.0  0.71960  0.08710  0.50580  1.0000
  H   H29       1.0  0.24560  0.86280  0.49150  1.0000
  H   H30       1.0  0.75440  0.13720  0.50850  1.0000
  C   C9        1.0  0.35900  0.98720  0.55110  1.0000
  C   C10       1.0  0.64100  0.01280  0.44890  1.0000
  H   H31       1.0  0.39070  0.00140  0.59280  1.0000
  H   H32       1.0  0.60930  0.99860  0.40720  1.0000
  C   C11       1.0  0.35300  0.04930  0.45300  1.0000
  C   C12       1.0  0.64700  0.95070  0.54700  1.0000
  H   H33       1.0  0.37870  0.11460  0.41660  1.0000
  H   H34       1.0  0.62130  0.88540  0.58340  1.0000
  C   C13       1.0  0.01880  0.99300  0.36830  1.0000
  C   C14       1.0  0.98120  0.00700  0.63170  1.0000
  H   H35       1.0  0.97800  0.06110  0.36980  1.0000
  H   H36       1.0  0.02200  0.93890  0.63020  1.0000
  C   C15       1.0  0.97000  0.90700  0.40180  1.0000
  C   C16       1.0  0.03000  0.09300  0.59820  1.0000
  H   H37       1.0  0.89240  0.90300  0.43180  1.0000
  H   H38       1.0  0.10760  0.09700  0.56820  1.0000
  C   C17       1.0  0.15530  0.86900  0.33920  1.0000
  C   C18       1.0  0.84470  0.13100  0.66080  1.0000
  H   H39       1.0  0.22800  0.83060  0.31720  1.0000
  H   H40       1.0  0.77200  0.16940  0.68280  1.0000
