data_image0
_chemical_formula_structural       Sc4O32C48Cl16
_chemical_formula_sum              "Sc4 O32 C48 Cl16"
_cell_length_a       11.6882
_cell_length_b       11.6882
_cell_length_c       20.037
_cell_angle_alpha    90
_cell_angle_beta     90
_cell_angle_gamma    90

_space_group_name_H-M_alt    "P 1"
_space_group_IT_number       1

loop_
  _space_group_symop_operation_xyz
  'x, y, z'

loop_
  _atom_site_type_symbol
  _atom_site_label
  _atom_site_symmetry_multiplicity
  _atom_site_fract_x
  _atom_site_fract_y
  _atom_site_fract_z
  _atom_site_occupancy
  Sc  Sc1       1.0  0.50000  0.50000  0.25000  1.0000
  Sc  Sc2       1.0  0.00000  0.00000  0.75000  1.0000
  Sc  Sc3       1.0  0.50000  0.50000  0.75000  1.0000
  Sc  Sc4       1.0  0.00000  0.00000  0.25000  1.0000
  O   O1        1.0  0.57210  0.64517  0.30725  1.0000
  O   O2        1.0  0.42790  0.35483  0.30725  1.0000
  O   O3        1.0  0.35483  0.57210  0.30725  1.0000
  O   O4        1.0  0.64517  0.42790  0.30725  1.0000
  O   O5        1.0  0.42790  0.64517  0.19275  1.0000
  O   O6        1.0  0.57210  0.35483  0.19275  1.0000
  O   O7        1.0  0.64517  0.57210  0.19275  1.0000
  O   O8        1.0  0.35483  0.42790  0.19275  1.0000
  O   O9        1.0  0.07210  0.14517  0.80725  1.0000
  O   O10       1.0  0.92790  0.85483  0.80725  1.0000
  O   O11       1.0  0.85483  0.07210  0.80725  1.0000
  O   O12       1.0  0.14517  0.92790  0.80725  1.0000
  O   O13       1.0  0.92790  0.14517  0.69275  1.0000
  O   O14       1.0  0.07210  0.85483  0.69275  1.0000
  O   O15       1.0  0.14517  0.07210  0.69275  1.0000
  O   O16       1.0  0.85483  0.92790  0.69275  1.0000
  O   O17       1.0  0.42790  0.35483  0.69275  1.0000
  O   O18       1.0  0.57210  0.64517  0.69275  1.0000
  O   O19       1.0  0.64517  0.42790  0.69275  1.0000
  O   O20       1.0  0.35483  0.57210  0.69275  1.0000
  O   O21       1.0  0.57210  0.35483  0.80725  1.0000
  O   O22       1.0  0.42790  0.64517  0.80725  1.0000
  O   O23       1.0  0.35483  0.42790  0.80725  1.0000
  O   O24       1.0  0.64517  0.57210  0.80725  1.0000
  O   O25       1.0  0.92790  0.85483  0.19275  1.0000
  O   O26       1.0  0.07210  0.14517  0.19275  1.0000
  O   O27       1.0  0.14517  0.92790  0.19275  1.0000
  O   O28       1.0  0.85483  0.07210  0.19275  1.0000
  O   O29       1.0  0.07210  0.85483  0.30725  1.0000
  O   O30       1.0  0.92790  0.14517  0.30725  1.0000
  O   O31       1.0  0.85483  0.92790  0.30725  1.0000
  O   O32       1.0  0.14517  0.07210  0.30725  1.0000
  C   C1        1.0  0.65570  0.69810  0.28390  1.0000
  C   C2        1.0  0.34430  0.30190  0.28390  1.0000
  C   C3        1.0  0.30190  0.65570  0.28390  1.0000
  C   C4        1.0  0.69810  0.34430  0.28390  1.0000
  C   C5        1.0  0.34430  0.69810  0.21610  1.0000
  C   C6        1.0  0.65570  0.30190  0.21610  1.0000
  C   C7        1.0  0.69810  0.65570  0.21610  1.0000
  C   C8        1.0  0.30190  0.34430  0.21610  1.0000
  C   C9        1.0  0.15570  0.19810  0.78390  1.0000
  C   C10       1.0  0.84430  0.80190  0.78390  1.0000
  C   C11       1.0  0.80190  0.15570  0.78390  1.0000
  C   C12       1.0  0.19810  0.84430  0.78390  1.0000
  C   C13       1.0  0.84430  0.19810  0.71610  1.0000
  C   C14       1.0  0.15570  0.80190  0.71610  1.0000
  C   C15       1.0  0.19810  0.15570  0.71610  1.0000
  C   C16       1.0  0.80190  0.84430  0.71610  1.0000
  C   C17       1.0  0.34430  0.30190  0.71610  1.0000
  C   C18       1.0  0.65570  0.69810  0.71610  1.0000
  C   C19       1.0  0.69810  0.34430  0.71610  1.0000
  C   C20       1.0  0.30190  0.65570  0.71610  1.0000
  C   C21       1.0  0.65570  0.30190  0.78390  1.0000
  C   C22       1.0  0.34430  0.69810  0.78390  1.0000
  C   C23       1.0  0.30190  0.34430  0.78390  1.0000
  C   C24       1.0  0.69810  0.65570  0.78390  1.0000
  C   C25       1.0  0.84430  0.80190  0.21610  1.0000
  C   C26       1.0  0.15570  0.19810  0.21610  1.0000
  C   C27       1.0  0.19810  0.84430  0.21610  1.0000
  C   C28       1.0  0.80190  0.15570  0.21610  1.0000
  C   C29       1.0  0.15570  0.80190  0.28390  1.0000
  C   C30       1.0  0.84430  0.19810  0.28390  1.0000
  C   C31       1.0  0.80190  0.84430  0.28390  1.0000
  C   C32       1.0  0.19810  0.15570  0.28390  1.0000
  C   C33       1.0  0.70970  0.79030  0.31440  1.0000
  C   C34       1.0  0.29030  0.20970  0.31440  1.0000
  C   C35       1.0  0.20970  0.70970  0.31440  1.0000
  C   C36       1.0  0.79030  0.29030  0.31440  1.0000
  C   C37       1.0  0.29030  0.79030  0.18560  1.0000
  C   C38       1.0  0.70970  0.20970  0.18560  1.0000
  C   C39       1.0  0.79030  0.70970  0.18560  1.0000
  C   C40       1.0  0.20970  0.29030  0.18560  1.0000
  C   C41       1.0  0.20970  0.29030  0.81440  1.0000
  C   C42       1.0  0.79030  0.70970  0.81440  1.0000
  C   C43       1.0  0.70970  0.20970  0.81440  1.0000
  C   C44       1.0  0.29030  0.79030  0.81440  1.0000
  C   C45       1.0  0.79030  0.29030  0.68560  1.0000
  C   C46       1.0  0.20970  0.70970  0.68560  1.0000
  C   C47       1.0  0.29030  0.20970  0.68560  1.0000
  C   C48       1.0  0.70970  0.79030  0.68560  1.0000
  Cl  Cl1       1.0  0.66113  0.83887  0.39049  1.0000
  Cl  Cl2       1.0  0.33887  0.16113  0.39049  1.0000
  Cl  Cl3       1.0  0.16113  0.66113  0.39049  1.0000
  Cl  Cl4       1.0  0.83887  0.33887  0.39049  1.0000
  Cl  Cl5       1.0  0.33887  0.83887  0.10951  1.0000
  Cl  Cl6       1.0  0.66113  0.16113  0.10951  1.0000
  Cl  Cl7       1.0  0.83887  0.66113  0.10951  1.0000
  Cl  Cl8       1.0  0.16113  0.33887  0.10951  1.0000
  Cl  Cl9       1.0  0.16113  0.33887  0.89049  1.0000
  Cl  Cl10      1.0  0.83887  0.66113  0.89049  1.0000
  Cl  Cl11      1.0  0.66113  0.16113  0.89049  1.0000
  Cl  Cl12      1.0  0.33887  0.83887  0.89049  1.0000
  Cl  Cl13      1.0  0.83887  0.33887  0.60951  1.0000
  Cl  Cl14      1.0  0.16113  0.66113  0.60951  1.0000
  Cl  Cl15      1.0  0.33887  0.16113  0.60951  1.0000
  Cl  Cl16      1.0  0.66113  0.83887  0.60951  1.0000
