data_image0
_chemical_formula_structural       Y4O32C32Cl16C16
_chemical_formula_sum              "Y4 O32 C48 Cl16"
_cell_length_a       12.175
_cell_length_b       12.175
_cell_length_c       20.8637
_cell_angle_alpha    90
_cell_angle_beta     90
_cell_angle_gamma    90

_space_group_name_H-M_alt    "P 1"
_space_group_IT_number       1

loop_
  _space_group_symop_operation_xyz
  'x, y, z'

loop_
  _atom_site_type_symbol
  _atom_site_label
  _atom_site_symmetry_multiplicity
  _atom_site_fract_x
  _atom_site_fract_y
  _atom_site_fract_z
  _atom_site_occupancy
  Y   Y1        1.0  0.50000  0.50000  0.75000  1.0000
  Y   Y2        1.0  0.00000  0.00000  0.25000  1.0000
  Y   Y3        1.0  0.50000  0.50000  0.25000  1.0000
  Y   Y4        1.0  0.00000  0.00000  0.75000  1.0000
  O   O1        1.0  0.41150  0.36180  0.69120  1.0000
  O   O2        1.0  0.58850  0.63820  0.69120  1.0000
  O   O3        1.0  0.63820  0.41150  0.69120  1.0000
  O   O4        1.0  0.36180  0.58850  0.69120  1.0000
  O   O5        1.0  0.58850  0.36180  0.80880  1.0000
  O   O6        1.0  0.41150  0.63820  0.80880  1.0000
  O   O7        1.0  0.36180  0.41150  0.80880  1.0000
  O   O8        1.0  0.63820  0.58850  0.80880  1.0000
  O   O9        1.0  0.91150  0.86180  0.19120  1.0000
  O   O10       1.0  0.08850  0.13820  0.19120  1.0000
  O   O11       1.0  0.13820  0.91150  0.19120  1.0000
  O   O12       1.0  0.86180  0.08850  0.19120  1.0000
  O   O13       1.0  0.08850  0.86180  0.30880  1.0000
  O   O14       1.0  0.91150  0.13820  0.30880  1.0000
  O   O15       1.0  0.86180  0.91150  0.30880  1.0000
  O   O16       1.0  0.13820  0.08850  0.30880  1.0000
  O   O17       1.0  0.58850  0.63820  0.30880  1.0000
  O   O18       1.0  0.41150  0.36180  0.30880  1.0000
  O   O19       1.0  0.36180  0.58850  0.30880  1.0000
  O   O20       1.0  0.63820  0.41150  0.30880  1.0000
  O   O21       1.0  0.41150  0.63820  0.19120  1.0000
  O   O22       1.0  0.58850  0.36180  0.19120  1.0000
  O   O23       1.0  0.63820  0.58850  0.19120  1.0000
  O   O24       1.0  0.36180  0.41150  0.19120  1.0000
  O   O25       1.0  0.08850  0.13820  0.80880  1.0000
  O   O26       1.0  0.91150  0.86180  0.80880  1.0000
  O   O27       1.0  0.86180  0.08850  0.80880  1.0000
  O   O28       1.0  0.13820  0.91150  0.80880  1.0000
  O   O29       1.0  0.91150  0.13820  0.69120  1.0000
  O   O30       1.0  0.08850  0.86180  0.69120  1.0000
  O   O31       1.0  0.13820  0.08850  0.69120  1.0000
  O   O32       1.0  0.86180  0.91150  0.69120  1.0000
  C   C1        1.0  0.33350  0.30790  0.71530  1.0000
  C   C2        1.0  0.66650  0.69210  0.71530  1.0000
  C   C3        1.0  0.69210  0.33350  0.71530  1.0000
  C   C4        1.0  0.30790  0.66650  0.71530  1.0000
  C   C5        1.0  0.66650  0.30790  0.78470  1.0000
  C   C6        1.0  0.33350  0.69210  0.78470  1.0000
  C   C7        1.0  0.30790  0.33350  0.78470  1.0000
  C   C8        1.0  0.69210  0.66650  0.78470  1.0000
  C   C9        1.0  0.83350  0.80790  0.21530  1.0000
  C   C10       1.0  0.16650  0.19210  0.21530  1.0000
  C   C11       1.0  0.19210  0.83350  0.21530  1.0000
  C   C12       1.0  0.80790  0.16650  0.21530  1.0000
  C   C13       1.0  0.16650  0.80790  0.28470  1.0000
  C   C14       1.0  0.83350  0.19210  0.28470  1.0000
  C   C15       1.0  0.80790  0.83350  0.28470  1.0000
  C   C16       1.0  0.19210  0.16650  0.28470  1.0000
  C   C17       1.0  0.66650  0.69210  0.28470  1.0000
  C   C18       1.0  0.33350  0.30790  0.28470  1.0000
  C   C19       1.0  0.30790  0.66650  0.28470  1.0000
  C   C20       1.0  0.69210  0.33350  0.28470  1.0000
  C   C21       1.0  0.33350  0.69210  0.21530  1.0000
  C   C22       1.0  0.66650  0.30790  0.21530  1.0000
  C   C23       1.0  0.69210  0.66650  0.21530  1.0000
  C   C24       1.0  0.30790  0.33350  0.21530  1.0000
  C   C25       1.0  0.16650  0.19210  0.78470  1.0000
  C   C26       1.0  0.83350  0.80790  0.78470  1.0000
  C   C27       1.0  0.80790  0.16650  0.78470  1.0000
  C   C28       1.0  0.19210  0.83350  0.78470  1.0000
  C   C29       1.0  0.83350  0.19210  0.71530  1.0000
  C   C30       1.0  0.16650  0.80790  0.71530  1.0000
  C   C31       1.0  0.19210  0.16650  0.71530  1.0000
  C   C32       1.0  0.80790  0.83350  0.71530  1.0000
  Cl  Cl1       1.0  0.29740  0.20260  0.60235  1.0000
  Cl  Cl2       1.0  0.70260  0.79740  0.60235  1.0000
  Cl  Cl3       1.0  0.79740  0.29740  0.60235  1.0000
  Cl  Cl4       1.0  0.20260  0.70260  0.60235  1.0000
  Cl  Cl5       1.0  0.70260  0.20260  0.89765  1.0000
  Cl  Cl6       1.0  0.29740  0.79740  0.89765  1.0000
  Cl  Cl7       1.0  0.20260  0.29740  0.89765  1.0000
  Cl  Cl8       1.0  0.79740  0.70260  0.89765  1.0000
  Cl  Cl9       1.0  0.79740  0.70260  0.10235  1.0000
  Cl  Cl10      1.0  0.20260  0.29740  0.10235  1.0000
  Cl  Cl11      1.0  0.29740  0.79740  0.10235  1.0000
  Cl  Cl12      1.0  0.70260  0.20260  0.10235  1.0000
  Cl  Cl13      1.0  0.20260  0.70260  0.39765  1.0000
  Cl  Cl14      1.0  0.79740  0.29740  0.39765  1.0000
  Cl  Cl15      1.0  0.70260  0.79740  0.39765  1.0000
  Cl  Cl16      1.0  0.29740  0.20260  0.39765  1.0000
  C   C33       1.0  0.27010  0.22990  0.68280  1.0000
  C   C34       1.0  0.72990  0.77010  0.68280  1.0000
  C   C35       1.0  0.77010  0.27010  0.68280  1.0000
  C   C36       1.0  0.22990  0.72990  0.68280  1.0000
  C   C37       1.0  0.72990  0.22990  0.81720  1.0000
  C   C38       1.0  0.27010  0.77010  0.81720  1.0000
  C   C39       1.0  0.22990  0.27010  0.81720  1.0000
  C   C40       1.0  0.77010  0.72990  0.81720  1.0000
  C   C41       1.0  0.77010  0.72990  0.18280  1.0000
  C   C42       1.0  0.22990  0.27010  0.18280  1.0000
  C   C43       1.0  0.27010  0.77010  0.18280  1.0000
  C   C44       1.0  0.72990  0.22990  0.18280  1.0000
  C   C45       1.0  0.22990  0.72990  0.31720  1.0000
  C   C46       1.0  0.77010  0.27010  0.31720  1.0000
  C   C47       1.0  0.72990  0.77010  0.31720  1.0000
  C   C48       1.0  0.27010  0.22990  0.31720  1.0000
