data_image0
_chemical_formula_structural       Er4O32C48Cl16
_chemical_formula_sum              "Er4 O32 C48 Cl16"
_cell_length_a       12.0916
_cell_length_b       12.0916
_cell_length_c       20.2203
_cell_angle_alpha    90
_cell_angle_beta     90
_cell_angle_gamma    90

_space_group_name_H-M_alt    "P 1"
_space_group_IT_number       1

loop_
  _space_group_symop_operation_xyz
  'x, y, z'

loop_
  _atom_site_type_symbol
  _atom_site_label
  _atom_site_symmetry_multiplicity
  _atom_site_fract_x
  _atom_site_fract_y
  _atom_site_fract_z
  _atom_site_occupancy
  Er  Er1       1.0  0.50000  0.50000  0.75000  1.0000
  Er  Er2       1.0  0.00000  0.00000  0.25000  1.0000
  Er  Er3       1.0  0.50000  0.50000  0.25000  1.0000
  Er  Er4       1.0  0.00000  0.00000  0.75000  1.0000
  O   O1        1.0  0.42072  0.35369  0.69173  1.0000
  O   O2        1.0  0.57928  0.64631  0.69173  1.0000
  O   O3        1.0  0.64631  0.42072  0.69173  1.0000
  O   O4        1.0  0.35369  0.57928  0.69173  1.0000
  O   O5        1.0  0.57928  0.35369  0.80827  1.0000
  O   O6        1.0  0.42072  0.64631  0.80827  1.0000
  O   O7        1.0  0.35369  0.42072  0.80827  1.0000
  O   O8        1.0  0.64631  0.57928  0.80827  1.0000
  O   O9        1.0  0.92072  0.85369  0.19173  1.0000
  O   O10       1.0  0.07928  0.14631  0.19173  1.0000
  O   O11       1.0  0.14631  0.92072  0.19173  1.0000
  O   O12       1.0  0.85369  0.07928  0.19173  1.0000
  O   O13       1.0  0.07928  0.85369  0.30827  1.0000
  O   O14       1.0  0.92072  0.14631  0.30827  1.0000
  O   O15       1.0  0.85369  0.92072  0.30827  1.0000
  O   O16       1.0  0.14631  0.07928  0.30827  1.0000
  O   O17       1.0  0.57928  0.64631  0.30827  1.0000
  O   O18       1.0  0.42072  0.35369  0.30827  1.0000
  O   O19       1.0  0.35369  0.57928  0.30827  1.0000
  O   O20       1.0  0.64631  0.42072  0.30827  1.0000
  O   O21       1.0  0.42072  0.64631  0.19173  1.0000
  O   O22       1.0  0.57928  0.35369  0.19173  1.0000
  O   O23       1.0  0.64631  0.57928  0.19173  1.0000
  O   O24       1.0  0.35369  0.42072  0.19173  1.0000
  O   O25       1.0  0.07928  0.14631  0.80827  1.0000
  O   O26       1.0  0.92072  0.85369  0.80827  1.0000
  O   O27       1.0  0.85369  0.07928  0.80827  1.0000
  O   O28       1.0  0.14631  0.92072  0.80827  1.0000
  O   O29       1.0  0.92072  0.14631  0.69173  1.0000
  O   O30       1.0  0.07928  0.85369  0.69173  1.0000
  O   O31       1.0  0.14631  0.07928  0.69173  1.0000
  O   O32       1.0  0.85369  0.92072  0.69173  1.0000
  C   C1        1.0  0.28393  0.21607  0.68430  1.0000
  C   C2        1.0  0.71607  0.78393  0.68430  1.0000
  C   C3        1.0  0.78393  0.28393  0.68430  1.0000
  C   C4        1.0  0.21607  0.71607  0.68430  1.0000
  C   C5        1.0  0.71607  0.21607  0.81570  1.0000
  C   C6        1.0  0.28393  0.78393  0.81570  1.0000
  C   C7        1.0  0.21607  0.28393  0.81570  1.0000
  C   C8        1.0  0.78393  0.71607  0.81570  1.0000
  C   C9        1.0  0.78393  0.71607  0.18430  1.0000
  C   C10       1.0  0.21607  0.28393  0.18430  1.0000
  C   C11       1.0  0.28393  0.78393  0.18430  1.0000
  C   C12       1.0  0.71607  0.21607  0.18430  1.0000
  C   C13       1.0  0.21607  0.71607  0.31570  1.0000
  C   C14       1.0  0.78393  0.28393  0.31570  1.0000
  C   C15       1.0  0.71607  0.78393  0.31570  1.0000
  C   C16       1.0  0.28393  0.21607  0.31570  1.0000
  C   C17       1.0  0.33980  0.30240  0.71516  1.0000
  C   C18       1.0  0.66020  0.69760  0.71516  1.0000
  C   C19       1.0  0.69760  0.33980  0.71516  1.0000
  C   C20       1.0  0.30240  0.66020  0.71516  1.0000
  C   C21       1.0  0.66020  0.30240  0.78484  1.0000
  C   C22       1.0  0.33980  0.69760  0.78484  1.0000
  C   C23       1.0  0.30240  0.33980  0.78484  1.0000
  C   C24       1.0  0.69760  0.66020  0.78484  1.0000
  C   C25       1.0  0.83980  0.80240  0.21516  1.0000
  C   C26       1.0  0.16020  0.19760  0.21516  1.0000
  C   C27       1.0  0.19760  0.83980  0.21516  1.0000
  C   C28       1.0  0.80240  0.16020  0.21516  1.0000
  C   C29       1.0  0.16020  0.80240  0.28484  1.0000
  C   C30       1.0  0.83980  0.19760  0.28484  1.0000
  C   C31       1.0  0.80240  0.83980  0.28484  1.0000
  C   C32       1.0  0.19760  0.16020  0.28484  1.0000
  C   C33       1.0  0.66020  0.69760  0.28484  1.0000
  C   C34       1.0  0.33980  0.30240  0.28484  1.0000
  C   C35       1.0  0.30240  0.66020  0.28484  1.0000
  C   C36       1.0  0.69760  0.33980  0.28484  1.0000
  C   C37       1.0  0.33980  0.69760  0.21516  1.0000
  C   C38       1.0  0.66020  0.30240  0.21516  1.0000
  C   C39       1.0  0.69760  0.66020  0.21516  1.0000
  C   C40       1.0  0.30240  0.33980  0.21516  1.0000
  C   C41       1.0  0.16020  0.19760  0.78484  1.0000
  C   C42       1.0  0.83980  0.80240  0.78484  1.0000
  C   C43       1.0  0.80240  0.16020  0.78484  1.0000
  C   C44       1.0  0.19760  0.83980  0.78484  1.0000
  C   C45       1.0  0.83980  0.19760  0.71516  1.0000
  C   C46       1.0  0.16020  0.80240  0.71516  1.0000
  C   C47       1.0  0.19760  0.16020  0.71516  1.0000
  C   C48       1.0  0.80240  0.83980  0.71516  1.0000
  Cl  Cl1       1.0  0.32560  0.17440  0.60622  1.0000
  Cl  Cl2       1.0  0.67440  0.82560  0.60622  1.0000
  Cl  Cl3       1.0  0.82560  0.32560  0.60622  1.0000
  Cl  Cl4       1.0  0.17440  0.67440  0.60622  1.0000
  Cl  Cl5       1.0  0.67440  0.17440  0.89378  1.0000
  Cl  Cl6       1.0  0.32560  0.82560  0.89378  1.0000
  Cl  Cl7       1.0  0.17440  0.32560  0.89378  1.0000
  Cl  Cl8       1.0  0.82560  0.67440  0.89378  1.0000
  Cl  Cl9       1.0  0.82560  0.67440  0.10622  1.0000
  Cl  Cl10      1.0  0.17440  0.32560  0.10622  1.0000
  Cl  Cl11      1.0  0.32560  0.82560  0.10622  1.0000
  Cl  Cl12      1.0  0.67440  0.17440  0.10622  1.0000
  Cl  Cl13      1.0  0.17440  0.67440  0.39378  1.0000
  Cl  Cl14      1.0  0.82560  0.32560  0.39378  1.0000
  Cl  Cl15      1.0  0.67440  0.82560  0.39378  1.0000
  Cl  Cl16      1.0  0.32560  0.17440  0.39378  1.0000
