data_image0
_chemical_formula_structural       O32In4C48Cl16
_chemical_formula_sum              "O32 In4 C48 Cl16"
_cell_length_a       11.8178
_cell_length_b       11.8178
_cell_length_c       20.7611
_cell_angle_alpha    90
_cell_angle_beta     90
_cell_angle_gamma    90

_space_group_name_H-M_alt    "P 1"
_space_group_IT_number       1

loop_
  _space_group_symop_operation_xyz
  'x, y, z'

loop_
  _atom_site_type_symbol
  _atom_site_label
  _atom_site_symmetry_multiplicity
  _atom_site_fract_x
  _atom_site_fract_y
  _atom_site_fract_z
  _atom_site_occupancy
  O   O1        1.0  0.57682  0.64255  0.30838  1.0000
  O   O2        1.0  0.42318  0.35745  0.30838  1.0000
  O   O3        1.0  0.35745  0.57682  0.30838  1.0000
  O   O4        1.0  0.64255  0.42318  0.30838  1.0000
  O   O5        1.0  0.42318  0.64255  0.19162  1.0000
  O   O6        1.0  0.57682  0.35745  0.19162  1.0000
  O   O7        1.0  0.64255  0.57682  0.19162  1.0000
  O   O8        1.0  0.35745  0.42318  0.19162  1.0000
  O   O9        1.0  0.07682  0.14255  0.80838  1.0000
  O   O10       1.0  0.92318  0.85745  0.80838  1.0000
  O   O11       1.0  0.85745  0.07682  0.80838  1.0000
  O   O12       1.0  0.14255  0.92318  0.80838  1.0000
  O   O13       1.0  0.92318  0.14255  0.69162  1.0000
  O   O14       1.0  0.07682  0.85745  0.69162  1.0000
  O   O15       1.0  0.14255  0.07682  0.69162  1.0000
  O   O16       1.0  0.85745  0.92318  0.69162  1.0000
  O   O17       1.0  0.42318  0.35745  0.69162  1.0000
  O   O18       1.0  0.57682  0.64255  0.69162  1.0000
  O   O19       1.0  0.64255  0.42318  0.69162  1.0000
  O   O20       1.0  0.35745  0.57682  0.69162  1.0000
  O   O21       1.0  0.57682  0.35745  0.80838  1.0000
  O   O22       1.0  0.42318  0.64255  0.80838  1.0000
  O   O23       1.0  0.35745  0.42318  0.80838  1.0000
  O   O24       1.0  0.64255  0.57682  0.80838  1.0000
  O   O25       1.0  0.92318  0.85745  0.19162  1.0000
  O   O26       1.0  0.07682  0.14255  0.19162  1.0000
  O   O27       1.0  0.14255  0.92318  0.19162  1.0000
  O   O28       1.0  0.85745  0.07682  0.19162  1.0000
  O   O29       1.0  0.07682  0.85745  0.30838  1.0000
  O   O30       1.0  0.92318  0.14255  0.30838  1.0000
  O   O31       1.0  0.85745  0.92318  0.30838  1.0000
  O   O32       1.0  0.14255  0.07682  0.30838  1.0000
  In  In1       1.0  0.50000  0.50000  0.25000  1.0000
  In  In2       1.0  0.00000  0.00000  0.75000  1.0000
  In  In3       1.0  0.50000  0.50000  0.75000  1.0000
  In  In4       1.0  0.00000  0.00000  0.25000  1.0000
  C   C1        1.0  0.71840  0.78160  0.31500  1.0000
  C   C2        1.0  0.28160  0.21840  0.31500  1.0000
  C   C3        1.0  0.21840  0.71840  0.31500  1.0000
  C   C4        1.0  0.78160  0.28160  0.31500  1.0000
  C   C5        1.0  0.28160  0.78160  0.18500  1.0000
  C   C6        1.0  0.71840  0.21840  0.18500  1.0000
  C   C7        1.0  0.78160  0.71840  0.18500  1.0000
  C   C8        1.0  0.21840  0.28160  0.18500  1.0000
  C   C9        1.0  0.21840  0.28160  0.81500  1.0000
  C   C10       1.0  0.78160  0.71840  0.81500  1.0000
  C   C11       1.0  0.71840  0.21840  0.81500  1.0000
  C   C12       1.0  0.28160  0.78160  0.81500  1.0000
  C   C13       1.0  0.78160  0.28160  0.68500  1.0000
  C   C14       1.0  0.21840  0.71840  0.68500  1.0000
  C   C15       1.0  0.28160  0.21840  0.68500  1.0000
  C   C16       1.0  0.71840  0.78160  0.68500  1.0000
  C   C17       1.0  0.65960  0.69480  0.28451  1.0000
  C   C18       1.0  0.34040  0.30520  0.28451  1.0000
  C   C19       1.0  0.30520  0.65960  0.28451  1.0000
  C   C20       1.0  0.69480  0.34040  0.28451  1.0000
  C   C21       1.0  0.34040  0.69480  0.21549  1.0000
  C   C22       1.0  0.65960  0.30520  0.21549  1.0000
  C   C23       1.0  0.69480  0.65960  0.21549  1.0000
  C   C24       1.0  0.30520  0.34040  0.21549  1.0000
  C   C25       1.0  0.15960  0.19480  0.78451  1.0000
  C   C26       1.0  0.84040  0.80520  0.78451  1.0000
  C   C27       1.0  0.80520  0.15960  0.78451  1.0000
  C   C28       1.0  0.19480  0.84040  0.78451  1.0000
  C   C29       1.0  0.84040  0.19480  0.71549  1.0000
  C   C30       1.0  0.15960  0.80520  0.71549  1.0000
  C   C31       1.0  0.19480  0.15960  0.71549  1.0000
  C   C32       1.0  0.80520  0.84040  0.71549  1.0000
  C   C33       1.0  0.34040  0.30520  0.71549  1.0000
  C   C34       1.0  0.65960  0.69480  0.71549  1.0000
  C   C35       1.0  0.69480  0.34040  0.71549  1.0000
  C   C36       1.0  0.30520  0.65960  0.71549  1.0000
  C   C37       1.0  0.65960  0.30520  0.78451  1.0000
  C   C38       1.0  0.34040  0.69480  0.78451  1.0000
  C   C39       1.0  0.30520  0.34040  0.78451  1.0000
  C   C40       1.0  0.69480  0.65960  0.78451  1.0000
  C   C41       1.0  0.84040  0.80520  0.21549  1.0000
  C   C42       1.0  0.15960  0.19480  0.21549  1.0000
  C   C43       1.0  0.19480  0.84040  0.21549  1.0000
  C   C44       1.0  0.80520  0.15960  0.21549  1.0000
  C   C45       1.0  0.15960  0.80520  0.28451  1.0000
  C   C46       1.0  0.84040  0.19480  0.28451  1.0000
  C   C47       1.0  0.80520  0.84040  0.28451  1.0000
  C   C48       1.0  0.19480  0.15960  0.28451  1.0000
  Cl  Cl1       1.0  0.68157  0.81843  0.39323  1.0000
  Cl  Cl2       1.0  0.31843  0.18157  0.39323  1.0000
  Cl  Cl3       1.0  0.18157  0.68157  0.39323  1.0000
  Cl  Cl4       1.0  0.81843  0.31843  0.39323  1.0000
  Cl  Cl5       1.0  0.31843  0.81843  0.10677  1.0000
  Cl  Cl6       1.0  0.68157  0.18157  0.10677  1.0000
  Cl  Cl7       1.0  0.81843  0.68157  0.10677  1.0000
  Cl  Cl8       1.0  0.18157  0.31843  0.10677  1.0000
  Cl  Cl9       1.0  0.18157  0.31843  0.89323  1.0000
  Cl  Cl10      1.0  0.81843  0.68157  0.89323  1.0000
  Cl  Cl11      1.0  0.68157  0.18157  0.89323  1.0000
  Cl  Cl12      1.0  0.31843  0.81843  0.89323  1.0000
  Cl  Cl13      1.0  0.81843  0.31843  0.60677  1.0000
  Cl  Cl14      1.0  0.18157  0.68157  0.60677  1.0000
  Cl  Cl15      1.0  0.31843  0.18157  0.60677  1.0000
  Cl  Cl16      1.0  0.68157  0.81843  0.60677  1.0000
