data_image0
_chemical_formula_structural       Ho4O32C48Cl16
_chemical_formula_sum              "Ho4 O32 C48 Cl16"
_cell_length_a       12.1589
_cell_length_b       12.1589
_cell_length_c       20.6698
_cell_angle_alpha    90
_cell_angle_beta     90
_cell_angle_gamma    90

_space_group_name_H-M_alt    "P 1"
_space_group_IT_number       1

loop_
  _space_group_symop_operation_xyz
  'x, y, z'

loop_
  _atom_site_type_symbol
  _atom_site_label
  _atom_site_symmetry_multiplicity
  _atom_site_fract_x
  _atom_site_fract_y
  _atom_site_fract_z
  _atom_site_occupancy
  Ho  Ho1       1.0  0.50000  0.50000  0.25000  1.0000
  Ho  Ho2       1.0  0.00000  0.00000  0.75000  1.0000
  Ho  Ho3       1.0  0.50000  0.50000  0.75000  1.0000
  Ho  Ho4       1.0  0.00000  0.00000  0.25000  1.0000
  O   O1        1.0  0.58461  0.64225  0.30861  1.0000
  O   O2        1.0  0.41539  0.35775  0.30861  1.0000
  O   O3        1.0  0.35775  0.58461  0.30861  1.0000
  O   O4        1.0  0.64225  0.41539  0.30861  1.0000
  O   O5        1.0  0.41539  0.64225  0.19139  1.0000
  O   O6        1.0  0.58461  0.35775  0.19139  1.0000
  O   O7        1.0  0.64225  0.58461  0.19139  1.0000
  O   O8        1.0  0.35775  0.41539  0.19139  1.0000
  O   O9        1.0  0.08461  0.14225  0.80861  1.0000
  O   O10       1.0  0.91539  0.85775  0.80861  1.0000
  O   O11       1.0  0.85775  0.08461  0.80861  1.0000
  O   O12       1.0  0.14225  0.91539  0.80861  1.0000
  O   O13       1.0  0.91539  0.14225  0.69139  1.0000
  O   O14       1.0  0.08461  0.85775  0.69139  1.0000
  O   O15       1.0  0.14225  0.08461  0.69139  1.0000
  O   O16       1.0  0.85775  0.91539  0.69139  1.0000
  O   O17       1.0  0.41539  0.35775  0.69139  1.0000
  O   O18       1.0  0.58461  0.64225  0.69139  1.0000
  O   O19       1.0  0.64225  0.41539  0.69139  1.0000
  O   O20       1.0  0.35775  0.58461  0.69139  1.0000
  O   O21       1.0  0.58461  0.35775  0.80861  1.0000
  O   O22       1.0  0.41539  0.64225  0.80861  1.0000
  O   O23       1.0  0.35775  0.41539  0.80861  1.0000
  O   O24       1.0  0.64225  0.58461  0.80861  1.0000
  O   O25       1.0  0.91539  0.85775  0.19139  1.0000
  O   O26       1.0  0.08461  0.14225  0.19139  1.0000
  O   O27       1.0  0.14225  0.91539  0.19139  1.0000
  O   O28       1.0  0.85775  0.08461  0.19139  1.0000
  O   O29       1.0  0.08461  0.85775  0.30861  1.0000
  O   O30       1.0  0.91539  0.14225  0.30861  1.0000
  O   O31       1.0  0.85775  0.91539  0.30861  1.0000
  O   O32       1.0  0.14225  0.08461  0.30861  1.0000
  C   C1        1.0  0.72310  0.77690  0.31655  1.0000
  C   C2        1.0  0.27690  0.22310  0.31655  1.0000
  C   C3        1.0  0.22310  0.72310  0.31655  1.0000
  C   C4        1.0  0.77690  0.27690  0.31655  1.0000
  C   C5        1.0  0.27690  0.77690  0.18345  1.0000
  C   C6        1.0  0.72310  0.22310  0.18345  1.0000
  C   C7        1.0  0.77690  0.72310  0.18345  1.0000
  C   C8        1.0  0.22310  0.27690  0.18345  1.0000
  C   C9        1.0  0.22310  0.27690  0.81655  1.0000
  C   C10       1.0  0.77690  0.72310  0.81655  1.0000
  C   C11       1.0  0.72310  0.22310  0.81655  1.0000
  C   C12       1.0  0.27690  0.77690  0.81655  1.0000
  C   C13       1.0  0.77690  0.27690  0.68345  1.0000
  C   C14       1.0  0.22310  0.72310  0.68345  1.0000
  C   C15       1.0  0.27690  0.22310  0.68345  1.0000
  C   C16       1.0  0.72310  0.77690  0.68345  1.0000
  C   C17       1.0  0.66410  0.69460  0.28506  1.0000
  C   C18       1.0  0.33590  0.30540  0.28506  1.0000
  C   C19       1.0  0.30540  0.66410  0.28506  1.0000
  C   C20       1.0  0.69460  0.33590  0.28506  1.0000
  C   C21       1.0  0.33590  0.69460  0.21494  1.0000
  C   C22       1.0  0.66410  0.30540  0.21494  1.0000
  C   C23       1.0  0.69460  0.66410  0.21494  1.0000
  C   C24       1.0  0.30540  0.33590  0.21494  1.0000
  C   C25       1.0  0.16410  0.19460  0.78506  1.0000
  C   C26       1.0  0.83590  0.80540  0.78506  1.0000
  C   C27       1.0  0.80540  0.16410  0.78506  1.0000
  C   C28       1.0  0.19460  0.83590  0.78506  1.0000
  C   C29       1.0  0.83590  0.19460  0.71494  1.0000
  C   C30       1.0  0.16410  0.80540  0.71494  1.0000
  C   C31       1.0  0.19460  0.16410  0.71494  1.0000
  C   C32       1.0  0.80540  0.83590  0.71494  1.0000
  C   C33       1.0  0.33590  0.30540  0.71494  1.0000
  C   C34       1.0  0.66410  0.69460  0.71494  1.0000
  C   C35       1.0  0.69460  0.33590  0.71494  1.0000
  C   C36       1.0  0.30540  0.66410  0.71494  1.0000
  C   C37       1.0  0.66410  0.30540  0.78506  1.0000
  C   C38       1.0  0.33590  0.69460  0.78506  1.0000
  C   C39       1.0  0.30540  0.33590  0.78506  1.0000
  C   C40       1.0  0.69460  0.66410  0.78506  1.0000
  C   C41       1.0  0.83590  0.80540  0.21494  1.0000
  C   C42       1.0  0.16410  0.19460  0.21494  1.0000
  C   C43       1.0  0.19460  0.83590  0.21494  1.0000
  C   C44       1.0  0.80540  0.16410  0.21494  1.0000
  C   C45       1.0  0.16410  0.80540  0.28506  1.0000
  C   C46       1.0  0.83590  0.19460  0.28506  1.0000
  C   C47       1.0  0.80540  0.83590  0.28506  1.0000
  C   C48       1.0  0.19460  0.16410  0.28506  1.0000
  Cl  Cl1       1.0  0.69138  0.80862  0.39597  1.0000
  Cl  Cl2       1.0  0.30862  0.19138  0.39597  1.0000
  Cl  Cl3       1.0  0.19138  0.69138  0.39597  1.0000
  Cl  Cl4       1.0  0.80862  0.30862  0.39597  1.0000
  Cl  Cl5       1.0  0.30862  0.80862  0.10403  1.0000
  Cl  Cl6       1.0  0.69138  0.19138  0.10403  1.0000
  Cl  Cl7       1.0  0.80862  0.69138  0.10403  1.0000
  Cl  Cl8       1.0  0.19138  0.30862  0.10403  1.0000
  Cl  Cl9       1.0  0.19138  0.30862  0.89597  1.0000
  Cl  Cl10      1.0  0.80862  0.69138  0.89597  1.0000
  Cl  Cl11      1.0  0.69138  0.19138  0.89597  1.0000
  Cl  Cl12      1.0  0.30862  0.80862  0.89597  1.0000
  Cl  Cl13      1.0  0.80862  0.30862  0.60403  1.0000
  Cl  Cl14      1.0  0.19138  0.69138  0.60403  1.0000
  Cl  Cl15      1.0  0.30862  0.19138  0.60403  1.0000
  Cl  Cl16      1.0  0.69138  0.80862  0.60403  1.0000
