data_image0
_chemical_formula_structural       Bi4O32C48Br16
_chemical_formula_sum              "Bi4 O32 C48 Br16"
_cell_length_a       12.438
_cell_length_b       12.438
_cell_length_c       20.8108
_cell_angle_alpha    90
_cell_angle_beta     90
_cell_angle_gamma    90

_space_group_name_H-M_alt    "P 1"
_space_group_IT_number       1

loop_
  _space_group_symop_operation_xyz
  'x, y, z'

loop_
  _atom_site_type_symbol
  _atom_site_label
  _atom_site_symmetry_multiplicity
  _atom_site_fract_x
  _atom_site_fract_y
  _atom_site_fract_z
  _atom_site_occupancy
  Bi  Bi1       1.0  0.50000  0.50000  0.25000  1.0000
  Bi  Bi2       1.0  0.00000  0.00000  0.75000  1.0000
  Bi  Bi3       1.0  0.50000  0.50000  0.75000  1.0000
  Bi  Bi4       1.0  0.00000  0.00000  0.25000  1.0000
  O   O1        1.0  0.64258  0.59074  0.31012  1.0000
  O   O2        1.0  0.35742  0.40926  0.31012  1.0000
  O   O3        1.0  0.40926  0.64258  0.31012  1.0000
  O   O4        1.0  0.59074  0.35742  0.31012  1.0000
  O   O5        1.0  0.35742  0.59074  0.18988  1.0000
  O   O6        1.0  0.64258  0.40926  0.18988  1.0000
  O   O7        1.0  0.59074  0.64258  0.18988  1.0000
  O   O8        1.0  0.40926  0.35742  0.18988  1.0000
  O   O9        1.0  0.14258  0.09074  0.81012  1.0000
  O   O10       1.0  0.85742  0.90926  0.81012  1.0000
  O   O11       1.0  0.90926  0.14258  0.81012  1.0000
  O   O12       1.0  0.09074  0.85742  0.81012  1.0000
  O   O13       1.0  0.85742  0.09074  0.68988  1.0000
  O   O14       1.0  0.14258  0.90926  0.68988  1.0000
  O   O15       1.0  0.09074  0.14258  0.68988  1.0000
  O   O16       1.0  0.90926  0.85742  0.68988  1.0000
  O   O17       1.0  0.35742  0.40926  0.68988  1.0000
  O   O18       1.0  0.64258  0.59074  0.68988  1.0000
  O   O19       1.0  0.59074  0.35742  0.68988  1.0000
  O   O20       1.0  0.40926  0.64258  0.68988  1.0000
  O   O21       1.0  0.64258  0.40926  0.81012  1.0000
  O   O22       1.0  0.35742  0.59074  0.81012  1.0000
  O   O23       1.0  0.40926  0.35742  0.81012  1.0000
  O   O24       1.0  0.59074  0.64258  0.81012  1.0000
  O   O25       1.0  0.85742  0.90926  0.18988  1.0000
  O   O26       1.0  0.14258  0.09074  0.18988  1.0000
  O   O27       1.0  0.09074  0.85742  0.18988  1.0000
  O   O28       1.0  0.90926  0.14258  0.18988  1.0000
  O   O29       1.0  0.14258  0.90926  0.31012  1.0000
  O   O30       1.0  0.85742  0.09074  0.31012  1.0000
  O   O31       1.0  0.90926  0.85742  0.31012  1.0000
  O   O32       1.0  0.09074  0.14258  0.31012  1.0000
  C   C1        1.0  0.77470  0.72530  0.31604  1.0000
  C   C2        1.0  0.22530  0.27470  0.31604  1.0000
  C   C3        1.0  0.27470  0.77470  0.31604  1.0000
  C   C4        1.0  0.72530  0.22530  0.31604  1.0000
  C   C5        1.0  0.22530  0.72530  0.18396  1.0000
  C   C6        1.0  0.77470  0.27470  0.18396  1.0000
  C   C7        1.0  0.72530  0.77470  0.18396  1.0000
  C   C8        1.0  0.27470  0.22530  0.18396  1.0000
  C   C9        1.0  0.27470  0.22530  0.81604  1.0000
  C   C10       1.0  0.72530  0.77470  0.81604  1.0000
  C   C11       1.0  0.77470  0.27470  0.81604  1.0000
  C   C12       1.0  0.22530  0.72530  0.81604  1.0000
  C   C13       1.0  0.72530  0.22530  0.68396  1.0000
  C   C14       1.0  0.27470  0.77470  0.68396  1.0000
  C   C15       1.0  0.22530  0.27470  0.68396  1.0000
  C   C16       1.0  0.77470  0.72530  0.68396  1.0000
  C   C17       1.0  0.69450  0.66590  0.28499  1.0000
  C   C18       1.0  0.30550  0.33410  0.28499  1.0000
  C   C19       1.0  0.33410  0.69450  0.28499  1.0000
  C   C20       1.0  0.66590  0.30550  0.28499  1.0000
  C   C21       1.0  0.30550  0.66590  0.21501  1.0000
  C   C22       1.0  0.69450  0.33410  0.21501  1.0000
  C   C23       1.0  0.66590  0.69450  0.21501  1.0000
  C   C24       1.0  0.33410  0.30550  0.21501  1.0000
  C   C25       1.0  0.19450  0.16590  0.78499  1.0000
  C   C26       1.0  0.80550  0.83410  0.78499  1.0000
  C   C27       1.0  0.83410  0.19450  0.78499  1.0000
  C   C28       1.0  0.16590  0.80550  0.78499  1.0000
  C   C29       1.0  0.80550  0.16590  0.71501  1.0000
  C   C30       1.0  0.19450  0.83410  0.71501  1.0000
  C   C31       1.0  0.16590  0.19450  0.71501  1.0000
  C   C32       1.0  0.83410  0.80550  0.71501  1.0000
  C   C33       1.0  0.30550  0.33410  0.71501  1.0000
  C   C34       1.0  0.69450  0.66590  0.71501  1.0000
  C   C35       1.0  0.66590  0.30550  0.71501  1.0000
  C   C36       1.0  0.33410  0.69450  0.71501  1.0000
  C   C37       1.0  0.69450  0.33410  0.78499  1.0000
  C   C38       1.0  0.30550  0.66590  0.78499  1.0000
  C   C39       1.0  0.33410  0.30550  0.78499  1.0000
  C   C40       1.0  0.66590  0.69450  0.78499  1.0000
  C   C41       1.0  0.80550  0.83410  0.21501  1.0000
  C   C42       1.0  0.19450  0.16590  0.21501  1.0000
  C   C43       1.0  0.16590  0.80550  0.21501  1.0000
  C   C44       1.0  0.83410  0.19450  0.21501  1.0000
  C   C45       1.0  0.19450  0.83410  0.28499  1.0000
  C   C46       1.0  0.80550  0.16590  0.28499  1.0000
  C   C47       1.0  0.83410  0.80550  0.28499  1.0000
  C   C48       1.0  0.16590  0.19450  0.28499  1.0000
  Br  Br1       1.0  0.80745  0.69255  0.40185  1.0000
  Br  Br2       1.0  0.19255  0.30745  0.40185  1.0000
  Br  Br3       1.0  0.30745  0.80745  0.40185  1.0000
  Br  Br4       1.0  0.69255  0.19255  0.40185  1.0000
  Br  Br5       1.0  0.19255  0.69255  0.09815  1.0000
  Br  Br6       1.0  0.80745  0.30745  0.09815  1.0000
  Br  Br7       1.0  0.69255  0.80745  0.09815  1.0000
  Br  Br8       1.0  0.30745  0.19255  0.09815  1.0000
  Br  Br9       1.0  0.30745  0.19255  0.90185  1.0000
  Br  Br10      1.0  0.69255  0.80745  0.90185  1.0000
  Br  Br11      1.0  0.80745  0.30745  0.90185  1.0000
  Br  Br12      1.0  0.19255  0.69255  0.90185  1.0000
  Br  Br13      1.0  0.69255  0.19255  0.59815  1.0000
  Br  Br14      1.0  0.30745  0.80745  0.59815  1.0000
  Br  Br15      1.0  0.19255  0.30745  0.59815  1.0000
  Br  Br16      1.0  0.80745  0.69255  0.59815  1.0000
