data_image0
_chemical_formula_structural       Zn8P10O34H2O2H2O2H2O2H2O2H2O2C4H6
_chemical_formula_sum              "Zn8 P10 O44 H16 C4"
_cell_length_a       12.183
_cell_length_b       12.955
_cell_length_c       14.3375
_cell_angle_alpha    85.988
_cell_angle_beta     89.019
_cell_angle_gamma    68.267

_space_group_name_H-M_alt    "P 1"
_space_group_IT_number       1

loop_
  _space_group_symop_operation_xyz
  'x, y, z'

loop_
  _atom_site_type_symbol
  _atom_site_label
  _atom_site_symmetry_multiplicity
  _atom_site_fract_x
  _atom_site_fract_y
  _atom_site_fract_z
  _atom_site_occupancy
  Zn  Zn1       1.0  0.51751  0.33192  0.04936  1.0000
  Zn  Zn2       1.0  0.48249  0.66808  0.95064  1.0000
  Zn  Zn3       1.0  0.74754  0.88681  0.91049  1.0000
  Zn  Zn4       1.0  0.25246  0.11319  0.08951  1.0000
  Zn  Zn5       1.0  0.10973  0.73782  0.95941  1.0000
  Zn  Zn6       1.0  0.89027  0.26218  0.04059  1.0000
  Zn  Zn7       1.0  0.12354  0.49246  0.81994  1.0000
  Zn  Zn8       1.0  0.87646  0.50754  0.18006  1.0000
  P   P1        1.0  0.32590  0.53050  0.90730  1.0000
  P   P2        1.0  0.67410  0.46950  0.09270  1.0000
  P   P3        1.0  0.73830  0.10550  0.00250  1.0000
  P   P4        1.0  0.26170  0.89450  0.99750  1.0000
  P   P5        1.0  0.96380  0.74870  0.78580  1.0000
  P   P6        1.0  0.03620  0.25130  0.21420  1.0000
  P   P7        1.0  0.45180  0.15970  0.18750  1.0000
  P   P8        1.0  0.54820  0.84030  0.81250  1.0000
  P   P9        1.0  0.88240  0.72900  0.07970  1.0000
  P   P10       1.0  0.11760  0.27100  0.92030  1.0000
  O   O1        1.0  0.40900  0.42360  0.95680  1.0000
  O   O2        1.0  0.59100  0.57640  0.04320  1.0000
  O   O3        1.0  0.38900  0.61050  0.87780  1.0000
  O   O4        1.0  0.61100  0.38950  0.12220  1.0000
  O   O5        1.0  0.61810  0.19820  0.98930  1.0000
  O   O6        1.0  0.38190  0.80180  0.01070  1.0000
  O   O7        1.0  0.42440  0.27510  0.13910  1.0000
  O   O8        1.0  0.57560  0.72490  0.86090  1.0000
  O   O9        1.0  0.76450  0.02590  0.92550  1.0000
  O   O10       1.0  0.23550  0.97410  0.07450  1.0000
  O   O11       1.0  0.77080  0.78390  0.01850  1.0000
  O   O12       1.0  0.22920  0.21610  0.98150  1.0000
  O   O13       1.0  0.83370  0.82450  0.79780  1.0000
  O   O14       1.0  0.16630  0.17550  0.20220  1.0000
  O   O15       1.0  0.41720  0.08580  0.12630  1.0000
  O   O16       1.0  0.58280  0.91420  0.87370  1.0000
  O   O17       1.0  0.22240  0.58760  0.97410  1.0000
  O   O18       1.0  0.77760  0.41240  0.02590  1.0000
  O   O19       1.0  0.83780  0.14710  0.00390  1.0000
  O   O20       1.0  0.16220  0.85290  0.99610  1.0000
  O   O21       1.0  0.97920  0.76880  0.04520  1.0000
  O   O22       1.0  0.02080  0.23120  0.95480  1.0000
  O   O23       1.0  0.04900  0.79510  0.82970  1.0000
  O   O24       1.0  0.95100  0.20490  0.17030  1.0000
  O   O25       1.0  0.27420  0.50720  0.81910  1.0000
  O   O26       1.0  0.72580  0.49280  0.18090  1.0000
  O   O27       1.0  0.92050  0.60310  0.08720  1.0000
  O   O28       1.0  0.07950  0.39690  0.91280  1.0000
  O   O29       1.0  0.98590  0.63100  0.82610  1.0000
  O   O30       1.0  0.01410  0.36900  0.17390  1.0000
  O   O31       1.0  0.12200  0.41120  0.70810  1.0000
  O   O32       1.0  0.87800  0.58880  0.29190  1.0000
  O   O33       1.0  0.73760  0.03890  0.09730  1.0000
  O   O34       1.0  0.26240  0.96110  0.90270  1.0000
  H   H1        1.0  0.80060  0.98600  0.10440  1.0000
  H   H2        1.0  0.19940  0.01400  0.89560  1.0000
  O   O35       1.0  0.98630  0.74820  0.67790  1.0000
  O   O36       1.0  0.01370  0.25180  0.32210  1.0000
  H   H3        1.0  0.05480  0.70810  0.66800  1.0000
  H   H4        1.0  0.94520  0.29190  0.33200  1.0000
  O   O37       1.0  0.57930  0.10540  0.22080  1.0000
  O   O38       1.0  0.42070  0.89460  0.77920  1.0000
  H   H5        1.0  0.62310  0.09260  0.17550  1.0000
  H   H6        1.0  0.37690  0.90740  0.82450  1.0000
  O   O39       1.0  0.37270  0.17470  0.27730  1.0000
  O   O40       1.0  0.62730  0.82530  0.72270  1.0000
  H   H7        1.0  0.38930  0.21450  0.31220  1.0000
  H   H8        1.0  0.61070  0.78550  0.68780  1.0000
  O   O41       1.0  0.85060  0.77310  0.18010  1.0000
  O   O42       1.0  0.14940  0.22690  0.81990  1.0000
  H   H9        1.0  0.82770  0.84130  0.17640  1.0000
  H   H10       1.0  0.17230  0.15870  0.82360  1.0000
  O   O43       1.0  0.09290  0.55190  0.60440  1.0000
  O   O44       1.0  0.90710  0.44810  0.39560  1.0000
  C   C1        1.0  0.11910  0.45120  0.62580  1.0000
  C   C2        1.0  0.88090  0.54880  0.37420  1.0000
  C   C3        1.0  0.14780  0.36970  0.54890  1.0000
  C   C4        1.0  0.85220  0.63030  0.45110  1.0000
  H   H11       1.0  0.16590  0.29550  0.57650  1.0000
  H   H12       1.0  0.83410  0.70450  0.42350  1.0000
  H   H13       1.0  0.08100  0.38920  0.50760  1.0000
  H   H14       1.0  0.91900  0.61080  0.49240  1.0000
  H   H15       1.0  0.21470  0.37310  0.51430  1.0000
  H   H16       1.0  0.78530  0.62690  0.48570  1.0000
