data_image0
_chemical_formula_structural       Co4N48C32
_chemical_formula_sum              "Co4 N48 C32"
_cell_length_a       23.3789
_cell_length_b       7.5684
_cell_length_c       28.3778
_cell_angle_alpha    90
_cell_angle_beta     105.621
_cell_angle_gamma    90

_space_group_name_H-M_alt    "P 1"
_space_group_IT_number       1

loop_
  _space_group_symop_operation_xyz
  'x, y, z'

loop_
  _atom_site_type_symbol
  _atom_site_label
  _atom_site_symmetry_multiplicity
  _atom_site_fract_x
  _atom_site_fract_y
  _atom_site_fract_z
  _atom_site_occupancy
  Co  Co1       1.0  0.50000  0.22199  0.25000  1.0000
  Co  Co2       1.0  0.00000  0.72199  0.25000  1.0000
  Co  Co3       1.0  0.50000  0.77801  0.75000  1.0000
  Co  Co4       1.0  0.00000  0.27801  0.75000  1.0000
  N   N1        1.0  0.43429  0.42823  0.22825  1.0000
  N   N2        1.0  0.93429  0.92823  0.22825  1.0000
  N   N3        1.0  0.43429  0.57177  0.72825  1.0000
  N   N4        1.0  0.93429  0.07177  0.72825  1.0000
  N   N5        1.0  0.56571  0.57177  0.77175  1.0000
  N   N6        1.0  0.06571  0.07177  0.77175  1.0000
  N   N7        1.0  0.56571  0.42823  0.27175  1.0000
  N   N8        1.0  0.06571  0.92823  0.27175  1.0000
  N   N9        1.0  0.50953  0.22697  0.17910  1.0000
  N   N10       1.0  0.00953  0.72697  0.17910  1.0000
  N   N11       1.0  0.50953  0.77303  0.67910  1.0000
  N   N12       1.0  0.00953  0.27303  0.67910  1.0000
  N   N13       1.0  0.49047  0.77303  0.82090  1.0000
  N   N14       1.0  0.99047  0.27303  0.82090  1.0000
  N   N15       1.0  0.49047  0.22697  0.32090  1.0000
  N   N16       1.0  0.99047  0.72697  0.32090  1.0000
  N   N17       1.0  0.43694  0.00871  0.22668  1.0000
  N   N18       1.0  0.93694  0.50871  0.22668  1.0000
  N   N19       1.0  0.43694  0.99129  0.72668  1.0000
  N   N20       1.0  0.93694  0.49129  0.72668  1.0000
  N   N21       1.0  0.56306  0.99129  0.77332  1.0000
  N   N22       1.0  0.06306  0.49129  0.77332  1.0000
  N   N23       1.0  0.56306  0.00871  0.27332  1.0000
  N   N24       1.0  0.06306  0.50871  0.27332  1.0000
  N   N25       1.0  0.39605  0.71889  0.19613  1.0000
  N   N26       1.0  0.89605  0.21889  0.19613  1.0000
  N   N27       1.0  0.39605  0.28111  0.69613  1.0000
  N   N28       1.0  0.89605  0.78111  0.69613  1.0000
  N   N29       1.0  0.60395  0.28111  0.80387  1.0000
  N   N30       1.0  0.10395  0.78111  0.80387  1.0000
  N   N31       1.0  0.60395  0.71889  0.30387  1.0000
  N   N32       1.0  0.10395  0.21889  0.30387  1.0000
  N   N33       1.0  0.48900  0.19954  0.09009  1.0000
  N   N34       1.0  0.98900  0.69954  0.09009  1.0000
  N   N35       1.0  0.48900  0.80046  0.59009  1.0000
  N   N36       1.0  0.98900  0.30046  0.59009  1.0000
  N   N37       1.0  0.51100  0.80046  0.90991  1.0000
  N   N38       1.0  0.01100  0.30046  0.90991  1.0000
  N   N39       1.0  0.51100  0.19954  0.40991  1.0000
  N   N40       1.0  0.01100  0.69954  0.40991  1.0000
  N   N41       1.0  0.41557  0.35860  0.02601  1.0000
  N   N42       1.0  0.91557  0.85860  0.02601  1.0000
  N   N43       1.0  0.41557  0.64140  0.52601  1.0000
  N   N44       1.0  0.91557  0.14140  0.52601  1.0000
  N   N45       1.0  0.58443  0.64140  0.97399  1.0000
  N   N46       1.0  0.08443  0.14140  0.97399  1.0000
  N   N47       1.0  0.58443  0.35860  0.47399  1.0000
  N   N48       1.0  0.08443  0.85860  0.47399  1.0000
  C   C1        1.0  0.41867  0.56838  0.21498  1.0000
  C   C2        1.0  0.91867  0.06838  0.21498  1.0000
  C   C3        1.0  0.41867  0.43162  0.71498  1.0000
  C   C4        1.0  0.91867  0.93162  0.71498  1.0000
  C   C5        1.0  0.58133  0.43162  0.78502  1.0000
  C   C6        1.0  0.08133  0.93162  0.78502  1.0000
  C   C7        1.0  0.58133  0.56838  0.28502  1.0000
  C   C8        1.0  0.08133  0.06838  0.28502  1.0000
  C   C9        1.0  0.49752  0.22216  0.13699  1.0000
  C   C10       1.0  0.99752  0.72216  0.13699  1.0000
  C   C11       1.0  0.49752  0.77784  0.63699  1.0000
  C   C12       1.0  0.99752  0.27784  0.63699  1.0000
  C   C13       1.0  0.50248  0.77784  0.86301  1.0000
  C   C14       1.0  0.00248  0.27784  0.86301  1.0000
  C   C15       1.0  0.50248  0.22216  0.36301  1.0000
  C   C16       1.0  0.00248  0.72216  0.36301  1.0000
  C   C17       1.0  0.42005  0.86835  0.21414  1.0000
  C   C18       1.0  0.92005  0.36835  0.21414  1.0000
  C   C19       1.0  0.42005  0.13165  0.71414  1.0000
  C   C20       1.0  0.92005  0.63165  0.71414  1.0000
  C   C21       1.0  0.57995  0.13165  0.78586  1.0000
  C   C22       1.0  0.07995  0.63165  0.78586  1.0000
  C   C23       1.0  0.57995  0.86835  0.28586  1.0000
  C   C24       1.0  0.07995  0.36835  0.28586  1.0000
  C   C25       1.0  0.44916  0.29030  0.05786  1.0000
  C   C26       1.0  0.94916  0.79030  0.05786  1.0000
  C   C27       1.0  0.44916  0.70970  0.55786  1.0000
  C   C28       1.0  0.94916  0.20970  0.55786  1.0000
  C   C29       1.0  0.55084  0.70970  0.94214  1.0000
  C   C30       1.0  0.05084  0.20970  0.94214  1.0000
  C   C31       1.0  0.55084  0.29030  0.44214  1.0000
  C   C32       1.0  0.05084  0.79030  0.44214  1.0000
