data_image0
_chemical_formula_structural       C32N48Co4
_chemical_formula_sum              "C32 N48 Co4"
_cell_length_a       23.43
_cell_length_b       7.5891
_cell_length_c       28.534
_cell_angle_alpha    90
_cell_angle_beta     105.65
_cell_angle_gamma    90

_space_group_name_H-M_alt    "P 1"
_space_group_IT_number       1

loop_
  _space_group_symop_operation_xyz
  'x, y, z'

loop_
  _atom_site_type_symbol
  _atom_site_label
  _atom_site_symmetry_multiplicity
  _atom_site_fract_x
  _atom_site_fract_y
  _atom_site_fract_z
  _atom_site_occupancy
  C   C1        1.0  0.92023  0.86810  0.71475  1.0000
  C   C2        1.0  0.42023  0.36810  0.71475  1.0000
  C   C3        1.0  0.92023  0.13190  0.21475  1.0000
  C   C4        1.0  0.42023  0.63190  0.21475  1.0000
  C   C5        1.0  0.07977  0.13190  0.28525  1.0000
  C   C6        1.0  0.57977  0.63190  0.28525  1.0000
  C   C7        1.0  0.07977  0.86810  0.78525  1.0000
  C   C8        1.0  0.57977  0.36810  0.78525  1.0000
  C   C9        1.0  0.91890  0.56900  0.71558  1.0000
  C   C10       1.0  0.41890  0.06900  0.71558  1.0000
  C   C11       1.0  0.91890  0.43100  0.21558  1.0000
  C   C12       1.0  0.41890  0.93100  0.21558  1.0000
  C   C13       1.0  0.08110  0.43100  0.28442  1.0000
  C   C14       1.0  0.58110  0.93100  0.28442  1.0000
  C   C15       1.0  0.08110  0.56900  0.78442  1.0000
  C   C16       1.0  0.58110  0.06900  0.78442  1.0000
  C   C17       1.0  0.99748  0.22360  0.63724  1.0000
  C   C18       1.0  0.49748  0.72360  0.63724  1.0000
  C   C19       1.0  0.99748  0.77640  0.13724  1.0000
  C   C20       1.0  0.49748  0.27640  0.13724  1.0000
  C   C21       1.0  0.00252  0.77640  0.36276  1.0000
  C   C22       1.0  0.50252  0.27640  0.36276  1.0000
  C   C23       1.0  0.00252  0.22360  0.86276  1.0000
  C   C24       1.0  0.50252  0.72360  0.86276  1.0000
  C   C25       1.0  0.94954  0.29080  0.55838  1.0000
  C   C26       1.0  0.44954  0.79080  0.55838  1.0000
  C   C27       1.0  0.94954  0.70920  0.05838  1.0000
  C   C28       1.0  0.44954  0.20920  0.05838  1.0000
  C   C29       1.0  0.05046  0.70920  0.44162  1.0000
  C   C30       1.0  0.55046  0.20920  0.44162  1.0000
  C   C31       1.0  0.05046  0.29080  0.94162  1.0000
  C   C32       1.0  0.55046  0.79080  0.94162  1.0000
  N   N1        1.0  0.89609  0.71950  0.69706  1.0000
  N   N2        1.0  0.39609  0.21950  0.69706  1.0000
  N   N3        1.0  0.89609  0.28050  0.19706  1.0000
  N   N4        1.0  0.39609  0.78050  0.19706  1.0000
  N   N5        1.0  0.10391  0.28050  0.30294  1.0000
  N   N6        1.0  0.60391  0.78050  0.30294  1.0000
  N   N7        1.0  0.10391  0.71950  0.80294  1.0000
  N   N8        1.0  0.60391  0.21950  0.80294  1.0000
  N   N9        1.0  0.93683  0.00840  0.72705  1.0000
  N   N10       1.0  0.43683  0.50840  0.72705  1.0000
  N   N11       1.0  0.93683  0.99160  0.22705  1.0000
  N   N12       1.0  0.43683  0.49160  0.22705  1.0000
  N   N13       1.0  0.06317  0.99160  0.27295  1.0000
  N   N14       1.0  0.56317  0.49160  0.27295  1.0000
  N   N15       1.0  0.06317  0.00840  0.77295  1.0000
  N   N16       1.0  0.56317  0.50840  0.77295  1.0000
  N   N17       1.0  0.93427  0.42870  0.72859  1.0000
  N   N18       1.0  0.43427  0.92870  0.72859  1.0000
  N   N19       1.0  0.93427  0.57130  0.22859  1.0000
  N   N20       1.0  0.43427  0.07130  0.22859  1.0000
  N   N21       1.0  0.06573  0.57130  0.27141  1.0000
  N   N22       1.0  0.56573  0.07130  0.27141  1.0000
  N   N23       1.0  0.06573  0.42870  0.77141  1.0000
  N   N24       1.0  0.56573  0.92870  0.77141  1.0000
  N   N25       1.0  0.98931  0.20160  0.59085  1.0000
  N   N26       1.0  0.48931  0.70160  0.59085  1.0000
  N   N27       1.0  0.98931  0.79840  0.09085  1.0000
  N   N28       1.0  0.48931  0.29840  0.09085  1.0000
  N   N29       1.0  0.01069  0.79840  0.40915  1.0000
  N   N30       1.0  0.51069  0.29840  0.40915  1.0000
  N   N31       1.0  0.01069  0.20160  0.90915  1.0000
  N   N32       1.0  0.51069  0.70160  0.90915  1.0000
  N   N33       1.0  0.00930  0.22700  0.67915  1.0000
  N   N34       1.0  0.50930  0.72700  0.67915  1.0000
  N   N35       1.0  0.00930  0.77300  0.17915  1.0000
  N   N36       1.0  0.50930  0.27300  0.17915  1.0000
  N   N37       1.0  0.99070  0.77300  0.32085  1.0000
  N   N38       1.0  0.49070  0.27300  0.32085  1.0000
  N   N39       1.0  0.99070  0.22700  0.82085  1.0000
  N   N40       1.0  0.49070  0.72700  0.82085  1.0000
  N   N41       1.0  0.91593  0.35850  0.52670  1.0000
  N   N42       1.0  0.41593  0.85850  0.52670  1.0000
  N   N43       1.0  0.91593  0.64150  0.02670  1.0000
  N   N44       1.0  0.41593  0.14150  0.02670  1.0000
  N   N45       1.0  0.08407  0.64150  0.47330  1.0000
  N   N46       1.0  0.58407  0.14150  0.47330  1.0000
  N   N47       1.0  0.08407  0.35850  0.97330  1.0000
  N   N48       1.0  0.58407  0.85850  0.97330  1.0000
  Co  Co1       1.0  0.00000  0.22249  0.75000  1.0000
  Co  Co2       1.0  0.50000  0.72249  0.75000  1.0000
  Co  Co3       1.0  0.00000  0.77751  0.25000  1.0000
  Co  Co4       1.0  0.50000  0.27751  0.25000  1.0000
