data_image0
_chemical_formula_structural       W2C2N2C2N2C2N2C2N2C2N2C2N2C2N2C2N2Mn2O4N4C4H2C2H2C4H2C4H2C2H2C2H4C2H4C2H4C2H4C2H2C2H2C4H2C4H2C2H2C2Br4
_chemical_formula_sum              "W2 C56 N20 Mn2 O4 H36 Br4"
_cell_length_a       10.816
_cell_length_b       13.8608
_cell_length_c       24.5131
_cell_angle_alpha    89.373
_cell_angle_beta     89.037
_cell_angle_gamma    84.84

_space_group_name_H-M_alt    "P 1"
_space_group_IT_number       1

loop_
  _space_group_symop_operation_xyz
  'x, y, z'

loop_
  _atom_site_type_symbol
  _atom_site_label
  _atom_site_symmetry_multiplicity
  _atom_site_fract_x
  _atom_site_fract_y
  _atom_site_fract_z
  _atom_site_occupancy
  W   W1        1.0  0.05008  0.53523  0.24556  1.0000
  W   W2        1.0  0.94992  0.46477  0.75444  1.0000
  C   C1        1.0  0.23810  0.48180  0.26805  1.0000
  C   C2        1.0  0.76190  0.51820  0.73195  1.0000
  N   N1        1.0  0.33850  0.45634  0.27927  1.0000
  N   N2        1.0  0.66150  0.54366  0.72073  1.0000
  C   C3        1.0  0.16520  0.55800  0.17423  1.0000
  C   C4        1.0  0.83480  0.44200  0.82577  1.0000
  N   N3        1.0  0.22610  0.56800  0.13592  1.0000
  N   N4        1.0  0.77390  0.43200  0.86408  1.0000
  C   C5        1.0  0.14850  0.65760  0.26921  1.0000
  C   C6        1.0  0.85150  0.34240  0.73079  1.0000
  N   N5        1.0  0.20210  0.72230  0.28001  1.0000
  N   N6        1.0  0.79790  0.27770  0.71999  1.0000
  C   C7        1.0  0.92770  0.66720  0.24070  1.0000
  C   C8        1.0  0.07230  0.33280  0.75930  1.0000
  N   N7        1.0  0.86310  0.73630  0.23750  1.0000
  N   N8        1.0  0.13690  0.26370  0.76250  1.0000
  C   C9        1.0  0.94720  0.51740  0.17156  1.0000
  C   C10       1.0  0.05280  0.48260  0.82844  1.0000
  N   N9        1.0  0.89430  0.50680  0.13213  1.0000
  N   N10       1.0  0.10570  0.49320  0.86787  1.0000
  C   C11       1.0  0.06770  0.37960  0.23719  1.0000
  C   C12       1.0  0.93230  0.62040  0.76281  1.0000
  N   N11       1.0  0.07440  0.29690  0.23312  1.0000
  N   N12       1.0  0.92560  0.70310  0.76688  1.0000
  C   C13       1.0  0.04460  0.51900  0.33305  1.0000
  C   C14       1.0  0.95540  0.48100  0.66695  1.0000
  N   N13       1.0  0.04720  0.50590  0.37955  1.0000
  N   N14       1.0  0.95280  0.49410  0.62045  1.0000
  C   C15       1.0  0.86670  0.49290  0.26811  1.0000
  C   C16       1.0  0.13330  0.50710  0.73189  1.0000
  N   N15       1.0  0.76900  0.47100  0.27788  1.0000
  N   N16       1.0  0.23100  0.52900  0.72212  1.0000
  Mn  Mn1       1.0  0.55463  0.45391  0.28485  1.0000
  Mn  Mn2       1.0  0.44537  0.54609  0.71515  1.0000
  O   O1        1.0  0.57015  0.31744  0.28567  1.0000
  O   O2        1.0  0.42985  0.68256  0.71433  1.0000
  O   O3        1.0  0.55951  0.46196  0.36061  1.0000
  O   O4        1.0  0.44049  0.53804  0.63939  1.0000
  N   N17       1.0  0.55230  0.45773  0.20377  1.0000
  N   N18       1.0  0.44770  0.54227  0.79623  1.0000
  N   N19       1.0  0.53100  0.59752  0.27568  1.0000
  N   N20       1.0  0.46900  0.40248  0.72432  1.0000
  C   C17       1.0  0.52800  0.26190  0.24809  1.0000
  C   C18       1.0  0.47200  0.73810  0.75191  1.0000
  C   C19       1.0  0.51090  0.16450  0.26243  1.0000
  C   C20       1.0  0.48910  0.83550  0.73757  1.0000
  H   H1        1.0  0.52680  0.14250  0.29870  1.0000
  H   H2        1.0  0.47320  0.85750  0.70130  1.0000
  C   C21       1.0  0.47180  0.10140  0.22492  1.0000
  C   C22       1.0  0.52820  0.89860  0.77508  1.0000
  H   H3        1.0  0.46060  0.03650  0.23540  1.0000
  H   H4        1.0  0.53940  0.96350  0.76460  1.0000
  C   C23       1.0  0.44850  0.13250  0.17162  1.0000
  C   C24       1.0  0.55150  0.86750  0.82838  1.0000
  C   C25       1.0  0.46270  0.22660  0.15557  1.0000
  C   C26       1.0  0.53730  0.77340  0.84443  1.0000
  H   H5        1.0  0.44630  0.24690  0.11910  1.0000
  H   H6        1.0  0.55370  0.75310  0.88090  1.0000
  C   C27       1.0  0.50190  0.29250  0.19382  1.0000
  C   C28       1.0  0.49810  0.70750  0.80618  1.0000
  C   C29       1.0  0.52200  0.38880  0.17341  1.0000
  C   C30       1.0  0.47800  0.61120  0.82659  1.0000
  H   H7        1.0  0.51230  0.40150  0.13550  1.0000
  H   H8        1.0  0.48770  0.59850  0.86450  1.0000
  C   C31       1.0  0.57740  0.55520  0.18219  1.0000
  C   C32       1.0  0.42260  0.44480  0.81781  1.0000
  H   H9        1.0  0.66710  0.56350  0.18810  1.0000
  H   H10       1.0  0.33290  0.43650  0.81190  1.0000
  C   C33       1.0  0.55150  0.57280  0.12197  1.0000
  C   C34       1.0  0.44850  0.42720  0.87803  1.0000
  H   H11       1.0  0.46510  0.55970  0.11420  1.0000
  H   H12       1.0  0.53490  0.44030  0.88580  1.0000
  H   H13       1.0  0.60820  0.52840  0.09970  1.0000
  H   H14       1.0  0.39180  0.47160  0.90030  1.0000
  C   C35       1.0  0.57100  0.67830  0.10701  1.0000
  C   C36       1.0  0.42900  0.32170  0.89299  1.0000
  H   H15       1.0  0.65980  0.68880  0.11080  1.0000
  H   H16       1.0  0.34020  0.31120  0.88920  1.0000
  H   H17       1.0  0.54830  0.69090  0.06850  1.0000
  H   H18       1.0  0.45170  0.30910  0.93150  1.0000
  C   C37       1.0  0.49340  0.74840  0.14318  1.0000
  C   C38       1.0  0.50660  0.25160  0.85682  1.0000
  H   H19       1.0  0.40440  0.74090  0.13750  1.0000
  H   H20       1.0  0.59560  0.25910  0.86250  1.0000
  H   H21       1.0  0.50890  0.81550  0.13270  1.0000
  H   H22       1.0  0.49110  0.18450  0.86730  1.0000
  C   C39       1.0  0.52300  0.73160  0.20352  1.0000
  C   C40       1.0  0.47700  0.26840  0.79648  1.0000
  H   H23       1.0  0.46930  0.77740  0.22620  1.0000
  H   H24       1.0  0.53070  0.22260  0.77380  1.0000
  H   H25       1.0  0.61060  0.74270  0.21010  1.0000
  H   H26       1.0  0.38940  0.25730  0.78990  1.0000
  C   C41       1.0  0.50030  0.62700  0.21888  1.0000
  C   C42       1.0  0.49970  0.37300  0.78112  1.0000
  H   H27       1.0  0.41060  0.61880  0.21320  1.0000
  H   H28       1.0  0.58940  0.38120  0.78680  1.0000
  C   C43       1.0  0.54090  0.65910  0.31395  1.0000
  C   C44       1.0  0.45910  0.34090  0.68605  1.0000
  H   H29       1.0  0.53210  0.72580  0.30420  1.0000
  H   H30       1.0  0.46790  0.27420  0.69580  1.0000
  C   C45       1.0  0.56420  0.63520  0.37027  1.0000
  C   C46       1.0  0.43580  0.36480  0.62973  1.0000
  C   C47       1.0  0.57190  0.71330  0.40666  1.0000
  C   C48       1.0  0.42810  0.28670  0.59334  1.0000
  H   H31       1.0  0.56610  0.77800  0.39320  1.0000
  H   H32       1.0  0.43390  0.22200  0.60680  1.0000
  C   C49       1.0  0.58780  0.69490  0.46114  1.0000
  C   C50       1.0  0.41220  0.30510  0.53886  1.0000
  C   C51       1.0  0.60120  0.60000  0.48169  1.0000
  C   C52       1.0  0.39880  0.40000  0.51831  1.0000
  H   H33       1.0  0.61420  0.58820  0.51950  1.0000
  H   H34       1.0  0.38580  0.41180  0.48050  1.0000
  C   C53       1.0  0.59540  0.52370  0.44648  1.0000
  C   C54       1.0  0.40460  0.47630  0.55352  1.0000
  H   H35       1.0  0.60700  0.45930  0.46030  1.0000
  H   H36       1.0  0.39300  0.54070  0.53970  1.0000
  C   C55       1.0  0.57280  0.53870  0.39084  1.0000
  C   C56       1.0  0.42720  0.46130  0.60916  1.0000
  Br  Br1       1.0  0.39955  0.04252  0.11984  1.0000
  Br  Br2       1.0  0.60045  0.95748  0.88016  1.0000
  Br  Br3       1.0  0.59494  0.79799  0.51111  1.0000
  Br  Br4       1.0  0.40506  0.20201  0.48889  1.0000
