data_image0
_chemical_formula_structural       W2C2N2C2N2C2N2C2N2C2N2C2N2C2N2C2N2Mn2O4N4C4H2C2H2C4H2C4H2C2H2C2H4C2H4C2H4C2H4C2H2C2H2C4H2C4H2C2H2C2Br4
_chemical_formula_sum              "W2 C56 N20 Mn2 O4 H36 Br4"
_cell_length_a       10.7016
_cell_length_b       14.1793
_cell_length_c       24.4382
_cell_angle_alpha    88.794
_cell_angle_beta     87.291
_cell_angle_gamma    82.459

_space_group_name_H-M_alt    "P 1"
_space_group_IT_number       1

loop_
  _space_group_symop_operation_xyz
  'x, y, z'

loop_
  _atom_site_type_symbol
  _atom_site_label
  _atom_site_symmetry_multiplicity
  _atom_site_fract_x
  _atom_site_fract_y
  _atom_site_fract_z
  _atom_site_occupancy
  W   W1        1.0  0.49492  0.54719  0.25221  1.0000
  W   W2        1.0  0.50508  0.45281  0.74779  1.0000
  C   C1        1.0  0.68550  0.50100  0.27910  1.0000
  C   C2        1.0  0.31450  0.49900  0.72090  1.0000
  N   N1        1.0  0.78640  0.48050  0.29270  1.0000
  N   N2        1.0  0.21360  0.51950  0.70730  1.0000
  C   C3        1.0  0.58530  0.67500  0.25640  1.0000
  C   C4        1.0  0.41470  0.32500  0.74360  1.0000
  N   N3        1.0  0.63740  0.73880  0.25990  1.0000
  N   N4        1.0  0.36260  0.26120  0.74010  1.0000
  C   C5        1.0  0.48220  0.50860  0.33780  1.0000
  C   C6        1.0  0.51780  0.49140  0.66220  1.0000
  N   N5        1.0  0.47660  0.48470  0.38290  1.0000
  N   N6        1.0  0.52340  0.51530  0.61710  1.0000
  C   C7        1.0  0.62230  0.53400  0.18000  1.0000
  C   C8        1.0  0.37770  0.46600  0.82000  1.0000
  N   N7        1.0  0.68900  0.52730  0.14220  1.0000
  N   N8        1.0  0.31100  0.47270  0.85780  1.0000
  C   C9        1.0  0.51980  0.39740  0.23470  1.0000
  C   C10       1.0  0.48020  0.60260  0.76530  1.0000
  N   N9        1.0  0.53150  0.31630  0.22640  1.0000
  N   N10       1.0  0.46850  0.68370  0.77360  1.0000
  C   C11       1.0  0.39070  0.60390  0.18250  1.0000
  C   C12       1.0  0.60930  0.39610  0.81750  1.0000
  N   N11       1.0  0.33570  0.63320  0.14520  1.0000
  N   N12       1.0  0.66430  0.36680  0.85480  1.0000
  C   C13       1.0  0.35800  0.66150  0.28510  1.0000
  C   C14       1.0  0.64200  0.33850  0.71490  1.0000
  N   N13       1.0  0.28620  0.72240  0.30100  1.0000
  N   N14       1.0  0.71380  0.27760  0.69900  1.0000
  C   C15       1.0  0.31380  0.49510  0.26380  1.0000
  C   C16       1.0  0.68620  0.50490  0.73620  1.0000
  N   N15       1.0  0.21690  0.46970  0.27090  1.0000
  N   N16       1.0  0.78310  0.53030  0.72910  1.0000
  Mn  Mn1       1.0  0.00321  0.46851  0.29025  1.0000
  Mn  Mn2       1.0  0.99679  0.53149  0.70975  1.0000
  O   O1        1.0  0.01290  0.33430  0.28686  1.0000
  O   O2        1.0  0.98710  0.66570  0.71314  1.0000
  O   O3        1.0  0.02790  0.46540  0.36578  1.0000
  O   O4        1.0  0.97210  0.53460  0.63422  1.0000
  N   N17       1.0  0.98760  0.48470  0.20940  1.0000
  N   N18       1.0  0.01240  0.51530  0.79060  1.0000
  N   N19       1.0  0.98960  0.60950  0.28680  1.0000
  N   N20       1.0  0.01040  0.39050  0.71320  1.0000
  C   C17       1.0  0.97760  0.28510  0.24740  1.0000
  C   C18       1.0  0.02240  0.71490  0.75260  1.0000
  C   C19       1.0  0.97100  0.18830  0.25760  1.0000
  C   C20       1.0  0.02900  0.81170  0.74240  1.0000
  H   H1        1.0  0.98680  0.16310  0.29330  1.0000
  H   H2        1.0  0.01320  0.83690  0.70670  1.0000
  C   C21       1.0  0.94260  0.12880  0.21800  1.0000
  C   C22       1.0  0.05740  0.87120  0.78200  1.0000
  H   H3        1.0  0.94040  0.06310  0.22580  1.0000
  H   H4        1.0  0.05960  0.93690  0.77420  1.0000
  C   C23       1.0  0.91670  0.16720  0.16520  1.0000
  C   C24       1.0  0.08330  0.83280  0.83480  1.0000
  C   C25       1.0  0.91670  0.26240  0.15350  1.0000
  C   C26       1.0  0.08330  0.73760  0.84650  1.0000
  H   H5        1.0  0.89540  0.28700  0.11820  1.0000
  H   H6        1.0  0.10460  0.71300  0.88180  1.0000
  C   C27       1.0  0.94820  0.32320  0.19380  1.0000
  C   C28       1.0  0.05180  0.67680  0.80620  1.0000
  C   C29       1.0  0.96050  0.42040  0.17780  1.0000
  C   C30       1.0  0.03950  0.57960  0.82220  1.0000
  H   H7        1.0  0.94740  0.43790  0.14060  1.0000
  H   H8        1.0  0.05260  0.56210  0.85940  1.0000
  C   C31       1.0  0.01610  0.57710  0.18940  1.0000
  C   C32       1.0  0.98390  0.42290  0.81060  1.0000
  H   H9        1.0  0.10920  0.57810  0.19080  1.0000
  H   H10       1.0  0.89080  0.42190  0.80920  1.0000
  C   C33       1.0  0.97630  0.60780  0.13270  1.0000
  C   C34       1.0  0.02370  0.39220  0.86730  1.0000
  H   H11       1.0  0.02080  0.56310  0.10540  1.0000
  H   H12       1.0  0.97920  0.43690  0.89460  1.0000
  H   H13       1.0  0.88450  0.60630  0.13030  1.0000
  H   H14       1.0  0.11550  0.39370  0.86970  1.0000
  C   C35       1.0  0.00660  0.70690  0.11990  1.0000
  C   C36       1.0  0.99340  0.29310  0.88010  1.0000
  H   H15       1.0  0.09890  0.70740  0.12070  1.0000
  H   H16       1.0  0.90110  0.29260  0.87930  1.0000
  H   H17       1.0  0.98020  0.72610  0.08260  1.0000
  H   H18       1.0  0.01980  0.27390  0.91740  1.0000
  C   C37       1.0  0.94160  0.77620  0.16010  1.0000
  C   C38       1.0  0.05840  0.22380  0.83990  1.0000
  H   H19       1.0  0.84920  0.77930  0.15700  1.0000
  H   H20       1.0  0.15080  0.22070  0.84300  1.0000
  H   H21       1.0  0.96500  0.84010  0.15100  1.0000
  H   H22       1.0  0.03500  0.15990  0.84900  1.0000
  C   C39       1.0  0.97520  0.74970  0.21950  1.0000
  C   C40       1.0  0.02480  0.25030  0.78050  1.0000
  H   H23       1.0  0.06530  0.75490  0.22450  1.0000
  H   H24       1.0  0.93470  0.24510  0.77550  1.0000
  H   H25       1.0  0.92360  0.79360  0.24510  1.0000
  H   H26       1.0  0.07640  0.20640  0.75490  1.0000
  C   C41       1.0  0.94950  0.64870  0.23110  1.0000
  C   C42       1.0  0.05050  0.35130  0.76890  1.0000
  H   H27       1.0  0.85660  0.64740  0.22950  1.0000
  H   H28       1.0  0.14340  0.35260  0.77050  1.0000
  C   C43       1.0  0.01530  0.66220  0.32500  1.0000
  C   C44       1.0  0.98470  0.33780  0.67500  1.0000
  H   H29       1.0  0.00900  0.72860  0.31750  1.0000
  H   H30       1.0  0.99100  0.27140  0.68250  1.0000
  C   C45       1.0  0.05320  0.62970  0.37880  1.0000
  C   C46       1.0  0.94680  0.37030  0.62120  1.0000
  C   C47       1.0  0.08010  0.69890  0.41590  1.0000
  C   C48       1.0  0.91990  0.30110  0.58410  1.0000
  H   H31       1.0  0.07370  0.76400  0.40500  1.0000
  H   H32       1.0  0.92630  0.23600  0.59500  1.0000
  C   C49       1.0  0.11500  0.67200  0.46690  1.0000
  C   C50       1.0  0.88500  0.32800  0.53310  1.0000
  C   C51       1.0  0.13070  0.57660  0.48420  1.0000
  C   C52       1.0  0.86930  0.42340  0.51580  1.0000
  H   H33       1.0  0.15840  0.55920  0.51980  1.0000
  H   H34       1.0  0.84160  0.44080  0.48020  1.0000
  C   C53       1.0  0.10490  0.50790  0.44820  1.0000
  C   C54       1.0  0.89510  0.49210  0.55180  1.0000
  H   H35       1.0  0.11650  0.44300  0.45950  1.0000
  H   H36       1.0  0.88350  0.55700  0.54050  1.0000
  C   C55       1.0  0.06210  0.53190  0.39530  1.0000
  C   C56       1.0  0.93790  0.46810  0.60470  1.0000
  Br  Br1       1.0  0.88526  0.08193  0.10960  1.0000
  Br  Br2       1.0  0.11474  0.91807  0.89040  1.0000
  Br  Br3       1.0  0.14324  0.76552  0.51829  1.0000
  Br  Br4       1.0  0.85676  0.23448  0.48171  1.0000
