data_image0
_chemical_formula_structural       Cr2Na2C2Br2C2O2C2O2C2Br2C2O2C2O2C2Br2C2O2C2O2C2Br2C2O2C2O2C2Br2C2O2C2O2C2Br2C2O2C2O2
_chemical_formula_sum              "Cr2 Na2 C36 Br12 O24"
_cell_length_a       9.8809
_cell_length_b       23.8659
_cell_length_c       12.4131
_cell_angle_alpha    90
_cell_angle_beta     104.868
_cell_angle_gamma    90

_space_group_name_H-M_alt    "P 1"
_space_group_IT_number       1

loop_
  _space_group_symop_operation_xyz
  'x, y, z'

loop_
  _atom_site_type_symbol
  _atom_site_label
  _atom_site_symmetry_multiplicity
  _atom_site_fract_x
  _atom_site_fract_y
  _atom_site_fract_z
  _atom_site_occupancy
  Cr  Cr1       1.0  0.76966  0.22184  0.67540  1.0000
  Cr  Cr2       1.0  0.23034  0.72184  0.32460  1.0000
  Na  Na1       1.0  0.26382  0.04527  0.17792  1.0000
  Na  Na2       1.0  0.73618  0.54527  0.82208  1.0000
  C   C1        1.0  0.07010  0.11079  0.83610  1.0000
  C   C2        1.0  0.92990  0.61079  0.16390  1.0000
  Br  Br1       1.0  0.13551  0.06873  0.73056  1.0000
  Br  Br2       1.0  0.86449  0.56873  0.26944  1.0000
  C   C3        1.0  0.97420  0.15236  0.79980  1.0000
  C   C4        1.0  0.02580  0.65236  0.20020  1.0000
  O   O1        1.0  0.92260  0.16628  0.69770  1.0000
  O   O2        1.0  0.07740  0.66628  0.30230  1.0000
  C   C5        1.0  0.91900  0.18568  0.88330  1.0000
  C   C6        1.0  0.08100  0.68568  0.11670  1.0000
  O   O3        1.0  0.81830  0.21947  0.83950  1.0000
  O   O4        1.0  0.18170  0.71947  0.16050  1.0000
  C   C7        1.0  0.97600  0.17829  0.99530  1.0000
  C   C8        1.0  0.02400  0.67829  0.00470  1.0000
  Br  Br3       1.0  0.91364  0.22320  0.09780  1.0000
  Br  Br4       1.0  0.08636  0.72320  0.90220  1.0000
  C   C9        1.0  0.07280  0.13475  0.03710  1.0000
  C   C10       1.0  0.92720  0.63475  0.96290  1.0000
  O   O5        1.0  0.11820  0.12261  0.13550  1.0000
  O   O6        1.0  0.88180  0.62261  0.86450  1.0000
  C   C11       1.0  0.12460  0.09834  0.95050  1.0000
  C   C12       1.0  0.87540  0.59834  0.04950  1.0000
  O   O7        1.0  0.20970  0.06134  0.98790  1.0000
  O   O8        1.0  0.79030  0.56134  0.01210  1.0000
  C   C13       1.0  0.60890  0.37216  0.73490  1.0000
  C   C14       1.0  0.39110  0.87216  0.26510  1.0000
  Br  Br5       1.0  0.41398  0.36553  0.72012  1.0000
  Br  Br6       1.0  0.58602  0.86553  0.27988  1.0000
  C   C15       1.0  0.67980  0.32739  0.70780  1.0000
  C   C16       1.0  0.32020  0.82739  0.29220  1.0000
  O   O9        1.0  0.62670  0.27906  0.67120  1.0000
  O   O10       1.0  0.37330  0.77906  0.32880  1.0000
  C   C17       1.0  0.83700  0.33188  0.71900  1.0000
  C   C18       1.0  0.16300  0.83188  0.28100  1.0000
  O   O11       1.0  0.89210  0.28758  0.68750  1.0000
  O   O12       1.0  0.10790  0.78758  0.31250  1.0000
  C   C19       1.0  0.90610  0.37956  0.76090  1.0000
  C   C20       1.0  0.09390  0.87956  0.23910  1.0000
  Br  Br7       1.0  0.10304  0.38380  0.78093  1.0000
  Br  Br8       1.0  0.89696  0.88380  0.21907  1.0000
  C   C21       1.0  0.83710  0.42690  0.79100  1.0000
  C   C22       1.0  0.16290  0.92690  0.20900  1.0000
  O   O13       1.0  0.89370  0.47161  0.82550  1.0000
  O   O14       1.0  0.10630  0.97161  0.17450  1.0000
  C   C23       1.0  0.67640  0.42170  0.78050  1.0000
  C   C24       1.0  0.32360  0.92170  0.21950  1.0000
  O   O15       1.0  0.61950  0.46113  0.81420  1.0000
  O   O16       1.0  0.38050  0.96113  0.18580  1.0000
  C   C25       1.0  0.49930  0.09915  0.52040  1.0000
  C   C26       1.0  0.50070  0.59915  0.47960  1.0000
  Br  Br9       1.0  0.43682  0.05669  0.62699  1.0000
  Br  Br10      1.0  0.56318  0.55669  0.37301  1.0000
  C   C27       1.0  0.58800  0.14304  0.55440  1.0000
  C   C28       1.0  0.41200  0.64304  0.44560  1.0000
  O   O17       1.0  0.63400  0.15967  0.65610  1.0000
  O   O18       1.0  0.36600  0.65967  0.34390  1.0000
  C   C29       1.0  0.63910  0.17719  0.46960  1.0000
  C   C30       1.0  0.36090  0.67719  0.53040  1.0000
  O   O19       1.0  0.72690  0.21613  0.51210  1.0000
  O   O20       1.0  0.27310  0.71613  0.48790  1.0000
  C   C31       1.0  0.59220  0.16468  0.35820  1.0000
  C   C32       1.0  0.40780  0.66468  0.64180  1.0000
  Br  Br11      1.0  0.65572  0.20596  0.25148  1.0000
  Br  Br12      1.0  0.34428  0.70596  0.74852  1.0000
  C   C33       1.0  0.49620  0.12045  0.31870  1.0000
  C   C34       1.0  0.50380  0.62045  0.68130  1.0000
  O   O21       1.0  0.45140  0.10724  0.22140  1.0000
  O   O22       1.0  0.54860  0.60724  0.77860  1.0000
  C   C35       1.0  0.44350  0.08539  0.40640  1.0000
  C   C36       1.0  0.55650  0.58539  0.59360  1.0000
  O   O23       1.0  0.35510  0.04945  0.37040  1.0000
  O   O24       1.0  0.64490  0.54945  0.62960  1.0000
