data_image0
_chemical_formula_structural       Fe2K2C2Cl2C2O2C2O2C2Cl2C2O2C2O2C2Cl2C2O2C2O2C2Cl2C2O2C2O2C2Cl2C2O2C2O2C2Cl2C2O2C2O2
_chemical_formula_sum              "Fe2 K2 C36 Cl12 O24"
_cell_length_a       9.7327
_cell_length_b       24.9615
_cell_length_c       13.3675
_cell_angle_alpha    90
_cell_angle_beta     108.147
_cell_angle_gamma    90

_space_group_name_H-M_alt    "P 1"
_space_group_IT_number       1

loop_
  _space_group_symop_operation_xyz
  'x, y, z'

loop_
  _atom_site_type_symbol
  _atom_site_label
  _atom_site_symmetry_multiplicity
  _atom_site_fract_x
  _atom_site_fract_y
  _atom_site_fract_z
  _atom_site_occupancy
  Fe  Fe1       1.0  0.74018  0.28885  0.30938  1.0000
  Fe  Fe2       1.0  0.25982  0.78885  0.69062  1.0000
  K   K1        1.0  0.24271  0.11204  0.80646  1.0000
  K   K2        1.0  0.75729  0.61204  0.19354  1.0000
  C   C1        1.0  0.42510  0.17933  0.13770  1.0000
  C   C2        1.0  0.57490  0.67933  0.86230  1.0000
  Cl  Cl1       1.0  0.34436  0.15001  0.22460  1.0000
  Cl  Cl2       1.0  0.65564  0.65001  0.77540  1.0000
  C   C3        1.0  0.52730  0.21839  0.17730  1.0000
  C   C4        1.0  0.47270  0.71839  0.82270  1.0000
  O   O1        1.0  0.57090  0.23534  0.27130  1.0000
  O   O2        1.0  0.42910  0.73534  0.72870  1.0000
  C   C5        1.0  0.60010  0.24391  0.10320  1.0000
  C   C6        1.0  0.39990  0.74391  0.89680  1.0000
  O   O3        1.0  0.69720  0.27870  0.14750  1.0000
  O   O4        1.0  0.30280  0.77870  0.85250  1.0000
  C   C7        1.0  0.56090  0.22920  0.99960  1.0000
  C   C8        1.0  0.43910  0.72920  0.00040  1.0000
  Cl  Cl3       1.0  0.64574  0.25755  0.91534  1.0000
  Cl  Cl4       1.0  0.35426  0.75755  0.08466  1.0000
  C   C9        1.0  0.45670  0.18849  0.95710  1.0000
  C   C10       1.0  0.54330  0.68849  0.04290  1.0000
  O   O5        1.0  0.41930  0.17291  0.86420  1.0000
  O   O6        1.0  0.58070  0.67291  0.13580  1.0000
  C   C11       1.0  0.38340  0.16095  0.03240  1.0000
  C   C12       1.0  0.61660  0.66095  0.96760  1.0000
  O   O7        1.0  0.29400  0.12623  0.99330  1.0000
  O   O8        1.0  0.70600  0.62623  0.00670  1.0000
  C   C13       1.0  0.04870  0.17739  0.48050  1.0000
  C   C14       1.0  0.95130  0.67739  0.51950  1.0000
  Cl  Cl5       1.0  0.13516  0.14967  0.39685  1.0000
  Cl  Cl6       1.0  0.86484  0.64967  0.60315  1.0000
  C   C15       1.0  0.94290  0.21619  0.44070  1.0000
  C   C16       1.0  0.05710  0.71619  0.55930  1.0000
  O   O9        1.0  0.90280  0.23305  0.34670  1.0000
  O   O10       1.0  0.09720  0.73305  0.65330  1.0000
  C   C17       1.0  0.87030  0.24236  0.51480  1.0000
  C   C18       1.0  0.12970  0.74236  0.48520  1.0000
  O   O11       1.0  0.77770  0.27868  0.47010  1.0000
  O   O12       1.0  0.22230  0.77868  0.52990  1.0000
  C   C19       1.0  0.90690  0.22600  0.61750  1.0000
  C   C20       1.0  0.09310  0.72600  0.38250  1.0000
  Cl  Cl7       1.0  0.82626  0.25443  0.70306  1.0000
  Cl  Cl8       1.0  0.17374  0.75443  0.29694  1.0000
  C   C21       1.0  0.01420  0.18605  0.65960  1.0000
  C   C22       1.0  0.98580  0.68605  0.34040  1.0000
  O   O13       1.0  0.05120  0.17027  0.75180  1.0000
  O   O14       1.0  0.94880  0.67027  0.24820  1.0000
  C   C23       1.0  0.09220  0.16076  0.58640  1.0000
  C   C24       1.0  0.90780  0.66076  0.41360  1.0000
  O   O15       1.0  0.18690  0.12726  0.62660  1.0000
  O   O16       1.0  0.81310  0.62726  0.37340  1.0000
  C   C25       1.0  0.90160  0.43830  0.26240  1.0000
  C   C26       1.0  0.09840  0.93830  0.73760  1.0000
  Cl  Cl9       1.0  0.08071  0.43066  0.26692  1.0000
  Cl  Cl10      1.0  0.91929  0.93066  0.73308  1.0000
  C   C27       1.0  0.82860  0.39400  0.28040  1.0000
  C   C28       1.0  0.17140  0.89400  0.71960  1.0000
  O   O17       1.0  0.88120  0.34713  0.30340  1.0000
  O   O18       1.0  0.11880  0.84713  0.69660  1.0000
  C   C29       1.0  0.66920  0.39950  0.27630  1.0000
  C   C30       1.0  0.33080  0.89950  0.72370  1.0000
  O   O19       1.0  0.61430  0.35500  0.29600  1.0000
  O   O20       1.0  0.38570  0.85500  0.70400  1.0000
  C   C31       1.0  0.60200  0.44780  0.25410  1.0000
  C   C32       1.0  0.39800  0.94780  0.74590  1.0000
  Cl  Cl11      1.0  0.42356  0.45515  0.25008  1.0000
  Cl  Cl12      1.0  0.57644  0.95515  0.74992  1.0000
  C   C33       1.0  0.67440  0.49480  0.23550  1.0000
  C   C34       1.0  0.32560  0.99480  0.76450  1.0000
  O   O21       1.0  0.61940  0.53948  0.21540  1.0000
  O   O22       1.0  0.38060  0.03948  0.78460  1.0000
  C   C35       1.0  0.83530  0.48870  0.23770  1.0000
  C   C36       1.0  0.16470  0.98870  0.76230  1.0000
  O   O23       1.0  0.89320  0.53036  0.21760  1.0000
  O   O24       1.0  0.10680  0.03036  0.78240  1.0000
