data_image0
_chemical_formula_structural       Fe4Na8C4Cl4C4O4C4O4C4Cl4C4O4C4O4C4Cl4C4O4C4O4C4Cl4C4O4C4O4C4Cl4C4O4C4O4C4Cl4C4O4C4O8C4H4N4C4H12C4H12
_chemical_formula_sum              "Fe4 Na8 C84 Cl24 O52 H28 N4"
_cell_length_a       12.7905
_cell_length_b       25.9152
_cell_length_c       10.6329
_cell_angle_alpha    90
_cell_angle_beta     92.472
_cell_angle_gamma    90

_space_group_name_H-M_alt    "P 1"
_space_group_IT_number       1

loop_
  _space_group_symop_operation_xyz
  'x, y, z'

loop_
  _atom_site_type_symbol
  _atom_site_label
  _atom_site_symmetry_multiplicity
  _atom_site_fract_x
  _atom_site_fract_y
  _atom_site_fract_z
  _atom_site_occupancy
  Fe  Fe1       1.0  0.81432  0.10255  0.18721  1.0000
  Fe  Fe2       1.0  0.18568  0.60255  0.31279  1.0000
  Fe  Fe3       1.0  0.18568  0.89745  0.81279  1.0000
  Fe  Fe4       1.0  0.81432  0.39745  0.68721  1.0000
  Na  Na1       1.0  0.30866  0.29398  0.31686  1.0000
  Na  Na2       1.0  0.69134  0.79398  0.18314  1.0000
  Na  Na3       1.0  0.69134  0.70602  0.68314  1.0000
  Na  Na4       1.0  0.30866  0.20602  0.81686  1.0000
  Na  Na5       1.0  0.34799  0.31174  0.02611  1.0000
  Na  Na6       1.0  0.65201  0.81174  0.47389  1.0000
  Na  Na7       1.0  0.65201  0.68826  0.97389  1.0000
  Na  Na8       1.0  0.34799  0.18826  0.52611  1.0000
  C   C1        1.0  0.60538  0.22032  0.25230  1.0000
  C   C2        1.0  0.39462  0.72032  0.24770  1.0000
  C   C3        1.0  0.39462  0.77968  0.74770  1.0000
  C   C4        1.0  0.60538  0.27968  0.75230  1.0000
  Cl  Cl1       1.0  0.64844  0.25465  0.38370  1.0000
  Cl  Cl2       1.0  0.35156  0.75465  0.11630  1.0000
  Cl  Cl3       1.0  0.35156  0.74535  0.61630  1.0000
  Cl  Cl4       1.0  0.64844  0.24535  0.88370  1.0000
  C   C5        1.0  0.51368  0.23698  0.18310  1.0000
  C   C6        1.0  0.48632  0.73698  0.31690  1.0000
  C   C7        1.0  0.48632  0.76302  0.81690  1.0000
  C   C8        1.0  0.51368  0.26302  0.68310  1.0000
  O   O1        1.0  0.46183  0.27583  0.20590  1.0000
  O   O2        1.0  0.53817  0.77583  0.29410  1.0000
  O   O3        1.0  0.53817  0.72417  0.79410  1.0000
  O   O4        1.0  0.46183  0.22417  0.70590  1.0000
  C   C9        1.0  0.47437  0.20395  0.06880  1.0000
  C   C10       1.0  0.52563  0.70395  0.43120  1.0000
  C   C11       1.0  0.52563  0.79605  0.93120  1.0000
  C   C12       1.0  0.47437  0.29605  0.56880  1.0000
  O   O5        1.0  0.39816  0.22084  0.00642  1.0000
  O   O6        1.0  0.60184  0.72084  0.49358  1.0000
  O   O7        1.0  0.60184  0.77916  0.99358  1.0000
  O   O8        1.0  0.39816  0.27916  0.50642  1.0000
  C   C13       1.0  0.52897  0.15775  0.04150  1.0000
  C   C14       1.0  0.47103  0.65775  0.45850  1.0000
  C   C15       1.0  0.47103  0.84225  0.95850  1.0000
  C   C16       1.0  0.52897  0.34225  0.54150  1.0000
  Cl  Cl5       1.0  0.48633  0.12087  0.91402  1.0000
  Cl  Cl6       1.0  0.51367  0.62087  0.58598  1.0000
  Cl  Cl7       1.0  0.51367  0.87913  0.08598  1.0000
  Cl  Cl8       1.0  0.48633  0.37913  0.41402  1.0000
  C   C17       1.0  0.62203  0.14560  0.10500  1.0000
  C   C18       1.0  0.37797  0.64560  0.39500  1.0000
  C   C19       1.0  0.37797  0.85440  0.89500  1.0000
  C   C20       1.0  0.62203  0.35440  0.60500  1.0000
  O   O9        1.0  0.68314  0.10870  0.07655  1.0000
  O   O10       1.0  0.31686  0.60870  0.42345  1.0000
  O   O11       1.0  0.31686  0.89130  0.92345  1.0000
  O   O12       1.0  0.68314  0.39130  0.57655  1.0000
  C   C21       1.0  0.65885  0.17699  0.21880  1.0000
  C   C22       1.0  0.34115  0.67699  0.28120  1.0000
  C   C23       1.0  0.34115  0.82301  0.78120  1.0000
  C   C24       1.0  0.65885  0.32301  0.71880  1.0000
  O   O13       1.0  0.74069  0.15923  0.27764  1.0000
  O   O14       1.0  0.25931  0.65923  0.22236  1.0000
  O   O15       1.0  0.25931  0.84077  0.72236  1.0000
  O   O16       1.0  0.74069  0.34077  0.77764  1.0000
  C   C25       1.0  0.04474  0.20670  0.09450  1.0000
  C   C26       1.0  0.95526  0.70670  0.40550  1.0000
  C   C27       1.0  0.95526  0.79330  0.90550  1.0000
  C   C28       1.0  0.04474  0.29330  0.59450  1.0000
  Cl  Cl9       1.0  0.01225  0.23579  0.95197  1.0000
  Cl  Cl10      1.0  0.98775  0.73579  0.54803  1.0000
  Cl  Cl11      1.0  0.98775  0.76421  0.04803  1.0000
  Cl  Cl12      1.0  0.01225  0.26421  0.45197  1.0000
  C   C29       1.0  0.98178  0.16857  0.13950  1.0000
  C   C30       1.0  0.01822  0.66857  0.36050  1.0000
  C   C31       1.0  0.01822  0.83143  0.86050  1.0000
  C   C32       1.0  0.98178  0.33143  0.63950  1.0000
  O   O17       1.0  0.89659  0.15190  0.08507  1.0000
  O   O18       1.0  0.10341  0.65190  0.41493  1.0000
  O   O19       1.0  0.10341  0.84810  0.91493  1.0000
  O   O20       1.0  0.89659  0.34810  0.58507  1.0000
  C   C33       1.0  0.01033  0.14233  0.26370  1.0000
  C   C34       1.0  0.98967  0.64233  0.23630  1.0000
  C   C35       1.0  0.98967  0.85767  0.73630  1.0000
  C   C36       1.0  0.01033  0.35767  0.76370  1.0000
  O   O21       1.0  0.94417  0.10876  0.29916  1.0000
  O   O22       1.0  0.05583  0.60876  0.20084  1.0000
  O   O23       1.0  0.05583  0.89124  0.70084  1.0000
  O   O24       1.0  0.94417  0.39124  0.79916  1.0000
  C   C37       1.0  0.10228  0.15478  0.32860  1.0000
  C   C38       1.0  0.89772  0.65478  0.17140  1.0000
  C   C39       1.0  0.89772  0.84522  0.67140  1.0000
  C   C40       1.0  0.10228  0.34522  0.82860  1.0000
  Cl  Cl13      1.0  0.13611  0.12364  0.46854  1.0000
  Cl  Cl14      1.0  0.86389  0.62364  0.03146  1.0000
  Cl  Cl15      1.0  0.86389  0.87636  0.53146  1.0000
  Cl  Cl16      1.0  0.13611  0.37636  0.96854  1.0000
  C   C41       1.0  0.16762  0.19508  0.28830  1.0000
  C   C42       1.0  0.83238  0.69508  0.21170  1.0000
  C   C43       1.0  0.83238  0.80492  0.71170  1.0000
  C   C44       1.0  0.16762  0.30492  0.78830  1.0000
  O   O25       1.0  0.24837  0.20978  0.34559  1.0000
  O   O26       1.0  0.75163  0.70978  0.15441  1.0000
  O   O27       1.0  0.75163  0.79022  0.65441  1.0000
  O   O28       1.0  0.24837  0.29022  0.84559  1.0000
  C   C45       1.0  0.13646  0.22418  0.16450  1.0000
  C   C46       1.0  0.86354  0.72418  0.33550  1.0000
  C   C47       1.0  0.86354  0.77582  0.83550  1.0000
  C   C48       1.0  0.13646  0.27582  0.66450  1.0000
  O   O29       1.0  0.19298  0.26010  0.13470  1.0000
  O   O30       1.0  0.80702  0.76010  0.36530  1.0000
  O   O31       1.0  0.80702  0.73990  0.86530  1.0000
  O   O32       1.0  0.19298  0.23990  0.63470  1.0000
  C   C49       1.0  0.28110  0.45935  0.18050  1.0000
  C   C50       1.0  0.71890  0.95935  0.31950  1.0000
  C   C51       1.0  0.71890  0.54065  0.81950  1.0000
  C   C52       1.0  0.28110  0.04065  0.68050  1.0000
  Cl  Cl17      1.0  0.35072  0.46692  0.04576  1.0000
  Cl  Cl18      1.0  0.64928  0.96692  0.45424  1.0000
  Cl  Cl19      1.0  0.64928  0.53308  0.95424  1.0000
  Cl  Cl20      1.0  0.35072  0.03308  0.54576  1.0000
  C   C53       1.0  0.23866  0.50192  0.23710  1.0000
  C   C54       1.0  0.76134  0.00192  0.26290  1.0000
  C   C55       1.0  0.76134  0.49808  0.76290  1.0000
  C   C56       1.0  0.23866  0.99808  0.73710  1.0000
  O   O33       1.0  0.24442  0.54828  0.19630  1.0000
  O   O34       1.0  0.75558  0.04828  0.30370  1.0000
  O   O35       1.0  0.75558  0.45172  0.80370  1.0000
  O   O36       1.0  0.24442  0.95172  0.69630  1.0000
  C   C57       1.0  0.18098  0.49612  0.35820  1.0000
  C   C58       1.0  0.81902  0.99612  0.14180  1.0000
  C   C59       1.0  0.81902  0.50388  0.64180  1.0000
  C   C60       1.0  0.18098  0.00388  0.85820  1.0000
  O   O37       1.0  0.14826  0.53871  0.40415  1.0000
  O   O38       1.0  0.85174  0.03871  0.09585  1.0000
  O   O39       1.0  0.85174  0.46129  0.59585  1.0000
  O   O40       1.0  0.14826  0.96129  0.90415  1.0000
  C   C61       1.0  0.16701  0.44814  0.40920  1.0000
  C   C62       1.0  0.83299  0.94814  0.09080  1.0000
  C   C63       1.0  0.83299  0.55186  0.59080  1.0000
  C   C64       1.0  0.16701  0.05186  0.90920  1.0000
  Cl  Cl21      1.0  0.09637  0.44203  0.54340  1.0000
  Cl  Cl22      1.0  0.90363  0.94203  0.95660  1.0000
  Cl  Cl23      1.0  0.90363  0.55797  0.45660  1.0000
  Cl  Cl24      1.0  0.09637  0.05797  0.04340  1.0000
  C   C65       1.0  0.20992  0.40292  0.35520  1.0000
  C   C66       1.0  0.79008  0.90292  0.14480  1.0000
  C   C67       1.0  0.79008  0.59708  0.64480  1.0000
  C   C68       1.0  0.20992  0.09708  0.85520  1.0000
  O   O41       1.0  0.20177  0.35901  0.39732  1.0000
  O   O42       1.0  0.79823  0.85901  0.10268  1.0000
  O   O43       1.0  0.79823  0.64099  0.60268  1.0000
  O   O44       1.0  0.20177  0.14099  0.89732  1.0000
  C   C69       1.0  0.27217  0.40913  0.23320  1.0000
  C   C70       1.0  0.72783  0.90913  0.26680  1.0000
  C   C71       1.0  0.72783  0.59087  0.76680  1.0000
  C   C72       1.0  0.27217  0.09087  0.73320  1.0000
  O   O45       1.0  0.30997  0.36947  0.18911  1.0000
  O   O46       1.0  0.69003  0.86947  0.31089  1.0000
  O   O47       1.0  0.69003  0.63053  0.81089  1.0000
  O   O48       1.0  0.30997  0.13053  0.68911  1.0000
  O   O49       1.0  0.45569  0.36045  0.90350  1.0000
  O   O50       1.0  0.54431  0.86045  0.59650  1.0000
  O   O51       1.0  0.54431  0.63955  0.09650  1.0000
  O   O52       1.0  0.45569  0.13955  0.40350  1.0000
  C   C73       1.0  0.48780  0.39898  0.85000  1.0000
  C   C74       1.0  0.51220  0.89898  0.65000  1.0000
  C   C75       1.0  0.51220  0.60102  0.15000  1.0000
  C   C76       1.0  0.48780  0.10102  0.35000  1.0000
  H   H1        1.0  0.55530  0.41130  0.87560  1.0000
  H   H2        1.0  0.44470  0.91130  0.62440  1.0000
  H   H3        1.0  0.44470  0.58870  0.12440  1.0000
  H   H4        1.0  0.55530  0.08870  0.37560  1.0000
  N   N1        1.0  0.43552  0.42484  0.75890  1.0000
  N   N2        1.0  0.56448  0.92484  0.74110  1.0000
  N   N3        1.0  0.56448  0.57516  0.24110  1.0000
  N   N4        1.0  0.43552  0.07516  0.25890  1.0000
  C   C77       1.0  0.47930  0.46984  0.69960  1.0000
  C   C78       1.0  0.52070  0.96984  0.80040  1.0000
  C   C79       1.0  0.52070  0.53016  0.30040  1.0000
  C   C80       1.0  0.47930  0.03016  0.19960  1.0000
  H   H5        1.0  0.42910  0.48320  0.63550  1.0000
  H   H6        1.0  0.57090  0.98320  0.86450  1.0000
  H   H7        1.0  0.57090  0.51680  0.36450  1.0000
  H   H8        1.0  0.42910  0.01680  0.13550  1.0000
  H   H9        1.0  0.54430  0.46020  0.66000  1.0000
  H   H10       1.0  0.45570  0.96020  0.84000  1.0000
  H   H11       1.0  0.45570  0.53980  0.34000  1.0000
  H   H12       1.0  0.54430  0.03980  0.16000  1.0000
  H   H13       1.0  0.49420  0.49650  0.76330  1.0000
  H   H14       1.0  0.50580  0.99650  0.73670  1.0000
  H   H15       1.0  0.50580  0.50350  0.23670  1.0000
  H   H16       1.0  0.49420  0.00350  0.26330  1.0000
  C   C81       1.0  0.33310  0.40747  0.71250  1.0000
  C   C82       1.0  0.66690  0.90747  0.78750  1.0000
  C   C83       1.0  0.66690  0.59253  0.28750  1.0000
  C   C84       1.0  0.33310  0.09253  0.21250  1.0000
  H   H17       1.0  0.30640  0.43090  0.64630  1.0000
  H   H18       1.0  0.69360  0.93090  0.85370  1.0000
  H   H19       1.0  0.69360  0.56910  0.35370  1.0000
  H   H20       1.0  0.30640  0.06910  0.14630  1.0000
  H   H21       1.0  0.28500  0.40720  0.78170  1.0000
  H   H22       1.0  0.71500  0.90720  0.71830  1.0000
  H   H23       1.0  0.71500  0.59280  0.21830  1.0000
  H   H24       1.0  0.28500  0.09280  0.28170  1.0000
  H   H25       1.0  0.33870  0.37250  0.67800  1.0000
  H   H26       1.0  0.66130  0.87250  0.82200  1.0000
  H   H27       1.0  0.66130  0.62750  0.32200  1.0000
  H   H28       1.0  0.33870  0.12750  0.17800  1.0000
