data_image0
_chemical_formula_structural       O22C4S2C2H2C4H2C10H2C2H2U8O4S8O4C2O14N2O2N2C2H2N2C4H2C2H2N2O2C4H2C2H2C2O2C6O4C4H2C2H2C2H2C2H2C10H2C2H2C4H2C4H2C4H2C2H2C4H2C4H2C2H2C2H2C2H2C2H2C2H2O2
_chemical_formula_sum              "O56 C100 S10 H52 U8 N8"
_cell_length_a       8.485
_cell_length_b       20.759
_cell_length_c       21.698
_cell_angle_alpha    97.97
_cell_angle_beta     100.426
_cell_angle_gamma    101.314

_space_group_name_H-M_alt    "P 1"
_space_group_IT_number       1

loop_
  _space_group_symop_operation_xyz
  'x, y, z'

loop_
  _atom_site_type_symbol
  _atom_site_label
  _atom_site_symmetry_multiplicity
  _atom_site_fract_x
  _atom_site_fract_y
  _atom_site_fract_z
  _atom_site_occupancy
  O   O1        1.0  0.72760  0.67260  0.70300  1.0000
  O   O2        1.0  0.27240  0.32740  0.29700  1.0000
  O   O3        1.0  0.32070  0.35260  0.80090  1.0000
  O   O4        1.0  0.67930  0.64740  0.19910  1.0000
  O   O5        1.0  0.21340  0.44940  0.92540  1.0000
  O   O6        1.0  0.78660  0.55060  0.07460  1.0000
  O   O7        1.0  0.82300  0.57480  0.57460  1.0000
  O   O8        1.0  0.17700  0.42520  0.42540  1.0000
  O   O9        1.0  0.99730  0.08880  0.10490  1.0000
  O   O10       1.0  0.00270  0.91120  0.89510  1.0000
  O   O11       1.0  0.69900  0.78150  0.30420  1.0000
  O   O12       1.0  0.30100  0.21850  0.69580  1.0000
  O   O13       1.0  0.94680  0.22410  0.21040  1.0000
  O   O14       1.0  0.05320  0.77590  0.78960  1.0000
  O   O15       1.0  0.97620  0.90080  0.37360  1.0000
  O   O16       1.0  0.02380  0.09920  0.62640  1.0000
  O   O17       1.0  0.01450  0.76230  0.26730  1.0000
  O   O18       1.0  0.98550  0.23770  0.73270  1.0000
  O   O19       1.0  0.95500  0.75860  0.39880  1.0000
  O   O20       1.0  0.04500  0.24140  0.60120  1.0000
  O   O21       1.0  0.76480  0.84950  0.24050  1.0000
  O   O22       1.0  0.23520  0.15050  0.75950  1.0000
  C   C1        1.0  0.55020  0.37460  0.93930  1.0000
  C   C2        1.0  0.44980  0.62540  0.06070  1.0000
  C   C3        1.0  0.49870  0.65320  0.56380  1.0000
  C   C4        1.0  0.50130  0.34680  0.43620  1.0000
  S   S1        1.0  0.35420  0.72230  0.22820  1.0000
  S   S2        1.0  0.64580  0.27770  0.77180  1.0000
  C   C5        1.0  0.42500  0.81860  0.17010  1.0000
  C   C6        1.0  0.57500  0.18140  0.82990  1.0000
  H   H1        1.0  0.48440  0.85630  0.15720  1.0000
  H   H2        1.0  0.51560  0.14370  0.84280  1.0000
  C   C7        1.0  0.20300  0.73480  0.16810  1.0000
  C   C8        1.0  0.79700  0.26520  0.83190  1.0000
  C   C9        1.0  0.25960  0.78810  0.14260  1.0000
  C   C10       1.0  0.74040  0.21190  0.85740  1.0000
  H   H3        1.0  0.19480  0.80330  0.10960  1.0000
  H   H4        1.0  0.80520  0.19670  0.89040  1.0000
  C   C11       1.0  0.65940  0.80670  0.25510  1.0000
  C   C12       1.0  0.34060  0.19330  0.74490  1.0000
  C   C13       1.0  0.10600  0.76750  0.41870  1.0000
  C   C14       1.0  0.89400  0.23250  0.58130  1.0000
  C   C15       1.0  0.49180  0.78850  0.21740  1.0000
  C   C16       1.0  0.50820  0.21150  0.78260  1.0000
  C   C17       1.0  0.04200  0.68950  0.15340  1.0000
  C   C18       1.0  0.95800  0.31050  0.84660  1.0000
  C   C19       1.0  0.60700  0.62060  0.90170  1.0000
  C   C20       1.0  0.39300  0.37940  0.09830  1.0000
  H   H5        1.0  0.67580  0.64830  0.93930  1.0000
  H   H6        1.0  0.32420  0.35170  0.06070  1.0000
  C   C21       1.0  0.59300  0.64180  0.84160  1.0000
  C   C22       1.0  0.40700  0.35820  0.15840  1.0000
  H   H7        1.0  0.66050  0.68260  0.83770  1.0000
  H   H8        1.0  0.33950  0.31740  0.16230  1.0000
  U   U1        1.0  0.77573  0.62318  0.64008  1.0000
  U   U2        1.0  0.22427  0.37682  0.35992  1.0000
  U   U3        1.0  0.99473  0.83248  0.31831  1.0000
  U   U4        1.0  0.00527  0.16752  0.68169  1.0000
  U   U5        1.0  0.97032  0.15665  0.15762  1.0000
  U   U6        1.0  0.02968  0.84335  0.84238  1.0000
  U   U7        1.0  0.26370  0.40119  0.86238  1.0000
  U   U8        1.0  0.73630  0.59881  0.13762  1.0000
  O   O23       1.0  0.40330  0.34470  0.94000  1.0000
  O   O24       1.0  0.59670  0.65530  0.06000  1.0000
  O   O25       1.0  0.47780  0.60540  0.59310  1.0000
  O   O26       1.0  0.52220  0.39460  0.40690  1.0000
  S   S3        1.0  0.38150  0.73240  0.48240  1.0000
  S   S4        1.0  0.61850  0.26760  0.51760  1.0000
  S   S5        1.0  0.39460  0.74560  0.73910  1.0000
  S   S6        1.0  0.60540  0.25440  0.26090  1.0000
  S   S7        1.0  0.64760  0.28260  0.00560  1.0000
  S   S8        1.0  0.35240  0.71740  0.99440  1.0000
  S   S9        1.0  0.52910  0.99070  0.25690  1.0000
  S   S10       1.0  0.47090  0.00930  0.74310  1.0000
  O   O27       1.0  0.56490  0.42430  0.91130  1.0000
  O   O28       1.0  0.43510  0.57570  0.08870  1.0000
  O   O29       1.0  0.07290  0.65640  0.68420  1.0000
  O   O30       1.0  0.92710  0.34360  0.31580  1.0000
  C   C23       1.0  0.70860  0.82470  0.76830  1.0000
  C   C24       1.0  0.29140  0.17530  0.23170  1.0000
  O   O31       1.0  0.79120  0.19010  0.07160  1.0000
  O   O32       1.0  0.20880  0.80990  0.92840  1.0000
  O   O33       1.0  0.73030  0.79910  0.81790  1.0000
  O   O34       1.0  0.26970  0.20090  0.18210  1.0000
  O   O35       1.0  0.96910  0.72340  0.62460  1.0000
  O   O36       1.0  0.03090  0.27660  0.37540  1.0000
  O   O37       1.0  0.67870  0.10680  0.13980  1.0000
  O   O38       1.0  0.32130  0.89320  0.86020  1.0000
  O   O39       1.0  0.02940  0.63580  0.17780  1.0000
  O   O40       1.0  0.97060  0.36420  0.82220  1.0000
  O   O41       1.0  0.82400  0.86400  0.75500  1.0000
  O   O42       1.0  0.17600  0.13600  0.24500  1.0000
  O   O43       1.0  0.28080  0.89930  0.31500  1.0000
  O   O44       1.0  0.71920  0.10070  0.68500  1.0000
  N   N1        1.0  0.60800  0.50380  0.64380  1.0000
  N   N2        1.0  0.39200  0.49620  0.35620  1.0000
  O   O45       1.0  0.05260  0.23900  0.08690  1.0000
  O   O46       1.0  0.94740  0.76100  0.91310  1.0000
  N   N3        1.0  0.85970  0.56560  0.73870  1.0000
  N   N4        1.0  0.14030  0.43440  0.26130  1.0000
  C   C25       1.0  0.84960  0.37370  0.97320  1.0000
  C   C26       1.0  0.15040  0.62630  0.02680  1.0000
  H   H9        1.0  0.89290  0.41110  0.95560  1.0000
  H   H10       1.0  0.10710  0.58890  0.04440  1.0000
  N   N5        1.0  0.40900  0.51900  0.85040  1.0000
  N   N6        1.0  0.59100  0.48100  0.14960  1.0000
  C   C27       1.0  0.25250  0.75620  0.67640  1.0000
  C   C28       1.0  0.74750  0.24380  0.32360  1.0000
  C   C29       1.0  0.48300  0.83570  0.67550  1.0000
  C   C30       1.0  0.51700  0.16430  0.32450  1.0000
  H   H11       1.0  0.54680  0.87160  0.66160  1.0000
  H   H12       1.0  0.45320  0.12840  0.33840  1.0000
  C   C31       1.0  0.94600  0.33610  0.00470  1.0000
  C   C32       1.0  0.05400  0.66390  0.99530  1.0000
  H   H13       1.0  0.06290  0.34490  0.01110  1.0000
  H   H14       1.0  0.93710  0.65510  0.98890  1.0000
  N   N7        1.0  0.16090  0.44840  0.75680  1.0000
  N   N8        1.0  0.83910  0.55160  0.24320  1.0000
  O   O47       1.0  0.20370  0.81000  0.39840  1.0000
  O   O48       1.0  0.79630  0.19000  0.60160  1.0000
  C   C33       1.0  0.68790  0.35110  0.97040  1.0000
  C   C34       1.0  0.31210  0.64890  0.02960  1.0000
  C   C35       1.0  0.08710  0.68130  0.49230  1.0000
  C   C36       1.0  0.91290  0.31870  0.50770  1.0000
  H   H15       1.0  0.97120  0.67270  0.48820  1.0000
  H   H16       1.0  0.02880  0.32730  0.51180  1.0000
  C   C37       1.0  0.19070  0.64990  0.52880  1.0000
  C   C38       1.0  0.80930  0.35010  0.47120  1.0000
  H   H17       1.0  0.15180  0.61640  0.55180  1.0000
  H   H18       1.0  0.84820  0.38360  0.44820  1.0000
  C   C39       1.0  0.53580  0.03600  0.19720  1.0000
  C   C40       1.0  0.46420  0.96400  0.80280  1.0000
  O   O49       1.0  0.92070  0.70180  0.11960  1.0000
  O   O50       1.0  0.07930  0.29820  0.88040  1.0000
  C   C41       1.0  0.35380  0.67170  0.52870  1.0000
  C   C42       1.0  0.64620  0.32830  0.47130  1.0000
  C   C43       1.0  0.32030  0.96520  0.23440  1.0000
  C   C44       1.0  0.67970  0.03480  0.76560  1.0000
  C   C45       1.0  0.21700  0.91980  0.26660  1.0000
  C   C46       1.0  0.78300  0.08020  0.73340  1.0000
  O   O51       1.0  0.82880  0.07470  0.21750  1.0000
  O   O52       1.0  0.17120  0.92530  0.78250  1.0000
  O   O53       1.0  0.06650  0.90350  0.24330  1.0000
  O   O54       1.0  0.93350  0.09650  0.75670  1.0000
  C   C47       1.0  0.75760  0.51100  0.74880  1.0000
  C   C48       1.0  0.24240  0.48900  0.25120  1.0000
  C   C49       1.0  0.78000  0.48920  0.80740  1.0000
  C   C50       1.0  0.22000  0.51080  0.19260  1.0000
  H   H19       1.0  0.70640  0.45150  0.81430  1.0000
  H   H20       1.0  0.29360  0.54850  0.18570  1.0000
  C   C51       1.0  0.31730  0.80550  0.64600  1.0000
  C   C52       1.0  0.68270  0.19450  0.35400  1.0000
  H   H21       1.0  0.25820  0.81770  0.60970  1.0000
  H   H22       1.0  0.74180  0.18230  0.39030  1.0000
  C   C53       1.0  0.98500  0.59830  0.78660  1.0000
  C   C54       1.0  0.01500  0.40170  0.21340  1.0000
  H   H23       1.0  0.05410  0.63760  0.78000  1.0000
  H   H24       1.0  0.94590  0.36240  0.22000  1.0000
  C   C55       1.0  0.51500  0.55700  0.90270  1.0000
  C   C56       1.0  0.48500  0.44300  0.09730  1.0000
  H   H25       1.0  0.52770  0.54000  0.94140  1.0000
  H   H26       1.0  0.47230  0.46000  0.05860  1.0000
  C   C57       1.0  0.90600  0.23590  0.06250  1.0000
  C   C58       1.0  0.09400  0.76410  0.93750  1.0000
  C   C59       1.0  0.85300  0.28490  0.02560  1.0000
  C   C60       1.0  0.14700  0.71510  0.97440  1.0000
  C   C61       1.0  0.62690  0.47470  0.69490  1.0000
  C   C62       1.0  0.37310  0.52530  0.30510  1.0000
  C   C63       1.0  0.08660  0.71020  0.65860  1.0000
  C   C64       1.0  0.91340  0.28980  0.34140  1.0000
  C   C65       1.0  0.09000  0.48370  0.63880  1.0000
  C   C66       1.0  0.91000  0.51630  0.36120  1.0000
  H   H27       1.0  0.06410  0.49630  0.59840  1.0000
  H   H28       1.0  0.93590  0.50370  0.40160  1.0000
  C   C67       1.0  0.99500  0.42910  0.65280  1.0000
  C   C68       1.0  0.00500  0.57090  0.34720  1.0000
  H   H29       1.0  0.90260  0.40240  0.62200  1.0000
  H   H30       1.0  0.09740  0.59760  0.37800  1.0000
  C   C69       1.0  0.38800  0.54270  0.79560  1.0000
  C   C70       1.0  0.61200  0.45730  0.20440  1.0000
  C   C71       1.0  0.40200  0.40590  0.58760  1.0000
  C   C72       1.0  0.59800  0.59410  0.41240  1.0000
  H   H31       1.0  0.32810  0.38240  0.54930  1.0000
  H   H32       1.0  0.67190  0.61760  0.45070  1.0000
  C   C73       1.0  0.25500  0.50300  0.74320  1.0000
  C   C74       1.0  0.74500  0.49700  0.25680  1.0000
  C   C75       1.0  0.03400  0.41330  0.71210  1.0000
  C   C76       1.0  0.96600  0.58670  0.28790  1.0000
  H   H33       1.0  0.96590  0.37540  0.72160  1.0000
  H   H34       1.0  0.03410  0.62460  0.27840  1.0000
  C   C77       1.0  0.54340  0.80780  0.72670  1.0000
  C   C78       1.0  0.45660  0.19220  0.27330  1.0000
  C   C79       1.0  0.49600  0.46960  0.59110  1.0000
  C   C80       1.0  0.50400  0.53040  0.40890  1.0000
  H   H35       1.0  0.48060  0.49030  0.55470  1.0000
  H   H36       1.0  0.51940  0.50970  0.44530  1.0000
  C   C81       1.0  0.22400  0.52020  0.68430  1.0000
  C   C82       1.0  0.77600  0.47980  0.31570  1.0000
  H   H37       1.0  0.29520  0.55720  0.67490  1.0000
  H   H38       1.0  0.70480  0.44280  0.32510  1.0000
  C   C83       1.0  0.17500  0.72660  0.46260  1.0000
  C   C84       1.0  0.82500  0.27340  0.53740  1.0000
  C   C85       1.0  0.48200  0.60350  0.78990  1.0000
  C   C86       1.0  0.51800  0.39650  0.21010  1.0000
  H   H39       1.0  0.46940  0.61830  0.75020  1.0000
  H   H40       1.0  0.53060  0.38170  0.24980  1.0000
  C   C87       1.0  0.68850  0.07370  0.18460  1.0000
  C   C88       1.0  0.31150  0.92630  0.81540  1.0000
  C   C89       1.0  0.53200  0.41220  0.69450  1.0000
  C   C90       1.0  0.46800  0.58780  0.30550  1.0000
  H   H41       1.0  0.54530  0.39320  0.73200  1.0000
  H   H42       1.0  0.45470  0.60680  0.26800  1.0000
  C   C91       1.0  0.02200  0.57860  0.84570  1.0000
  C   C92       1.0  0.97800  0.42140  0.15430  1.0000
  H   H43       1.0  0.11600  0.60140  0.87760  1.0000
  H   H44       1.0  0.88400  0.39860  0.12240  1.0000
  C   C93       1.0  0.42100  0.37790  0.64250  1.0000
  C   C94       1.0  0.57900  0.62210  0.35750  1.0000
  H   H45       1.0  0.35620  0.33510  0.64300  1.0000
  H   H46       1.0  0.64380  0.66490  0.35700  1.0000
  C   C95       1.0  0.38400  0.03010  0.16110  1.0000
  C   C96       1.0  0.61600  0.96990  0.83890  1.0000
  H   H47       1.0  0.36320  0.05050  0.12480  1.0000
  H   H48       1.0  0.63680  0.94950  0.87520  1.0000
  C   C97       1.0  0.91300  0.52410  0.85470  1.0000
  C   C98       1.0  0.08700  0.47590  0.14530  1.0000
  H   H49       1.0  0.92940  0.51000  0.89480  1.0000
  H   H50       1.0  0.07060  0.49000  0.10520  1.0000
  C   C99       1.0  0.26000  0.99080  0.18310  1.0000
  C   C100      1.0  0.74000  0.00920  0.81690  1.0000
  H   H51       1.0  0.14660  0.98280  0.16430  1.0000
  H   H52       1.0  0.85340  0.01720  0.83570  1.0000
  O   O55       1.0  0.64320  0.68480  0.56340  1.0000
  O   O56       1.0  0.35680  0.31520  0.43660  1.0000
