data_image0
_chemical_formula_structural       In4O32H8O8C8H8C8H8C16H8C32
_chemical_formula_sum              "In4 O40 H32 C64"
_cell_length_a       14.5443
_cell_length_b       13.3383
_cell_length_c       12.6641
_cell_angle_alpha    90
_cell_angle_beta     95.733
_cell_angle_gamma    90

_space_group_name_H-M_alt    "P 1"
_space_group_IT_number       1

loop_
  _space_group_symop_operation_xyz
  'x, y, z'

loop_
  _atom_site_type_symbol
  _atom_site_label
  _atom_site_symmetry_multiplicity
  _atom_site_fract_x
  _atom_site_fract_y
  _atom_site_fract_z
  _atom_site_occupancy
  In  In1       1.0  0.00000  0.34551  0.25000  1.0000
  In  In2       1.0  0.50000  0.84551  0.25000  1.0000
  In  In3       1.0  0.00000  0.65449  0.75000  1.0000
  In  In4       1.0  0.50000  0.15449  0.75000  1.0000
  O   O1        1.0  0.05560  0.27390  0.11580  1.0000
  O   O2        1.0  0.94440  0.27390  0.38420  1.0000
  O   O3        1.0  0.55560  0.77390  0.11580  1.0000
  O   O4        1.0  0.44440  0.77390  0.38420  1.0000
  O   O5        1.0  0.94440  0.72610  0.88420  1.0000
  O   O6        1.0  0.05560  0.72610  0.61580  1.0000
  O   O7        1.0  0.44440  0.22610  0.88420  1.0000
  O   O8        1.0  0.55560  0.22610  0.61580  1.0000
  O   O9        1.0  0.42580  0.92700  0.11690  1.0000
  O   O10       1.0  0.57420  0.92700  0.38310  1.0000
  O   O11       1.0  0.92580  0.42700  0.11690  1.0000
  O   O12       1.0  0.07420  0.42700  0.38310  1.0000
  O   O13       1.0  0.57420  0.07300  0.88310  1.0000
  O   O14       1.0  0.42580  0.07300  0.61690  1.0000
  O   O15       1.0  0.07420  0.57300  0.88310  1.0000
  O   O16       1.0  0.92580  0.57300  0.61690  1.0000
  O   O17       1.0  0.37850  0.96550  0.26830  1.0000
  O   O18       1.0  0.62150  0.96550  0.23170  1.0000
  O   O19       1.0  0.87850  0.46550  0.26830  1.0000
  O   O20       1.0  0.12150  0.46550  0.23170  1.0000
  O   O21       1.0  0.62150  0.03450  0.73170  1.0000
  O   O22       1.0  0.37850  0.03450  0.76830  1.0000
  O   O23       1.0  0.12150  0.53450  0.73170  1.0000
  O   O24       1.0  0.87850  0.53450  0.76830  1.0000
  O   O25       1.0  0.22590  0.11820  0.84470  1.0000
  O   O26       1.0  0.77410  0.11820  0.65530  1.0000
  O   O27       1.0  0.72590  0.61820  0.84470  1.0000
  O   O28       1.0  0.27410  0.61820  0.65530  1.0000
  O   O29       1.0  0.77410  0.88180  0.15530  1.0000
  O   O30       1.0  0.22590  0.88180  0.34470  1.0000
  O   O31       1.0  0.27410  0.38180  0.15530  1.0000
  O   O32       1.0  0.72590  0.38180  0.34470  1.0000
  H   H1        1.0  0.26170  0.07910  0.82010  1.0000
  H   H2        1.0  0.73830  0.07910  0.67990  1.0000
  H   H3        1.0  0.76170  0.57910  0.82010  1.0000
  H   H4        1.0  0.23830  0.57910  0.67990  1.0000
  H   H5        1.0  0.73830  0.92090  0.17990  1.0000
  H   H6        1.0  0.26170  0.92090  0.32010  1.0000
  H   H7        1.0  0.23830  0.42090  0.17990  1.0000
  H   H8        1.0  0.76170  0.42090  0.32010  1.0000
  O   O33       1.0  0.11740  0.22470  0.26790  1.0000
  O   O34       1.0  0.88260  0.22470  0.23210  1.0000
  O   O35       1.0  0.61740  0.72470  0.26790  1.0000
  O   O36       1.0  0.38260  0.72470  0.23210  1.0000
  O   O37       1.0  0.88260  0.77530  0.73210  1.0000
  O   O38       1.0  0.11740  0.77530  0.76790  1.0000
  O   O39       1.0  0.38260  0.27530  0.73210  1.0000
  O   O40       1.0  0.61740  0.27530  0.76790  1.0000
  C   C1        1.0  0.24310  0.09570  0.17070  1.0000
  C   C2        1.0  0.75690  0.09570  0.32930  1.0000
  C   C3        1.0  0.74310  0.59570  0.17070  1.0000
  C   C4        1.0  0.25690  0.59570  0.32930  1.0000
  C   C5        1.0  0.75690  0.90430  0.82930  1.0000
  C   C6        1.0  0.24310  0.90430  0.67070  1.0000
  C   C7        1.0  0.25690  0.40430  0.82930  1.0000
  C   C8        1.0  0.74310  0.40430  0.67070  1.0000
  H   H9        1.0  0.24660  0.09260  0.24440  1.0000
  H   H10       1.0  0.75340  0.09260  0.25560  1.0000
  H   H11       1.0  0.74660  0.59260  0.24440  1.0000
  H   H12       1.0  0.25340  0.59260  0.25560  1.0000
  H   H13       1.0  0.75340  0.90740  0.75560  1.0000
  H   H14       1.0  0.24660  0.90740  0.74440  1.0000
  H   H15       1.0  0.25340  0.40740  0.75560  1.0000
  H   H16       1.0  0.74660  0.40740  0.74440  1.0000
  C   C9        1.0  0.29880  0.04760  0.00600  1.0000
  C   C10       1.0  0.70120  0.04760  0.49400  1.0000
  C   C11       1.0  0.79880  0.54760  0.00600  1.0000
  C   C12       1.0  0.20120  0.54760  0.49400  1.0000
  C   C13       1.0  0.70120  0.95240  0.99400  1.0000
  C   C14       1.0  0.29880  0.95240  0.50600  1.0000
  C   C15       1.0  0.20120  0.45240  0.99400  1.0000
  C   C16       1.0  0.79880  0.45240  0.50600  1.0000
  H   H17       1.0  0.34090  0.01220  0.96980  1.0000
  H   H18       1.0  0.65910  0.01220  0.53020  1.0000
  H   H19       1.0  0.84090  0.51220  0.96980  1.0000
  H   H20       1.0  0.15910  0.51220  0.53020  1.0000
  H   H21       1.0  0.65910  0.98780  0.03020  1.0000
  H   H22       1.0  0.34090  0.98780  0.46980  1.0000
  H   H23       1.0  0.15910  0.48780  0.03020  1.0000
  H   H24       1.0  0.84090  0.48780  0.46980  1.0000
  C   C17       1.0  0.30220  0.04120  0.11470  1.0000
  C   C18       1.0  0.69780  0.04120  0.38530  1.0000
  C   C19       1.0  0.80220  0.54120  0.11470  1.0000
  C   C20       1.0  0.19780  0.54120  0.38530  1.0000
  C   C21       1.0  0.69780  0.95880  0.88530  1.0000
  C   C22       1.0  0.30220  0.95880  0.61470  1.0000
  C   C23       1.0  0.19780  0.45880  0.88530  1.0000
  C   C24       1.0  0.80220  0.45880  0.61470  1.0000
  C   C25       1.0  0.17140  0.16530  0.00610  1.0000
  C   C26       1.0  0.82860  0.16530  0.49390  1.0000
  C   C27       1.0  0.67140  0.66530  0.00610  1.0000
  C   C28       1.0  0.32860  0.66530  0.49390  1.0000
  C   C29       1.0  0.82860  0.83470  0.99390  1.0000
  C   C30       1.0  0.17140  0.83470  0.50610  1.0000
  C   C31       1.0  0.32860  0.33470  0.99390  1.0000
  C   C32       1.0  0.67140  0.33470  0.50610  1.0000
  H   H25       1.0  0.12860  0.20840  0.97050  1.0000
  H   H26       1.0  0.87140  0.20840  0.52950  1.0000
  H   H27       1.0  0.62860  0.70840  0.97050  1.0000
  H   H28       1.0  0.37140  0.70840  0.52950  1.0000
  H   H29       1.0  0.87140  0.79160  0.02950  1.0000
  H   H30       1.0  0.12860  0.79160  0.47050  1.0000
  H   H31       1.0  0.37140  0.29160  0.02950  1.0000
  H   H32       1.0  0.62860  0.29160  0.47050  1.0000
  C   C33       1.0  0.11440  0.22150  0.17080  1.0000
  C   C34       1.0  0.88560  0.22150  0.32920  1.0000
  C   C35       1.0  0.61440  0.72150  0.17080  1.0000
  C   C36       1.0  0.38560  0.72150  0.32920  1.0000
  C   C37       1.0  0.88560  0.77850  0.82920  1.0000
  C   C38       1.0  0.11440  0.77850  0.67080  1.0000
  C   C39       1.0  0.38560  0.27850  0.82920  1.0000
  C   C40       1.0  0.61440  0.27850  0.67080  1.0000
  C   C41       1.0  0.17720  0.15650  0.11250  1.0000
  C   C42       1.0  0.82280  0.15650  0.38750  1.0000
  C   C43       1.0  0.67720  0.65650  0.11250  1.0000
  C   C44       1.0  0.32280  0.65650  0.38750  1.0000
  C   C45       1.0  0.82280  0.84350  0.88750  1.0000
  C   C46       1.0  0.17720  0.84350  0.61250  1.0000
  C   C47       1.0  0.32280  0.34350  0.88750  1.0000
  C   C48       1.0  0.67720  0.34350  0.61250  1.0000
  C   C49       1.0  0.37270  0.97490  0.17030  1.0000
  C   C50       1.0  0.62730  0.97490  0.32970  1.0000
  C   C51       1.0  0.87270  0.47490  0.17030  1.0000
  C   C52       1.0  0.12730  0.47490  0.32970  1.0000
  C   C53       1.0  0.62730  0.02510  0.82970  1.0000
  C   C54       1.0  0.37270  0.02510  0.67030  1.0000
  C   C55       1.0  0.12730  0.52510  0.82970  1.0000
  C   C56       1.0  0.87270  0.52510  0.67030  1.0000
  C   C57       1.0  0.23160  0.10760  0.95000  1.0000
  C   C58       1.0  0.76840  0.10760  0.55000  1.0000
  C   C59       1.0  0.73160  0.60760  0.95000  1.0000
  C   C60       1.0  0.26840  0.60760  0.55000  1.0000
  C   C61       1.0  0.76840  0.89240  0.05000  1.0000
  C   C62       1.0  0.23160  0.89240  0.45000  1.0000
  C   C63       1.0  0.26840  0.39240  0.05000  1.0000
  C   C64       1.0  0.73160  0.39240  0.45000  1.0000
