data_image0
_chemical_formula_structural       Co4S4O36H8O4H8O4H8N16C4H4C4H4C4H4C4H4C20H4C4H4C4H4C4H4C8H4C8H4C8H4C8
_chemical_formula_sum              "Co4 S4 O44 H68 N16 C80"
_cell_length_a       7.021
_cell_length_b       20.296
_cell_length_c       20.82
_cell_angle_alpha    90
_cell_angle_beta     97.699
_cell_angle_gamma    90

_space_group_name_H-M_alt    "P 1"
_space_group_IT_number       1

loop_
  _space_group_symop_operation_xyz
  'x, y, z'

loop_
  _atom_site_type_symbol
  _atom_site_label
  _atom_site_symmetry_multiplicity
  _atom_site_fract_x
  _atom_site_fract_y
  _atom_site_fract_z
  _atom_site_occupancy
  Co  Co1       1.0  0.13172  0.31198  0.05676  1.0000
  Co  Co2       1.0  0.86828  0.81198  0.44324  1.0000
  Co  Co3       1.0  0.86828  0.68802  0.94324  1.0000
  Co  Co4       1.0  0.13172  0.18802  0.55676  1.0000
  S   S1        1.0  0.97326  0.50884  0.76768  1.0000
  S   S2        1.0  0.02674  0.00884  0.73232  1.0000
  S   S3        1.0  0.02674  0.49116  0.23232  1.0000
  S   S4        1.0  0.97326  0.99116  0.26768  1.0000
  O   O1        1.0  0.03960  0.33575  0.95915  1.0000
  O   O2        1.0  0.96040  0.83575  0.54085  1.0000
  O   O3        1.0  0.96040  0.66425  0.04085  1.0000
  O   O4        1.0  0.03960  0.16425  0.45915  1.0000
  O   O5        1.0  0.91470  0.24152  0.91917  1.0000
  O   O6        1.0  0.08530  0.74152  0.58083  1.0000
  O   O7        1.0  0.08530  0.75848  0.08083  1.0000
  O   O8        1.0  0.91470  0.25848  0.41917  1.0000
  O   O9        1.0  0.74440  0.21677  0.68158  1.0000
  O   O10       1.0  0.25560  0.71677  0.81842  1.0000
  O   O11       1.0  0.25560  0.78323  0.31842  1.0000
  O   O12       1.0  0.74440  0.28323  0.18158  1.0000
  O   O13       1.0  0.71110  0.30483  0.61925  1.0000
  O   O14       1.0  0.28890  0.80483  0.88075  1.0000
  O   O15       1.0  0.28890  0.69517  0.38075  1.0000
  O   O16       1.0  0.71110  0.19517  0.11925  1.0000
  O   O17       1.0  0.10550  0.51172  0.72067  1.0000
  O   O18       1.0  0.89450  0.01172  0.77933  1.0000
  O   O19       1.0  0.89450  0.48828  0.27933  1.0000
  O   O20       1.0  0.10550  0.98828  0.22067  1.0000
  O   O21       1.0  0.79450  0.53993  0.74460  1.0000
  O   O22       1.0  0.20550  0.03993  0.75540  1.0000
  O   O23       1.0  0.20550  0.46007  0.25540  1.0000
  O   O24       1.0  0.79450  0.96007  0.24460  1.0000
  O   O25       1.0  0.05520  0.53272  0.83040  1.0000
  O   O26       1.0  0.94480  0.03272  0.66960  1.0000
  O   O27       1.0  0.94480  0.46728  0.16960  1.0000
  O   O28       1.0  0.05520  0.96728  0.33040  1.0000
  O   O29       1.0  0.55160  0.61273  0.16987  1.0000
  O   O30       1.0  0.44840  0.11273  0.33013  1.0000
  O   O31       1.0  0.44840  0.38727  0.83013  1.0000
  O   O32       1.0  0.55160  0.88727  0.66987  1.0000
  O   O33       1.0  0.89410  0.35727  0.09074  1.0000
  O   O34       1.0  0.10590  0.85727  0.40926  1.0000
  O   O35       1.0  0.10590  0.64273  0.90926  1.0000
  O   O36       1.0  0.89410  0.14273  0.59074  1.0000
  H   H1        1.0  0.92110  0.39260  0.11190  1.0000
  H   H2        1.0  0.07890  0.89260  0.38810  1.0000
  H   H3        1.0  0.07890  0.60740  0.88810  1.0000
  H   H4        1.0  0.92110  0.10740  0.61190  1.0000
  H   H5        1.0  0.83240  0.32870  0.10960  1.0000
  H   H6        1.0  0.16760  0.82870  0.39040  1.0000
  H   H7        1.0  0.16760  0.67130  0.89040  1.0000
  H   H8        1.0  0.83240  0.17130  0.60960  1.0000
  O   O37       1.0  0.39460  0.27218  0.03444  1.0000
  O   O38       1.0  0.60540  0.77218  0.46556  1.0000
  O   O39       1.0  0.60540  0.72782  0.96556  1.0000
  O   O40       1.0  0.39460  0.22782  0.53444  1.0000
  H   H9        1.0  0.44500  0.29640  0.00800  1.0000
  H   H10       1.0  0.55500  0.79640  0.49200  1.0000
  H   H11       1.0  0.55500  0.70360  0.99200  1.0000
  H   H12       1.0  0.44500  0.20360  0.50800  1.0000
  H   H13       1.0  0.47060  0.24780  0.05930  1.0000
  H   H14       1.0  0.52940  0.74780  0.44070  1.0000
  H   H15       1.0  0.52940  0.75220  0.94070  1.0000
  H   H16       1.0  0.47060  0.25220  0.55930  1.0000
  O   O41       1.0  0.98380  0.22078  0.04105  1.0000
  O   O42       1.0  0.01620  0.72078  0.45895  1.0000
  O   O43       1.0  0.01620  0.77922  0.95895  1.0000
  O   O44       1.0  0.98380  0.27922  0.54105  1.0000
  H   H17       1.0  0.89600  0.21270  0.06430  1.0000
  H   H18       1.0  0.10400  0.71270  0.43570  1.0000
  H   H19       1.0  0.10400  0.78730  0.93570  1.0000
  H   H20       1.0  0.89600  0.28730  0.56430  1.0000
  H   H21       1.0  0.94820  0.22170  0.00040  1.0000
  H   H22       1.0  0.05180  0.72170  0.49960  1.0000
  H   H23       1.0  0.05180  0.77830  0.99960  1.0000
  H   H24       1.0  0.94820  0.27830  0.50040  1.0000
  N   N1        1.0  0.27350  0.40691  0.06573  1.0000
  N   N2        1.0  0.72650  0.90691  0.43427  1.0000
  N   N3        1.0  0.72650  0.59309  0.93427  1.0000
  N   N4        1.0  0.27350  0.09309  0.56573  1.0000
  N   N5        1.0  0.49610  0.64993  0.07027  1.0000
  N   N6        1.0  0.50390  0.14993  0.42973  1.0000
  N   N7        1.0  0.50390  0.35007  0.92973  1.0000
  N   N8        1.0  0.49610  0.85007  0.57027  1.0000
  N   N9        1.0  0.56940  0.70173  0.11078  1.0000
  N   N10       1.0  0.43060  0.20173  0.38922  1.0000
  N   N11       1.0  0.43060  0.29827  0.88922  1.0000
  N   N12       1.0  0.56940  0.79827  0.61078  1.0000
  N   N13       1.0  0.78130  0.77238  0.34680  1.0000
  N   N14       1.0  0.21870  0.27238  0.15320  1.0000
  N   N15       1.0  0.21870  0.22762  0.65320  1.0000
  N   N16       1.0  0.78130  0.72762  0.84680  1.0000
  C   C1        1.0  0.47760  0.48125  0.13162  1.0000
  C   C2        1.0  0.52240  0.98125  0.36838  1.0000
  C   C3        1.0  0.52240  0.51875  0.86838  1.0000
  C   C4        1.0  0.47760  0.01875  0.63162  1.0000
  H   H25       1.0  0.56540  0.48800  0.16860  1.0000
  H   H26       1.0  0.43460  0.98800  0.33140  1.0000
  H   H27       1.0  0.43460  0.51200  0.83140  1.0000
  H   H28       1.0  0.56540  0.01200  0.66860  1.0000
  C   C5        1.0  0.40400  0.41968  0.11705  1.0000
  C   C6        1.0  0.59600  0.91968  0.38295  1.0000
  C   C7        1.0  0.59600  0.58032  0.88295  1.0000
  C   C8        1.0  0.40400  0.08032  0.61705  1.0000
  H   H29       1.0  0.44720  0.38500  0.14430  1.0000
  H   H30       1.0  0.55280  0.88500  0.35570  1.0000
  H   H31       1.0  0.55280  0.61500  0.85570  1.0000
  H   H32       1.0  0.44720  0.11500  0.64430  1.0000
  C   C9        1.0  0.22260  0.45739  0.02559  1.0000
  C   C10       1.0  0.77740  0.95739  0.47441  1.0000
  C   C11       1.0  0.77740  0.54261  0.97441  1.0000
  C   C12       1.0  0.22260  0.04261  0.52559  1.0000
  H   H33       1.0  0.13540  0.44920  0.98870  1.0000
  H   H34       1.0  0.86460  0.94920  0.51130  1.0000
  H   H35       1.0  0.86460  0.55080  0.01130  1.0000
  H   H36       1.0  0.13540  0.05080  0.48870  1.0000
  C   C13       1.0  0.29100  0.52038  0.03549  1.0000
  C   C14       1.0  0.70900  0.02038  0.46451  1.0000
  C   C15       1.0  0.70900  0.47962  0.96451  1.0000
  C   C16       1.0  0.29100  0.97962  0.53549  1.0000
  H   H37       1.0  0.25210  0.55370  0.00600  1.0000
  H   H38       1.0  0.74790  0.05370  0.49400  1.0000
  H   H39       1.0  0.74790  0.44630  0.99400  1.0000
  H   H40       1.0  0.25210  0.94630  0.50600  1.0000
  C   C17       1.0  0.41970  0.53307  0.09074  1.0000
  C   C18       1.0  0.58030  0.03307  0.40926  1.0000
  C   C19       1.0  0.58030  0.46693  0.90926  1.0000
  C   C20       1.0  0.41970  0.96693  0.59074  1.0000
  C   C21       1.0  0.48750  0.59945  0.10687  1.0000
  C   C22       1.0  0.51250  0.09945  0.39313  1.0000
  C   C23       1.0  0.51250  0.40055  0.89313  1.0000
  C   C24       1.0  0.48750  0.90055  0.60687  1.0000
  C   C25       1.0  0.59760  0.67749  0.16851  1.0000
  C   C26       1.0  0.40240  0.17749  0.33149  1.0000
  C   C27       1.0  0.40240  0.32251  0.83149  1.0000
  C   C28       1.0  0.59760  0.82251  0.66851  1.0000
  C   C29       1.0  0.66550  0.70994  0.22943  1.0000
  C   C30       1.0  0.33450  0.20994  0.27057  1.0000
  C   C31       1.0  0.33450  0.29006  0.77057  1.0000
  C   C32       1.0  0.66550  0.79006  0.72943  1.0000
  C   C33       1.0  0.72310  0.77495  0.23141  1.0000
  C   C34       1.0  0.27690  0.27495  0.26859  1.0000
  C   C35       1.0  0.27690  0.22505  0.76859  1.0000
  C   C36       1.0  0.72310  0.72505  0.73141  1.0000
  H   H41       1.0  0.72350  0.79880  0.19330  1.0000
  H   H42       1.0  0.27650  0.29880  0.30670  1.0000
  H   H43       1.0  0.27650  0.20120  0.80670  1.0000
  H   H44       1.0  0.72350  0.70120  0.69330  1.0000
  C   C37       1.0  0.77990  0.80406  0.29052  1.0000
  C   C38       1.0  0.22010  0.30406  0.20948  1.0000
  C   C39       1.0  0.22010  0.19594  0.70948  1.0000
  C   C40       1.0  0.77990  0.69594  0.79052  1.0000
  H   H45       1.0  0.81930  0.84780  0.29130  1.0000
  H   H46       1.0  0.18070  0.34780  0.20870  1.0000
  H   H47       1.0  0.18070  0.15220  0.70870  1.0000
  H   H48       1.0  0.81930  0.65220  0.79130  1.0000
  C   C41       1.0  0.72670  0.70928  0.34384  1.0000
  C   C42       1.0  0.27330  0.20928  0.15616  1.0000
  C   C43       1.0  0.27330  0.29072  0.65616  1.0000
  C   C44       1.0  0.72670  0.79072  0.84384  1.0000
  H   H49       1.0  0.72770  0.68650  0.38260  1.0000
  H   H50       1.0  0.27230  0.18650  0.11740  1.0000
  H   H51       1.0  0.27230  0.31350  0.61740  1.0000
  H   H52       1.0  0.72770  0.81350  0.88260  1.0000
  C   C45       1.0  0.66940  0.67605  0.28747  1.0000
  C   C46       1.0  0.33060  0.17605  0.21253  1.0000
  C   C47       1.0  0.33060  0.32395  0.71253  1.0000
  C   C48       1.0  0.66940  0.82395  0.78747  1.0000
  H   H53       1.0  0.63400  0.63190  0.28800  1.0000
  H   H54       1.0  0.36600  0.13190  0.21200  1.0000
  H   H55       1.0  0.36600  0.36810  0.71200  1.0000
  H   H56       1.0  0.63400  0.86810  0.78800  1.0000
  C   C49       1.0  0.92120  0.33082  0.84731  1.0000
  C   C50       1.0  0.07880  0.83082  0.65269  1.0000
  C   C51       1.0  0.07880  0.66918  0.15269  1.0000
  C   C52       1.0  0.92120  0.16918  0.34731  1.0000
  C   C53       1.0  0.85170  0.29251  0.79390  1.0000
  C   C54       1.0  0.14830  0.79251  0.70610  1.0000
  C   C55       1.0  0.14830  0.70749  0.20610  1.0000
  C   C56       1.0  0.85170  0.20749  0.29390  1.0000
  H   H57       1.0  0.82670  0.24800  0.79950  1.0000
  H   H58       1.0  0.17330  0.74800  0.70050  1.0000
  H   H59       1.0  0.17330  0.75200  0.20050  1.0000
  H   H60       1.0  0.82670  0.25200  0.29950  1.0000
  C   C57       1.0  0.81900  0.31991  0.73209  1.0000
  C   C58       1.0  0.18100  0.81991  0.76791  1.0000
  C   C59       1.0  0.18100  0.68009  0.26791  1.0000
  C   C60       1.0  0.81900  0.18009  0.23209  1.0000
  C   C61       1.0  0.85680  0.38611  0.72438  1.0000
  C   C62       1.0  0.14320  0.88611  0.77562  1.0000
  C   C63       1.0  0.14320  0.61389  0.27562  1.0000
  C   C64       1.0  0.85680  0.11389  0.22438  1.0000
  H   H61       1.0  0.83590  0.40510  0.68340  1.0000
  H   H62       1.0  0.16410  0.90510  0.81660  1.0000
  H   H63       1.0  0.16410  0.59490  0.31660  1.0000
  H   H64       1.0  0.83590  0.09490  0.18340  1.0000
  C   C65       1.0  0.92590  0.42418  0.77776  1.0000
  C   C66       1.0  0.07410  0.92418  0.72224  1.0000
  C   C67       1.0  0.07410  0.57582  0.22224  1.0000
  C   C68       1.0  0.92590  0.07582  0.27776  1.0000
  C   C69       1.0  0.95850  0.39682  0.83879  1.0000
  C   C70       1.0  0.04150  0.89682  0.66121  1.0000
  C   C71       1.0  0.04150  0.60318  0.16121  1.0000
  C   C72       1.0  0.95850  0.10318  0.33879  1.0000
  H   H65       1.0  0.00550  0.42280  0.87420  1.0000
  H   H66       1.0  0.99450  0.92280  0.62580  1.0000
  H   H67       1.0  0.99450  0.57720  0.12580  1.0000
  H   H68       1.0  0.00550  0.07720  0.37420  1.0000
  C   C73       1.0  0.96080  0.30037  0.91396  1.0000
  C   C74       1.0  0.03920  0.80037  0.58604  1.0000
  C   C75       1.0  0.03920  0.69963  0.08604  1.0000
  C   C76       1.0  0.96080  0.19963  0.41396  1.0000
  C   C77       1.0  0.75250  0.27713  0.67359  1.0000
  C   C78       1.0  0.24750  0.77713  0.82641  1.0000
  C   C79       1.0  0.24750  0.72287  0.32641  1.0000
  C   C80       1.0  0.75250  0.22287  0.17359  1.0000
