data_image0
_chemical_formula_structural       Mn8O48C24
_chemical_formula_sum              "Mn8 O48 C24"
_cell_length_a       9.756
_cell_length_b       16.743
_cell_length_c       15.42
_cell_angle_alpha    90
_cell_angle_beta     97.53
_cell_angle_gamma    90

_space_group_name_H-M_alt    "P 1"
_space_group_IT_number       1

loop_
  _space_group_symop_operation_xyz
  'x, y, z'

loop_
  _atom_site_type_symbol
  _atom_site_label
  _atom_site_symmetry_multiplicity
  _atom_site_fract_x
  _atom_site_fract_y
  _atom_site_fract_z
  _atom_site_occupancy
  Mn  Mn1       1.0  0.46967  0.09959  0.28142  1.0000
  Mn  Mn2       1.0  0.03033  0.59959  0.21858  1.0000
  Mn  Mn3       1.0  0.53033  0.90041  0.71858  1.0000
  Mn  Mn4       1.0  0.96967  0.40041  0.78142  1.0000
  Mn  Mn5       1.0  0.53332  0.77122  0.21333  1.0000
  Mn  Mn6       1.0  0.96668  0.27122  0.28667  1.0000
  Mn  Mn7       1.0  0.46668  0.22878  0.78667  1.0000
  Mn  Mn8       1.0  0.03332  0.72878  0.71333  1.0000
  O   O1        1.0  0.32280  0.75862  0.14567  1.0000
  O   O2        1.0  0.17720  0.25862  0.35433  1.0000
  O   O3        1.0  0.67720  0.24138  0.85433  1.0000
  O   O4        1.0  0.82280  0.74138  0.64567  1.0000
  O   O5        1.0  0.56250  0.19500  0.21419  1.0000
  O   O6        1.0  0.93750  0.69500  0.28581  1.0000
  O   O7        1.0  0.43750  0.80500  0.78581  1.0000
  O   O8        1.0  0.06250  0.30500  0.71419  1.0000
  O   O9        1.0  0.67030  0.11806  0.36000  1.0000
  O   O10       1.0  0.82970  0.61806  0.14000  1.0000
  O   O11       1.0  0.32970  0.88194  0.64000  1.0000
  O   O12       1.0  0.17030  0.38194  0.86000  1.0000
  O   O13       1.0  0.75920  0.26212  0.21564  1.0000
  O   O14       1.0  0.74080  0.76212  0.28436  1.0000
  O   O15       1.0  0.24080  0.73788  0.78436  1.0000
  O   O16       1.0  0.25920  0.23788  0.71564  1.0000
  O   O17       1.0  0.13200  0.68502  0.14341  1.0000
  O   O18       1.0  0.36800  0.18502  0.35659  1.0000
  O   O19       1.0  0.86800  0.31498  0.85659  1.0000
  O   O20       1.0  0.63200  0.81498  0.64341  1.0000
  O   O21       1.0  0.49180  0.85481  0.31468  1.0000
  O   O22       1.0  0.00820  0.35481  0.18532  1.0000
  O   O23       1.0  0.50820  0.14519  0.68532  1.0000
  O   O24       1.0  0.99180  0.64519  0.81468  1.0000
  O   O25       1.0  0.46480  0.98411  0.34049  1.0000
  O   O26       1.0  0.03520  0.48411  0.15951  1.0000
  O   O27       1.0  0.53520  0.01589  0.65951  1.0000
  O   O28       1.0  0.96480  0.51589  0.84049  1.0000
  O   O29       1.0  0.85910  0.19360  0.36658  1.0000
  O   O30       1.0  0.64090  0.69360  0.13342  1.0000
  O   O31       1.0  0.14090  0.80640  0.63342  1.0000
  O   O32       1.0  0.35910  0.30640  0.86658  1.0000
  O   O33       1.0  0.53820  0.88740  0.15185  1.0000
  O   O34       1.0  0.96180  0.38740  0.34815  1.0000
  O   O35       1.0  0.46180  0.11260  0.84815  1.0000
  O   O36       1.0  0.03820  0.61260  0.65185  1.0000
  O   O37       1.0  0.50940  0.01719  0.17605  1.0000
  O   O38       1.0  0.99060  0.51719  0.32395  1.0000
  O   O39       1.0  0.49060  0.98281  0.82395  1.0000
  O   O40       1.0  0.00940  0.48281  0.67605  1.0000
  O   O41       1.0  0.44010  0.67531  0.28433  1.0000
  O   O42       1.0  0.05990  0.17531  0.21567  1.0000
  O   O43       1.0  0.55990  0.32469  0.71567  1.0000
  O   O44       1.0  0.94010  0.82469  0.78433  1.0000
  O   O45       1.0  0.24460  0.60826  0.28778  1.0000
  O   O46       1.0  0.25540  0.10826  0.21222  1.0000
  O   O47       1.0  0.75540  0.39174  0.71222  1.0000
  O   O48       1.0  0.74460  0.89174  0.78778  1.0000
  C   C1        1.0  0.31800  0.65900  0.25600  1.0000
  C   C2        1.0  0.18200  0.15900  0.24400  1.0000
  C   C3        1.0  0.68200  0.34100  0.74400  1.0000
  C   C4        1.0  0.81800  0.84100  0.75600  1.0000
  C   C5        1.0  0.68240  0.21330  0.24650  1.0000
  C   C6        1.0  0.81760  0.71330  0.25350  1.0000
  C   C7        1.0  0.31760  0.78670  0.75350  1.0000
  C   C8        1.0  0.18240  0.28670  0.74650  1.0000
  C   C9        1.0  0.74320  0.17110  0.33250  1.0000
  C   C10       1.0  0.75680  0.67110  0.16750  1.0000
  C   C11       1.0  0.25680  0.82890  0.66750  1.0000
  C   C12       1.0  0.24320  0.32890  0.83250  1.0000
  C   C13       1.0  0.48880  0.92650  0.29310  1.0000
  C   C14       1.0  0.01120  0.42650  0.20690  1.0000
  C   C15       1.0  0.51120  0.07350  0.70690  1.0000
  C   C16       1.0  0.98880  0.57350  0.79310  1.0000
  C   C17       1.0  0.25130  0.70510  0.17430  1.0000
  C   C18       1.0  0.24870  0.20510  0.32570  1.0000
  C   C19       1.0  0.74870  0.29490  0.82570  1.0000
  C   C20       1.0  0.75130  0.79490  0.67430  1.0000
  C   C21       1.0  0.51630  0.94540  0.19880  1.0000
  C   C22       1.0  0.98370  0.44540  0.30120  1.0000
  C   C23       1.0  0.48370  0.05460  0.80120  1.0000
  C   C24       1.0  0.01630  0.55460  0.69880  1.0000
