data_image0
_chemical_formula_structural       Cd4O28H4O8H4O4H4C12H4C8H4C8H4C16H4C8H4C8H4C4
_chemical_formula_sum              "Cd4 O40 H36 C64"
_cell_length_a       14.141
_cell_length_b       14.517
_cell_length_c       13.029
_cell_angle_alpha    90
_cell_angle_beta     99.737
_cell_angle_gamma    90

_space_group_name_H-M_alt    "P 1"
_space_group_IT_number       1

loop_
  _space_group_symop_operation_xyz
  'x, y, z'

loop_
  _atom_site_type_symbol
  _atom_site_label
  _atom_site_symmetry_multiplicity
  _atom_site_fract_x
  _atom_site_fract_y
  _atom_site_fract_z
  _atom_site_occupancy
  Cd  Cd1       1.0  0.63919  0.83978  0.56949  1.0000
  Cd  Cd2       1.0  0.63919  0.16022  0.06949  1.0000
  Cd  Cd3       1.0  0.13919  0.33978  0.56949  1.0000
  Cd  Cd4       1.0  0.13919  0.66022  0.06949  1.0000
  O   O1        1.0  0.69640  0.77080  0.42820  1.0000
  O   O2        1.0  0.69640  0.22920  0.92820  1.0000
  O   O3        1.0  0.19640  0.27080  0.42820  1.0000
  O   O4        1.0  0.19640  0.72920  0.92820  1.0000
  O   O5        1.0  0.77180  0.72420  0.57890  1.0000
  O   O6        1.0  0.77180  0.27580  0.07890  1.0000
  O   O7        1.0  0.27180  0.22420  0.57890  1.0000
  O   O8        1.0  0.27180  0.77580  0.07890  1.0000
  O   O9        1.0  0.00230  0.45380  0.57820  1.0000
  O   O10       1.0  0.00230  0.54620  0.07820  1.0000
  O   O11       1.0  0.50230  0.95380  0.57820  1.0000
  O   O12       1.0  0.50230  0.04620  0.07820  1.0000
  O   O13       1.0  0.05700  0.42660  0.43380  1.0000
  O   O14       1.0  0.05700  0.57340  0.93380  1.0000
  O   O15       1.0  0.55700  0.92660  0.43380  1.0000
  O   O16       1.0  0.55700  0.07340  0.93380  1.0000
  O   O17       1.0  0.59230  0.77110  0.71660  1.0000
  O   O18       1.0  0.59230  0.22890  0.21660  1.0000
  O   O19       1.0  0.09230  0.27110  0.71660  1.0000
  O   O20       1.0  0.09230  0.72890  0.21660  1.0000
  O   O21       1.0  0.52610  0.71290  0.56370  1.0000
  O   O22       1.0  0.52610  0.28710  0.06370  1.0000
  O   O23       1.0  0.02610  0.21290  0.56370  1.0000
  O   O24       1.0  0.02610  0.78710  0.06370  1.0000
  O   O25       1.0  0.23110  0.42100  0.70280  1.0000
  O   O26       1.0  0.23110  0.57900  0.20280  1.0000
  O   O27       1.0  0.73110  0.92100  0.70280  1.0000
  O   O28       1.0  0.73110  0.07900  0.20280  1.0000
  H   H1        1.0  0.22950  0.41870  0.77380  1.0000
  H   H2        1.0  0.22950  0.58130  0.27380  1.0000
  H   H3        1.0  0.72950  0.91870  0.77380  1.0000
  H   H4        1.0  0.72950  0.08130  0.27380  1.0000
  O   O29       1.0  0.28210  0.45920  0.55860  1.0000
  O   O30       1.0  0.28210  0.54080  0.05860  1.0000
  O   O31       1.0  0.78210  0.95920  0.55860  1.0000
  O   O32       1.0  0.78210  0.04080  0.05860  1.0000
  O   O33       1.0  0.86950  0.64150  0.16460  1.0000
  O   O34       1.0  0.86950  0.35850  0.66460  1.0000
  O   O35       1.0  0.36950  0.14150  0.16460  1.0000
  O   O36       1.0  0.36950  0.85850  0.66460  1.0000
  H   H5        1.0  0.91030  0.61200  0.14090  1.0000
  H   H6        1.0  0.91030  0.38800  0.64090  1.0000
  H   H7        1.0  0.41030  0.11200  0.14090  1.0000
  H   H8        1.0  0.41030  0.88800  0.64090  1.0000
  O   O37       1.0  0.42080  0.62470  0.97960  1.0000
  O   O38       1.0  0.42080  0.37530  0.47960  1.0000
  O   O39       1.0  0.92080  0.12470  0.97960  1.0000
  O   O40       1.0  0.92080  0.87530  0.47960  1.0000
  H   H9        1.0  0.37650  0.59720  0.99940  1.0000
  H   H10       1.0  0.37650  0.40280  0.49940  1.0000
  H   H11       1.0  0.87650  0.09720  0.99940  1.0000
  H   H12       1.0  0.87650  0.90280  0.49940  1.0000
  C   C1        1.0  0.76010  0.72100  0.48390  1.0000
  C   C2        1.0  0.76010  0.27900  0.98390  1.0000
  C   C3        1.0  0.26010  0.22100  0.48390  1.0000
  C   C4        1.0  0.26010  0.77900  0.98390  1.0000
  C   C5        1.0  0.82360  0.66190  0.42830  1.0000
  C   C6        1.0  0.82360  0.33810  0.92830  1.0000
  C   C7        1.0  0.32360  0.16190  0.42830  1.0000
  C   C8        1.0  0.32360  0.83810  0.92830  1.0000
  C   C9        1.0  0.81890  0.67370  0.31850  1.0000
  C   C10       1.0  0.81890  0.32630  0.81850  1.0000
  C   C11       1.0  0.31890  0.17370  0.31850  1.0000
  C   C12       1.0  0.31890  0.82630  0.81850  1.0000
  H   H13       1.0  0.77710  0.71670  0.28250  1.0000
  H   H14       1.0  0.77710  0.28330  0.78250  1.0000
  H   H15       1.0  0.27710  0.21670  0.28250  1.0000
  H   H16       1.0  0.27710  0.78330  0.78250  1.0000
  C   C13       1.0  0.87530  0.62190  0.26730  1.0000
  C   C14       1.0  0.87530  0.37810  0.76730  1.0000
  C   C15       1.0  0.37530  0.12190  0.26730  1.0000
  C   C16       1.0  0.37530  0.87810  0.76730  1.0000
  C   C17       1.0  0.93530  0.55670  0.32060  1.0000
  C   C18       1.0  0.93530  0.44330  0.82060  1.0000
  C   C19       1.0  0.43530  0.05670  0.32060  1.0000
  C   C20       1.0  0.43530  0.94330  0.82060  1.0000
  H   H17       1.0  0.97620  0.52380  0.28510  1.0000
  H   H18       1.0  0.97620  0.47620  0.78510  1.0000
  H   H19       1.0  0.47620  0.02380  0.28510  1.0000
  H   H20       1.0  0.47620  0.97620  0.78510  1.0000
  C   C21       1.0  0.93700  0.53850  0.42590  1.0000
  C   C22       1.0  0.93700  0.46150  0.92590  1.0000
  C   C23       1.0  0.43700  0.03850  0.42590  1.0000
  C   C24       1.0  0.43700  0.96150  0.92590  1.0000
  C   C25       1.0  0.87990  0.59490  0.48140  1.0000
  C   C26       1.0  0.87990  0.40510  0.98140  1.0000
  C   C27       1.0  0.37990  0.09490  0.48140  1.0000
  C   C28       1.0  0.37990  0.90510  0.98140  1.0000
  H   H21       1.0  0.88090  0.58620  0.55230  1.0000
  H   H22       1.0  0.88090  0.41380  0.05230  1.0000
  H   H23       1.0  0.38090  0.08620  0.55230  1.0000
  H   H24       1.0  0.38090  0.91380  0.05230  1.0000
  C   C29       1.0  0.00020  0.46670  0.48250  1.0000
  C   C30       1.0  0.00020  0.53330  0.98250  1.0000
  C   C31       1.0  0.50020  0.96670  0.48250  1.0000
  C   C32       1.0  0.50020  0.03330  0.98250  1.0000
  C   C33       1.0  0.53640  0.71780  0.66480  1.0000
  C   C34       1.0  0.53640  0.28220  0.16480  1.0000
  C   C35       1.0  0.03640  0.21780  0.66480  1.0000
  C   C36       1.0  0.03640  0.78220  0.16480  1.0000
  C   C37       1.0  0.47770  0.65420  0.71970  1.0000
  C   C38       1.0  0.47770  0.34580  0.21970  1.0000
  C   C39       1.0  0.97770  0.15420  0.71970  1.0000
  C   C40       1.0  0.97770  0.84580  0.21970  1.0000
  C   C41       1.0  0.47630  0.66640  0.82240  1.0000
  C   C42       1.0  0.47630  0.33360  0.32240  1.0000
  C   C43       1.0  0.97630  0.16640  0.82240  1.0000
  C   C44       1.0  0.97630  0.83360  0.32240  1.0000
  H   H25       1.0  0.51610  0.71070  0.85880  1.0000
  H   H26       1.0  0.51610  0.28930  0.35880  1.0000
  H   H27       1.0  0.01610  0.21070  0.85880  1.0000
  H   H28       1.0  0.01610  0.78930  0.35880  1.0000
  C   C45       1.0  0.41520  0.61310  0.87660  1.0000
  C   C46       1.0  0.41520  0.38690  0.37660  1.0000
  C   C47       1.0  0.91520  0.11310  0.87660  1.0000
  C   C48       1.0  0.91520  0.88690  0.37660  1.0000
  C   C49       1.0  0.35320  0.54750  0.82070  1.0000
  C   C50       1.0  0.35320  0.45250  0.32070  1.0000
  C   C51       1.0  0.85320  0.04750  0.82070  1.0000
  C   C52       1.0  0.85320  0.95250  0.32070  1.0000
  H   H29       1.0  0.31320  0.51130  0.85380  1.0000
  H   H30       1.0  0.31320  0.48870  0.35380  1.0000
  H   H31       1.0  0.81320  0.01130  0.85380  1.0000
  H   H32       1.0  0.81320  0.98870  0.35380  1.0000
  C   C53       1.0  0.35370  0.53860  0.71370  1.0000
  C   C54       1.0  0.35370  0.46140  0.21370  1.0000
  C   C55       1.0  0.85370  0.03860  0.71370  1.0000
  C   C56       1.0  0.85370  0.96140  0.21370  1.0000
  C   C57       1.0  0.41530  0.58750  0.66540  1.0000
  C   C58       1.0  0.41530  0.41250  0.16540  1.0000
  C   C59       1.0  0.91530  0.08750  0.66540  1.0000
  C   C60       1.0  0.91530  0.91250  0.16540  1.0000
  H   H33       1.0  0.41650  0.57700  0.59520  1.0000
  H   H34       1.0  0.41650  0.42300  0.09520  1.0000
  H   H35       1.0  0.91650  0.07700  0.59520  1.0000
  H   H36       1.0  0.91650  0.92300  0.09520  1.0000
  C   C61       1.0  0.28470  0.47000  0.65460  1.0000
  C   C62       1.0  0.28470  0.53000  0.15460  1.0000
  C   C63       1.0  0.78470  0.97000  0.65460  1.0000
  C   C64       1.0  0.78470  0.03000  0.15460  1.0000
