data_image0
_chemical_formula_structural       Cd4S4O4C4Li4S4O4C4O4C4H4O4C4H4O4C4O4C4H4O4C4H4O4C4O4C4O4C4H4O4C4H4O4C8H4C4H4C12H4C4H4C8H4C4H4C12H4C4H4C8H4C4H4
_chemical_formula_sum              "Cd4 S8 O48 C112 Li4 H64"
_cell_length_a       27.07
_cell_length_b       6.347
_cell_length_c       25.67
_cell_angle_alpha    90
_cell_angle_beta     107.93
_cell_angle_gamma    90

_space_group_name_H-M_alt    "P 1"
_space_group_IT_number       1

loop_
  _space_group_symop_operation_xyz
  'x, y, z'

loop_
  _atom_site_type_symbol
  _atom_site_label
  _atom_site_symmetry_multiplicity
  _atom_site_fract_x
  _atom_site_fract_y
  _atom_site_fract_z
  _atom_site_occupancy
  Cd  Cd1       1.0  0.22728  0.97632  0.42322  1.0000
  Cd  Cd2       1.0  0.22728  0.02368  0.92322  1.0000
  Cd  Cd3       1.0  0.72728  0.47632  0.42322  1.0000
  Cd  Cd4       1.0  0.72728  0.52368  0.92322  1.0000
  S   S1        1.0  0.04198  0.56080  0.11732  1.0000
  S   S2        1.0  0.04198  0.43920  0.61732  1.0000
  S   S3        1.0  0.54198  0.06080  0.11732  1.0000
  S   S4        1.0  0.54198  0.93920  0.61732  1.0000
  O   O1        1.0  0.16320  0.97230  0.33390  1.0000
  O   O2        1.0  0.16320  0.02770  0.83390  1.0000
  O   O3        1.0  0.66320  0.47230  0.33390  1.0000
  O   O4        1.0  0.66320  0.52770  0.83390  1.0000
  C   C1        1.0  0.16490  0.15800  0.33280  1.0000
  C   C2        1.0  0.16490  0.84200  0.83280  1.0000
  C   C3        1.0  0.66490  0.65800  0.33280  1.0000
  C   C4        1.0  0.66490  0.34200  0.83280  1.0000
  Li  Li1       1.0  0.22660  0.47710  0.42420  1.0000
  Li  Li2       1.0  0.22660  0.52290  0.92420  1.0000
  Li  Li3       1.0  0.72660  0.97710  0.42420  1.0000
  Li  Li4       1.0  0.72660  0.02290  0.92420  1.0000
  S   S5        1.0  0.41383  0.56040  0.73096  1.0000
  S   S6        1.0  0.41383  0.43960  0.23096  1.0000
  S   S7        1.0  0.91383  0.06040  0.73096  1.0000
  S   S8        1.0  0.91383  0.93960  0.23096  1.0000
  O   O5        1.0  0.19000  0.27520  0.36930  1.0000
  O   O6        1.0  0.19000  0.72480  0.86930  1.0000
  O   O7        1.0  0.69000  0.77520  0.36930  1.0000
  O   O8        1.0  0.69000  0.22480  0.86930  1.0000
  C   C5        1.0  0.13080  0.27340  0.27750  1.0000
  C   C6        1.0  0.13080  0.72660  0.77750  1.0000
  C   C7        1.0  0.63080  0.77340  0.27750  1.0000
  C   C8        1.0  0.63080  0.22660  0.77750  1.0000
  O   O9        1.0  0.29390  0.96980  0.51240  1.0000
  O   O10       1.0  0.29390  0.03020  0.01240  1.0000
  O   O11       1.0  0.79390  0.46980  0.51240  1.0000
  O   O12       1.0  0.79390  0.53020  0.01240  1.0000
  C   C9        1.0  0.14230  0.47120  0.26440  1.0000
  C   C10       1.0  0.14230  0.52880  0.76440  1.0000
  C   C11       1.0  0.64230  0.97120  0.26440  1.0000
  C   C12       1.0  0.64230  0.02880  0.76440  1.0000
  H   H1        1.0  0.16950  0.54560  0.28840  1.0000
  H   H2        1.0  0.16950  0.45440  0.78840  1.0000
  H   H3        1.0  0.66950  0.04560  0.28840  1.0000
  H   H4        1.0  0.66950  0.95440  0.78840  1.0000
  O   O13       1.0  0.26590  0.29130  0.47760  1.0000
  O   O14       1.0  0.26590  0.70870  0.97760  1.0000
  O   O15       1.0  0.76590  0.79130  0.47760  1.0000
  O   O16       1.0  0.76590  0.20870  0.97760  1.0000
  C   C13       1.0  0.11400  0.56030  0.21630  1.0000
  C   C14       1.0  0.11400  0.43970  0.71630  1.0000
  C   C15       1.0  0.61400  0.06030  0.21630  1.0000
  C   C16       1.0  0.61400  0.93970  0.71630  1.0000
  H   H5        1.0  0.12190  0.69560  0.20740  1.0000
  H   H6        1.0  0.12190  0.30440  0.70740  1.0000
  H   H7        1.0  0.62190  0.19560  0.20740  1.0000
  H   H8        1.0  0.62190  0.80440  0.70740  1.0000
  O   O17       1.0  0.99030  0.46900  0.10020  1.0000
  O   O18       1.0  0.99030  0.53100  0.60020  1.0000
  O   O19       1.0  0.49030  0.96900  0.10020  1.0000
  O   O20       1.0  0.49030  0.03100  0.60020  1.0000
  C   C17       1.0  0.07430  0.45140  0.18120  1.0000
  C   C18       1.0  0.07430  0.54860  0.68120  1.0000
  C   C19       1.0  0.57430  0.95140  0.18120  1.0000
  C   C20       1.0  0.57430  0.04860  0.68120  1.0000
  O   O21       1.0  0.04910  0.78640  0.12140  1.0000
  O   O22       1.0  0.04910  0.21360  0.62140  1.0000
  O   O23       1.0  0.54910  0.28640  0.12140  1.0000
  O   O24       1.0  0.54910  0.71360  0.62140  1.0000
  C   C21       1.0  0.06280  0.25370  0.19430  1.0000
  C   C22       1.0  0.06280  0.74630  0.69430  1.0000
  C   C23       1.0  0.56280  0.75370  0.19430  1.0000
  C   C24       1.0  0.56280  0.24630  0.69430  1.0000
  H   H9        1.0  0.03560  0.17930  0.17030  1.0000
  H   H10       1.0  0.03560  0.82070  0.67030  1.0000
  H   H11       1.0  0.53560  0.67930  0.17030  1.0000
  H   H12       1.0  0.53560  0.32070  0.67030  1.0000
  O   O25       1.0  0.28690  0.02680  0.87190  1.0000
  O   O26       1.0  0.28690  0.97320  0.37190  1.0000
  O   O27       1.0  0.78690  0.52680  0.87190  1.0000
  O   O28       1.0  0.78690  0.47320  0.37190  1.0000
  C   C25       1.0  0.09110  0.16460  0.24240  1.0000
  C   C26       1.0  0.09110  0.83540  0.74240  1.0000
  C   C27       1.0  0.59110  0.66460  0.24240  1.0000
  C   C28       1.0  0.59110  0.33540  0.74240  1.0000
  H   H13       1.0  0.08320  0.02940  0.25130  1.0000
  H   H14       1.0  0.08320  0.97060  0.75130  1.0000
  H   H15       1.0  0.58320  0.52940  0.25130  1.0000
  H   H16       1.0  0.58320  0.47060  0.75130  1.0000
  O   O29       1.0  0.26510  0.33290  0.89230  1.0000
  O   O30       1.0  0.26510  0.66710  0.39230  1.0000
  O   O31       1.0  0.76510  0.83290  0.89230  1.0000
  O   O32       1.0  0.76510  0.16710  0.39230  1.0000
  C   C29       1.0  0.29390  0.17360  0.51790  1.0000
  C   C30       1.0  0.29390  0.82640  0.01790  1.0000
  C   C31       1.0  0.79390  0.67360  0.51790  1.0000
  C   C32       1.0  0.79390  0.32640  0.01790  1.0000
  O   O33       1.0  0.15990  0.01610  0.96220  1.0000
  O   O34       1.0  0.15990  0.98390  0.46220  1.0000
  O   O35       1.0  0.65990  0.51610  0.96220  1.0000
  O   O36       1.0  0.65990  0.48390  0.46220  1.0000
  C   C33       1.0  0.32410  0.26850  0.56570  1.0000
  C   C34       1.0  0.32410  0.73150  0.06570  1.0000
  C   C35       1.0  0.82410  0.76850  0.56570  1.0000
  C   C36       1.0  0.82410  0.23150  0.06570  1.0000
  O   O37       1.0  0.18980  0.34240  0.95630  1.0000
  O   O38       1.0  0.18980  0.65760  0.45630  1.0000
  O   O39       1.0  0.68980  0.84240  0.95630  1.0000
  O   O40       1.0  0.68980  0.15760  0.45630  1.0000
  C   C37       1.0  0.36400  0.15240  0.60390  1.0000
  C   C38       1.0  0.36400  0.84760  0.10390  1.0000
  C   C39       1.0  0.86400  0.65240  0.60390  1.0000
  C   C40       1.0  0.86400  0.34760  0.10390  1.0000
  H   H17       1.0  0.37150  0.01570  0.59570  1.0000
  H   H18       1.0  0.37150  0.98430  0.09570  1.0000
  H   H19       1.0  0.87150  0.51570  0.59570  1.0000
  H   H20       1.0  0.87150  0.48430  0.09570  1.0000
  O   O41       1.0  0.46430  0.47340  0.75010  1.0000
  O   O42       1.0  0.46430  0.52660  0.25010  1.0000
  O   O43       1.0  0.96430  0.97340  0.75010  1.0000
  O   O44       1.0  0.96430  0.02660  0.25010  1.0000
  C   C41       1.0  0.39240  0.24510  0.65480  1.0000
  C   C42       1.0  0.39240  0.75490  0.15480  1.0000
  C   C43       1.0  0.89240  0.74510  0.65480  1.0000
  C   C44       1.0  0.89240  0.25490  0.15480  1.0000
  H   H21       1.0  0.41840  0.16920  0.67980  1.0000
  H   H22       1.0  0.41840  0.83080  0.17980  1.0000
  H   H23       1.0  0.91840  0.66920  0.67980  1.0000
  H   H24       1.0  0.91840  0.33080  0.17980  1.0000
  O   O45       1.0  0.40800  0.78720  0.72820  1.0000
  O   O46       1.0  0.40800  0.21280  0.22820  1.0000
  O   O47       1.0  0.90800  0.28720  0.72820  1.0000
  O   O48       1.0  0.90800  0.71280  0.22820  1.0000
  C   C45       1.0  0.38080  0.45410  0.66730  1.0000
  C   C46       1.0  0.38080  0.54590  0.16730  1.0000
  C   C47       1.0  0.88080  0.95410  0.66730  1.0000
  C   C48       1.0  0.88080  0.04590  0.16730  1.0000
  C   C49       1.0  0.34100  0.57030  0.62900  1.0000
  C   C50       1.0  0.34100  0.42970  0.12900  1.0000
  C   C51       1.0  0.84100  0.07030  0.62900  1.0000
  C   C52       1.0  0.84100  0.92970  0.12900  1.0000
  H   H25       1.0  0.33340  0.70690  0.63720  1.0000
  H   H26       1.0  0.33340  0.29310  0.13720  1.0000
  H   H27       1.0  0.83340  0.20690  0.63720  1.0000
  H   H28       1.0  0.83340  0.79310  0.13720  1.0000
  C   C53       1.0  0.31260  0.47740  0.57820  1.0000
  C   C54       1.0  0.31260  0.52260  0.07820  1.0000
  C   C55       1.0  0.81260  0.97740  0.57820  1.0000
  C   C56       1.0  0.81260  0.02260  0.07820  1.0000
  H   H29       1.0  0.28650  0.55350  0.55320  1.0000
  H   H30       1.0  0.28650  0.44650  0.05320  1.0000
  H   H31       1.0  0.78650  0.05350  0.55320  1.0000
  H   H32       1.0  0.78650  0.94650  0.05320  1.0000
  C   C57       1.0  0.29400  0.22700  0.87130  1.0000
  C   C58       1.0  0.29400  0.77300  0.37130  1.0000
  C   C59       1.0  0.79400  0.72700  0.87130  1.0000
  C   C60       1.0  0.79400  0.27300  0.37130  1.0000
  C   C61       1.0  0.32070  0.31240  0.83770  1.0000
  C   C62       1.0  0.32070  0.68760  0.33770  1.0000
  C   C63       1.0  0.82070  0.81240  0.83770  1.0000
  C   C64       1.0  0.82070  0.18760  0.33770  1.0000
  C   C65       1.0  0.35660  0.18290  0.82390  1.0000
  C   C66       1.0  0.35660  0.81710  0.32390  1.0000
  C   C67       1.0  0.85660  0.68290  0.82390  1.0000
  C   C68       1.0  0.85660  0.31710  0.32390  1.0000
  H   H33       1.0  0.36130  0.04440  0.83620  1.0000
  H   H34       1.0  0.36130  0.95560  0.33620  1.0000
  H   H35       1.0  0.86130  0.54440  0.83620  1.0000
  H   H36       1.0  0.86130  0.45560  0.33620  1.0000
  C   C69       1.0  0.38570  0.26210  0.79140  1.0000
  C   C70       1.0  0.38570  0.73790  0.29140  1.0000
  C   C71       1.0  0.88570  0.76210  0.79140  1.0000
  C   C72       1.0  0.88570  0.23790  0.29140  1.0000
  H   H37       1.0  0.40960  0.17620  0.78220  1.0000
  H   H38       1.0  0.40960  0.82380  0.28220  1.0000
  H   H39       1.0  0.90960  0.67620  0.78220  1.0000
  H   H40       1.0  0.90960  0.32380  0.28220  1.0000
  C   C73       1.0  0.37860  0.47080  0.77280  1.0000
  C   C74       1.0  0.37860  0.52920  0.27280  1.0000
  C   C75       1.0  0.87860  0.97080  0.77280  1.0000
  C   C76       1.0  0.87860  0.02920  0.27280  1.0000
  C   C77       1.0  0.34270  0.60030  0.78660  1.0000
  C   C78       1.0  0.34270  0.39970  0.28660  1.0000
  C   C79       1.0  0.84270  0.10030  0.78660  1.0000
  C   C80       1.0  0.84270  0.89970  0.28660  1.0000
  H   H41       1.0  0.33800  0.73890  0.77420  1.0000
  H   H42       1.0  0.33800  0.26110  0.27420  1.0000
  H   H43       1.0  0.83800  0.23890  0.77420  1.0000
  H   H44       1.0  0.83800  0.76110  0.27420  1.0000
  C   C81       1.0  0.31370  0.52110  0.81910  1.0000
  C   C82       1.0  0.31370  0.47890  0.31910  1.0000
  C   C83       1.0  0.81370  0.02110  0.81910  1.0000
  C   C84       1.0  0.81370  0.97890  0.31910  1.0000
  H   H45       1.0  0.28980  0.60710  0.82830  1.0000
  H   H46       1.0  0.28980  0.39290  0.32830  1.0000
  H   H47       1.0  0.78980  0.10710  0.82830  1.0000
  H   H48       1.0  0.78980  0.89290  0.32830  1.0000
  C   C85       1.0  0.16770  0.20410  0.97560  1.0000
  C   C86       1.0  0.16770  0.79590  0.47560  1.0000
  C   C87       1.0  0.66770  0.70410  0.97560  1.0000
  C   C88       1.0  0.66770  0.29590  0.47560  1.0000
  C   C89       1.0  0.13110  0.30560  0.00880  1.0000
  C   C90       1.0  0.13110  0.69440  0.50880  1.0000
  C   C91       1.0  0.63110  0.80560  0.00880  1.0000
  C   C92       1.0  0.63110  0.19440  0.50880  1.0000
  C   C93       1.0  0.13790  0.50520  0.02650  1.0000
  C   C94       1.0  0.13790  0.49480  0.52650  1.0000
  C   C95       1.0  0.63790  0.00520  0.02650  1.0000
  C   C96       1.0  0.63790  0.99480  0.52650  1.0000
  H   H49       1.0  0.16110  0.59200  0.01650  1.0000
  H   H50       1.0  0.16110  0.40800  0.51650  1.0000
  H   H51       1.0  0.66110  0.09200  0.01650  1.0000
  H   H52       1.0  0.66110  0.90800  0.51650  1.0000
  C   C97       1.0  0.11110  0.57980  0.05860  1.0000
  C   C98       1.0  0.11110  0.42020  0.55860  1.0000
  C   C99       1.0  0.61110  0.07980  0.05860  1.0000
  C   C100      1.0  0.61110  0.92020  0.55860  1.0000
  H   H53       1.0  0.11580  0.71840  0.07090  1.0000
  H   H54       1.0  0.11580  0.28160  0.57090  1.0000
  H   H55       1.0  0.61580  0.21840  0.07090  1.0000
  H   H56       1.0  0.61580  0.78160  0.57090  1.0000
  C   C101      1.0  0.07760  0.45490  0.07290  1.0000
  C   C102      1.0  0.07760  0.54510  0.57290  1.0000
  C   C103      1.0  0.57760  0.95490  0.07290  1.0000
  C   C104      1.0  0.57760  0.04510  0.57290  1.0000
  C   C105      1.0  0.07090  0.25530  0.05520  1.0000
  C   C106      1.0  0.07090  0.74470  0.55520  1.0000
  C   C107      1.0  0.57090  0.75530  0.05520  1.0000
  C   C108      1.0  0.57090  0.24470  0.55520  1.0000
  H   H57       1.0  0.04760  0.16850  0.06510  1.0000
  H   H58       1.0  0.04760  0.83150  0.56510  1.0000
  H   H59       1.0  0.54760  0.66850  0.06510  1.0000
  H   H60       1.0  0.54760  0.33150  0.56510  1.0000
  C   C109      1.0  0.09760  0.18070  0.02310  1.0000
  C   C110      1.0  0.09760  0.81930  0.52310  1.0000
  C   C111      1.0  0.59760  0.68070  0.02310  1.0000
  C   C112      1.0  0.59760  0.31930  0.52310  1.0000
  H   H61       1.0  0.09290  0.04210  0.01080  1.0000
  H   H62       1.0  0.09290  0.95790  0.51080  1.0000
  H   H63       1.0  0.59290  0.54210  0.01080  1.0000
  H   H64       1.0  0.59290  0.45790  0.51080  1.0000
