data_image0
_chemical_formula_structural       Ce2O18H4N4C4H2C2H2C2H2C10H2C2H2C2H2C6
_chemical_formula_sum              "Ce2 O18 H16 N4 C28"
_cell_length_a       6.99
_cell_length_b       10.89
_cell_length_c       12.34
_cell_angle_alpha    112.7
_cell_angle_beta     96.08
_cell_angle_gamma    94.8

_space_group_name_H-M_alt    "P 1"
_space_group_IT_number       1

loop_
  _space_group_symop_operation_xyz
  'x, y, z'

loop_
  _atom_site_type_symbol
  _atom_site_label
  _atom_site_symmetry_multiplicity
  _atom_site_fract_x
  _atom_site_fract_y
  _atom_site_fract_z
  _atom_site_occupancy
  Ce  Ce1       1.0  0.65224  0.17920  0.64257  1.0000
  Ce  Ce2       1.0  0.34776  0.82080  0.35743  1.0000
  O   O1        1.0  0.57600  0.04420  0.41870  1.0000
  O   O2        1.0  0.42400  0.95580  0.58130  1.0000
  O   O3        1.0  0.55650  0.02670  0.23100  1.0000
  O   O4        1.0  0.44350  0.97330  0.76900  1.0000
  O   O5        1.0  0.71740  0.42650  0.73680  1.0000
  O   O6        1.0  0.28260  0.57350  0.26320  1.0000
  O   O7        1.0  0.77960  0.63120  0.73630  1.0000
  O   O8        1.0  0.22040  0.36880  0.26370  1.0000
  O   O9        1.0  0.00430  0.23440  0.61890  1.0000
  O   O10       1.0  0.99570  0.76560  0.38110  1.0000
  O   O11       1.0  0.30930  0.22050  0.58290  1.0000
  O   O12       1.0  0.69070  0.77950  0.41710  1.0000
  O   O13       1.0  0.75820  0.25250  0.03870  1.0000
  O   O14       1.0  0.24180  0.74750  0.96130  1.0000
  O   O15       1.0  0.78450  0.20710  0.84770  1.0000
  O   O16       1.0  0.21550  0.79290  0.15230  1.0000
  O   O17       1.0  0.85320  0.98190  0.62040  1.0000
  O   O18       1.0  0.14680  0.01810  0.37960  1.0000
  H   H1        1.0  0.82200  0.92030  0.55040  1.0000
  H   H2        1.0  0.17800  0.07970  0.44960  1.0000
  H   H3        1.0  0.97390  0.01020  0.63110  1.0000
  H   H4        1.0  0.02610  0.98980  0.36890  1.0000
  N   N1        1.0  0.67490  0.30950  0.50540  1.0000
  N   N2        1.0  0.32510  0.69050  0.49460  1.0000
  N   N3        1.0  0.43530  0.26750  0.80610  1.0000
  N   N4        1.0  0.56470  0.73250  0.19390  1.0000
  C   C1        1.0  0.65290  0.24410  0.38360  1.0000
  C   C2        1.0  0.34710  0.75590  0.61640  1.0000
  C   C3        1.0  0.68360  0.30840  0.30970  1.0000
  C   C4        1.0  0.31640  0.69160  0.69030  1.0000
  H   H5        1.0  0.66660  0.26120  0.22770  1.0000
  H   H6        1.0  0.33340  0.73880  0.77230  1.0000
  C   C5        1.0  0.74020  0.44490  0.36080  1.0000
  C   C6        1.0  0.25980  0.55510  0.63920  1.0000
  H   H7        1.0  0.76460  0.49080  0.31280  1.0000
  H   H8        1.0  0.23540  0.50920  0.68720  1.0000
  C   C7        1.0  0.76110  0.51400  0.48140  1.0000
  C   C8        1.0  0.23890  0.48600  0.51860  1.0000
  H   H9        1.0  0.79710  0.60660  0.51550  1.0000
  H   H10       1.0  0.20290  0.39340  0.48450  1.0000
  C   C9        1.0  0.72730  0.44270  0.55310  1.0000
  C   C10       1.0  0.27270  0.55730  0.44690  1.0000
  C   C11       1.0  0.59500  0.09340  0.33960  1.0000
  C   C12       1.0  0.40500  0.90660  0.66040  1.0000
  C   C13       1.0  0.74550  0.50870  0.68620  1.0000
  C   C14       1.0  0.25450  0.49130  0.31380  1.0000
  C   C15       1.0  0.25760  0.29890  0.78340  1.0000
  C   C16       1.0  0.74240  0.70110  0.21660  1.0000
  C   C17       1.0  0.15810  0.37190  0.87160  1.0000
  C   C18       1.0  0.84190  0.62810  0.12840  1.0000
  H   H11       1.0  0.04050  0.39850  0.85260  1.0000
  H   H12       1.0  0.95950  0.60150  0.14740  1.0000
  C   C19       1.0  0.23410  0.40520  0.98810  1.0000
  C   C20       1.0  0.76590  0.59480  0.01190  1.0000
  H   H13       1.0  0.16950  0.45550  0.04910  1.0000
  H   H14       1.0  0.83050  0.54450  0.95090  1.0000
  C   C21       1.0  0.40740  0.36320  0.01360  1.0000
  C   C22       1.0  0.59260  0.63680  0.98640  1.0000
  H   H15       1.0  0.45770  0.37990  0.09160  1.0000
  H   H16       1.0  0.54230  0.62010  0.90840  1.0000
  C   C23       1.0  0.50540  0.29540  0.92040  1.0000
  C   C24       1.0  0.49460  0.70460  0.07960  1.0000
  C   C25       1.0  0.18150  0.24940  0.65370  1.0000
  C   C26       1.0  0.81850  0.75060  0.34630  1.0000
  C   C27       1.0  0.69530  0.25040  0.94010  1.0000
  C   C28       1.0  0.30470  0.74960  0.05990  1.0000
