data_image0
_chemical_formula_structural       U4O26C12
_chemical_formula_sum              "U4 O26 C12"
_cell_length_a       8.4469
_cell_length_b       7.7589
_cell_length_c       10.5257
_cell_angle_alpha    90
_cell_angle_beta     105.696
_cell_angle_gamma    90

_space_group_name_H-M_alt    "P 1"
_space_group_IT_number       1

loop_
  _space_group_symop_operation_xyz
  'x, y, z'

loop_
  _atom_site_type_symbol
  _atom_site_label
  _atom_site_symmetry_multiplicity
  _atom_site_fract_x
  _atom_site_fract_y
  _atom_site_fract_z
  _atom_site_occupancy
  U   U1        1.0  0.27158  0.25000  0.06539  1.0000
  U   U2        1.0  0.72842  0.75000  0.93461  1.0000
  U   U3        1.0  0.24674  0.25000  0.46412  1.0000
  U   U4        1.0  0.75326  0.75000  0.53588  1.0000
  O   O1        1.0  0.47870  0.25000  0.17040  1.0000
  O   O2        1.0  0.52130  0.75000  0.82960  1.0000
  O   O3        1.0  0.06520  0.25000  0.96210  1.0000
  O   O4        1.0  0.93480  0.75000  0.03790  1.0000
  O   O5        1.0  0.15760  0.25000  0.23990  1.0000
  O   O6        1.0  0.84240  0.75000  0.76010  1.0000
  O   O7        1.0  0.26170  0.95260  0.10990  1.0000
  O   O8        1.0  0.73830  0.45260  0.89010  1.0000
  O   O9        1.0  0.73830  0.04740  0.89010  1.0000
  O   O10       1.0  0.26170  0.54740  0.10990  1.0000
  O   O11       1.0  0.33340  0.07910  0.88640  1.0000
  O   O12       1.0  0.66660  0.57910  0.11360  1.0000
  O   O13       1.0  0.66660  0.92090  0.11360  1.0000
  O   O14       1.0  0.33340  0.42090  0.88640  1.0000
  O   O15       1.0  0.45450  0.25000  0.45630  1.0000
  O   O16       1.0  0.54550  0.75000  0.54370  1.0000
  O   O17       1.0  0.03780  0.25000  0.47170  1.0000
  O   O18       1.0  0.96220  0.75000  0.52830  1.0000
  O   O19       1.0  0.31830  0.07860  0.66870  1.0000
  O   O20       1.0  0.68170  0.57860  0.33130  1.0000
  O   O21       1.0  0.68170  0.92140  0.33130  1.0000
  O   O22       1.0  0.31830  0.42140  0.66870  1.0000
  O   O23       1.0  0.22850  0.95070  0.41730  1.0000
  O   O24       1.0  0.77150  0.45070  0.58270  1.0000
  O   O25       1.0  0.77150  0.04930  0.58270  1.0000
  O   O26       1.0  0.22850  0.54930  0.41730  1.0000
  C   C1        1.0  0.25130  0.84410  0.19460  1.0000
  C   C2        1.0  0.74870  0.34410  0.80540  1.0000
  C   C3        1.0  0.74870  0.15590  0.80540  1.0000
  C   C4        1.0  0.25130  0.65590  0.19460  1.0000
  C   C5        1.0  0.23770  0.84270  0.33040  1.0000
  C   C6        1.0  0.76230  0.34270  0.66960  1.0000
  C   C7        1.0  0.76230  0.15730  0.66960  1.0000
  C   C8        1.0  0.23770  0.65730  0.33040  1.0000
  C   C9        1.0  0.32880  0.15050  0.77950  1.0000
  C   C10       1.0  0.67120  0.65050  0.22050  1.0000
  C   C11       1.0  0.67120  0.84950  0.22050  1.0000
  C   C12       1.0  0.32880  0.34950  0.77950  1.0000
