data_image0
_chemical_formula_structural       U8O12C4O4C4O12C8O12C4O4C4O8
_chemical_formula_sum              "U8 O52 C24"
_cell_length_a       9.0601
_cell_length_b       15.7299
_cell_length_c       10.5108
_cell_angle_alpha    90
_cell_angle_beta     106.394
_cell_angle_gamma    90

_space_group_name_H-M_alt    "P 1"
_space_group_IT_number       1

loop_
  _space_group_symop_operation_xyz
  'x, y, z'

loop_
  _atom_site_type_symbol
  _atom_site_label
  _atom_site_symmetry_multiplicity
  _atom_site_fract_x
  _atom_site_fract_y
  _atom_site_fract_z
  _atom_site_occupancy
  U   U1        1.0  0.77377  0.12797  0.95596  1.0000
  U   U2        1.0  0.72623  0.62797  0.54404  1.0000
  U   U3        1.0  0.22623  0.87203  0.04404  1.0000
  U   U4        1.0  0.27377  0.37203  0.45596  1.0000
  U   U5        1.0  0.77961  0.12710  0.55146  1.0000
  U   U6        1.0  0.72039  0.62710  0.94854  1.0000
  U   U7        1.0  0.22039  0.87290  0.44854  1.0000
  U   U8        1.0  0.27961  0.37290  0.05146  1.0000
  O   O1        1.0  0.84430  0.21178  0.37770  1.0000
  O   O2        1.0  0.65570  0.71178  0.12230  1.0000
  O   O3        1.0  0.15570  0.78822  0.62230  1.0000
  O   O4        1.0  0.34430  0.28822  0.87770  1.0000
  O   O5        1.0  0.84210  0.04374  0.37420  1.0000
  O   O6        1.0  0.65790  0.54374  0.12580  1.0000
  O   O7        1.0  0.15790  0.95626  0.62580  1.0000
  O   O8        1.0  0.34210  0.45626  0.87420  1.0000
  O   O9        1.0  0.76350  0.97784  0.59460  1.0000
  O   O10       1.0  0.73650  0.47784  0.90540  1.0000
  O   O11       1.0  0.23650  0.02216  0.40540  1.0000
  O   O12       1.0  0.26350  0.52216  0.09460  1.0000
  C   C1        1.0  0.75750  0.92360  0.68060  1.0000
  C   C2        1.0  0.74250  0.42360  0.81940  1.0000
  C   C3        1.0  0.24250  0.07640  0.31940  1.0000
  C   C4        1.0  0.25750  0.57640  0.18060  1.0000
  O   O13       1.0  0.73280  0.77579  0.90130  1.0000
  O   O14       1.0  0.76720  0.27579  0.59870  1.0000
  O   O15       1.0  0.26720  0.22421  0.09870  1.0000
  O   O16       1.0  0.23280  0.72421  0.40130  1.0000
  C   C5        1.0  0.74460  0.83030  0.81670  1.0000
  C   C6        1.0  0.75540  0.33030  0.68330  1.0000
  C   C7        1.0  0.25540  0.16970  0.18330  1.0000
  C   C8        1.0  0.24460  0.66970  0.31670  1.0000
  O   O17       1.0  0.97230  0.12870  0.65170  1.0000
  O   O18       1.0  0.52770  0.62870  0.84830  1.0000
  O   O19       1.0  0.02770  0.87130  0.34830  1.0000
  O   O20       1.0  0.47230  0.37130  0.15170  1.0000
  O   O21       1.0  0.58740  0.12640  0.44870  1.0000
  O   O22       1.0  0.91260  0.62640  0.05130  1.0000
  O   O23       1.0  0.41260  0.87360  0.55130  1.0000
  O   O24       1.0  0.08740  0.37360  0.94870  1.0000
  O   O25       1.0  0.68350  0.12518  0.73040  1.0000
  O   O26       1.0  0.81650  0.62518  0.76960  1.0000
  O   O27       1.0  0.31650  0.87482  0.26960  1.0000
  O   O28       1.0  0.18350  0.37482  0.23040  1.0000
  C   C9        1.0  0.84520  0.17750  0.27070  1.0000
  C   C10       1.0  0.65480  0.67750  0.22930  1.0000
  C   C11       1.0  0.15480  0.82250  0.72930  1.0000
  C   C12       1.0  0.34520  0.32250  0.77070  1.0000
  C   C13       1.0  0.84830  0.07970  0.27000  1.0000
  C   C14       1.0  0.65170  0.57970  0.23000  1.0000
  C   C15       1.0  0.15170  0.92030  0.73000  1.0000
  C   C16       1.0  0.34830  0.42030  0.77000  1.0000
  O   O29       1.0  0.84410  0.21373  0.16400  1.0000
  O   O30       1.0  0.65590  0.71373  0.33600  1.0000
  O   O31       1.0  0.15590  0.78627  0.83600  1.0000
  O   O32       1.0  0.34410  0.28627  0.66400  1.0000
  O   O33       1.0  0.85420  0.04650  0.16250  1.0000
  O   O34       1.0  0.64580  0.54650  0.33750  1.0000
  O   O35       1.0  0.14580  0.95350  0.83750  1.0000
  O   O36       1.0  0.35420  0.45350  0.66250  1.0000
  O   O37       1.0  0.74880  0.97855  0.90490  1.0000
  O   O38       1.0  0.75120  0.47855  0.59510  1.0000
  O   O39       1.0  0.25120  0.02145  0.09510  1.0000
  O   O40       1.0  0.24880  0.52145  0.40490  1.0000
  C   C17       1.0  0.75210  0.92400  0.81890  1.0000
  C   C18       1.0  0.74790  0.42400  0.68110  1.0000
  C   C19       1.0  0.24790  0.07600  0.18110  1.0000
  C   C20       1.0  0.25210  0.57600  0.31890  1.0000
  O   O41       1.0  0.75300  0.77627  0.59300  1.0000
  O   O42       1.0  0.74700  0.27627  0.90700  1.0000
  O   O43       1.0  0.24700  0.22373  0.40700  1.0000
  O   O44       1.0  0.25300  0.72373  0.09300  1.0000
  C   C21       1.0  0.75140  0.83050  0.67990  1.0000
  C   C22       1.0  0.74860  0.33050  0.82010  1.0000
  C   C23       1.0  0.24860  0.16950  0.32010  1.0000
  C   C24       1.0  0.25140  0.66950  0.17990  1.0000
  O   O45       1.0  0.96560  0.13020  0.94550  1.0000
  O   O46       1.0  0.53440  0.63020  0.55450  1.0000
  O   O47       1.0  0.03440  0.86980  0.05450  1.0000
  O   O48       1.0  0.46560  0.36980  0.44550  1.0000
  O   O49       1.0  0.58350  0.12490  0.96970  1.0000
  O   O50       1.0  0.91650  0.62490  0.53030  1.0000
  O   O51       1.0  0.41650  0.87510  0.03030  1.0000
  O   O52       1.0  0.08350  0.37510  0.46970  1.0000
