data_image0
_chemical_formula_structural       La6O36C24N12O24C12H12C12H12C12H12C12H12C24H12C24H12C12H12C12H12C12H12C24H12C12O12H12C24H12C24H12C12
_chemical_formula_sum              "La6 O72 C252 N12 H156"
_cell_length_a       16.1811
_cell_length_b       16.1811
_cell_length_c       30.4774
_cell_angle_alpha    90
_cell_angle_beta     90
_cell_angle_gamma    120

_space_group_name_H-M_alt    "P 1"
_space_group_IT_number       1

loop_
  _space_group_symop_operation_xyz
  'x, y, z'

loop_
  _atom_site_type_symbol
  _atom_site_label
  _atom_site_symmetry_multiplicity
  _atom_site_fract_x
  _atom_site_fract_y
  _atom_site_fract_z
  _atom_site_occupancy
  La  La1       1.0  0.35666  0.00000  0.50000  1.0000
  La  La2       1.0  0.00000  0.35666  0.16667  1.0000
  La  La3       1.0  0.64334  0.64334  0.83333  1.0000
  La  La4       1.0  0.64334  0.00000  0.50000  1.0000
  La  La5       1.0  0.00000  0.64334  0.16667  1.0000
  La  La6       1.0  0.35666  0.35666  0.83333  1.0000
  O   O1        1.0  0.64310  0.12350  0.44678  1.0000
  O   O2        1.0  0.87650  0.51960  0.11345  1.0000
  O   O3        1.0  0.48040  0.35690  0.78011  1.0000
  O   O4        1.0  0.35690  0.87650  0.44678  1.0000
  O   O5        1.0  0.12350  0.48040  0.11345  1.0000
  O   O6        1.0  0.51960  0.64310  0.78011  1.0000
  O   O7        1.0  0.12350  0.64310  0.21989  1.0000
  O   O8        1.0  0.51960  0.87650  0.55322  1.0000
  O   O9        1.0  0.35690  0.48040  0.88655  1.0000
  O   O10       1.0  0.87650  0.35690  0.21989  1.0000
  O   O11       1.0  0.48040  0.12350  0.55322  1.0000
  O   O12       1.0  0.64310  0.51960  0.88655  1.0000
  O   O13       1.0  0.97230  0.69930  0.23985  1.0000
  O   O14       1.0  0.30070  0.27300  0.90652  1.0000
  O   O15       1.0  0.72700  0.02770  0.57318  1.0000
  O   O16       1.0  0.02770  0.30070  0.23985  1.0000
  O   O17       1.0  0.69930  0.72700  0.90652  1.0000
  O   O18       1.0  0.27300  0.97230  0.57318  1.0000
  O   O19       1.0  0.69930  0.97230  0.42682  1.0000
  O   O20       1.0  0.27300  0.30070  0.76015  1.0000
  O   O21       1.0  0.02770  0.72700  0.09348  1.0000
  O   O22       1.0  0.30070  0.02770  0.42682  1.0000
  O   O23       1.0  0.72700  0.69930  0.76015  1.0000
  O   O24       1.0  0.97230  0.27300  0.09348  1.0000
  O   O25       1.0  0.49840  0.10200  0.45773  1.0000
  O   O26       1.0  0.89800  0.39640  0.12440  1.0000
  O   O27       1.0  0.60360  0.50160  0.79106  1.0000
  O   O28       1.0  0.50160  0.89800  0.45773  1.0000
  O   O29       1.0  0.10200  0.60360  0.12440  1.0000
  O   O30       1.0  0.39640  0.49840  0.79106  1.0000
  O   O31       1.0  0.10200  0.49840  0.20894  1.0000
  O   O32       1.0  0.39640  0.89800  0.54227  1.0000
  O   O33       1.0  0.50160  0.60360  0.87560  1.0000
  O   O34       1.0  0.89800  0.50160  0.20894  1.0000
  O   O35       1.0  0.60360  0.10200  0.54227  1.0000
  O   O36       1.0  0.49840  0.39640  0.87560  1.0000
  C   C1        1.0  0.62140  0.25710  0.44027  1.0000
  C   C2        1.0  0.74290  0.36430  0.10694  1.0000
  C   C3        1.0  0.63570  0.37860  0.77360  1.0000
  C   C4        1.0  0.37860  0.74290  0.44027  1.0000
  C   C5        1.0  0.25710  0.63570  0.10694  1.0000
  C   C6        1.0  0.36430  0.62140  0.77360  1.0000
  C   C7        1.0  0.25710  0.62140  0.22640  1.0000
  C   C8        1.0  0.36430  0.74290  0.55973  1.0000
  C   C9        1.0  0.37860  0.63570  0.89306  1.0000
  C   C10       1.0  0.74290  0.37860  0.22640  1.0000
  C   C11       1.0  0.63570  0.25710  0.55973  1.0000
  C   C12       1.0  0.62140  0.36430  0.89306  1.0000
  C   C13       1.0  0.68600  0.44990  0.42262  1.0000
  C   C14       1.0  0.55010  0.23610  0.08929  1.0000
  C   C15       1.0  0.76390  0.31400  0.75595  1.0000
  C   C16       1.0  0.31400  0.55010  0.42262  1.0000
  C   C17       1.0  0.44990  0.76390  0.08929  1.0000
  C   C18       1.0  0.23610  0.68600  0.75595  1.0000
  C   C19       1.0  0.44990  0.68600  0.24405  1.0000
  C   C20       1.0  0.23610  0.55010  0.57738  1.0000
  C   C21       1.0  0.31400  0.76390  0.91071  1.0000
  C   C22       1.0  0.55010  0.31400  0.24405  1.0000
  C   C23       1.0  0.76390  0.44990  0.57738  1.0000
  C   C24       1.0  0.68600  0.23610  0.91071  1.0000
  N   N1        1.0  0.71980  0.54780  0.41358  1.0000
  N   N2        1.0  0.45220  0.17200  0.08025  1.0000
  N   N3        1.0  0.82800  0.28020  0.74691  1.0000
  N   N4        1.0  0.28020  0.45220  0.41358  1.0000
  N   N5        1.0  0.54780  0.82800  0.08025  1.0000
  N   N6        1.0  0.17200  0.71980  0.74691  1.0000
  N   N7        1.0  0.54780  0.71980  0.25309  1.0000
  N   N8        1.0  0.17200  0.45220  0.58642  1.0000
  N   N9        1.0  0.28020  0.82800  0.91975  1.0000
  N   N10       1.0  0.45220  0.28020  0.25309  1.0000
  N   N11       1.0  0.82800  0.54780  0.58642  1.0000
  N   N12       1.0  0.71980  0.17200  0.91975  1.0000
  O   O37       1.0  0.67470  0.78980  0.56772  1.0000
  O   O38       1.0  0.21020  0.88490  0.23439  1.0000
  O   O39       1.0  0.11510  0.32530  0.90105  1.0000
  O   O40       1.0  0.32530  0.21020  0.56772  1.0000
  O   O41       1.0  0.78980  0.11510  0.23439  1.0000
  O   O42       1.0  0.88490  0.67470  0.90105  1.0000
  O   O43       1.0  0.78980  0.67470  0.09895  1.0000
  O   O44       1.0  0.88490  0.21020  0.43228  1.0000
  O   O45       1.0  0.32530  0.11510  0.76561  1.0000
  O   O46       1.0  0.21020  0.32530  0.09895  1.0000
  O   O47       1.0  0.11510  0.78980  0.43228  1.0000
  O   O48       1.0  0.67470  0.88490  0.76561  1.0000
  O   O49       1.0  0.68280  0.87460  0.50910  1.0000
  O   O50       1.0  0.12540  0.80820  0.17577  1.0000
  O   O51       1.0  0.19180  0.31720  0.84243  1.0000
  O   O52       1.0  0.31720  0.12540  0.50910  1.0000
  O   O53       1.0  0.87460  0.19180  0.17577  1.0000
  O   O54       1.0  0.80820  0.68280  0.84243  1.0000
  O   O55       1.0  0.87460  0.68280  0.15757  1.0000
  O   O56       1.0  0.80820  0.12540  0.49090  1.0000
  O   O57       1.0  0.31720  0.19180  0.82423  1.0000
  O   O58       1.0  0.12540  0.31720  0.15757  1.0000
  O   O59       1.0  0.19180  0.87460  0.49090  1.0000
  O   O60       1.0  0.68280  0.80820  0.82423  1.0000
  C   C25       1.0  0.84100  0.59790  0.30593  1.0000
  C   C26       1.0  0.40210  0.24310  0.97260  1.0000
  C   C27       1.0  0.75690  0.15900  0.63926  1.0000
  C   C28       1.0  0.15900  0.40210  0.30593  1.0000
  C   C29       1.0  0.59790  0.75690  0.97260  1.0000
  C   C30       1.0  0.24310  0.84100  0.63926  1.0000
  C   C31       1.0  0.59790  0.84100  0.36074  1.0000
  C   C32       1.0  0.24310  0.40210  0.69407  1.0000
  C   C33       1.0  0.15900  0.75690  0.02740  1.0000
  C   C34       1.0  0.40210  0.15900  0.36074  1.0000
  C   C35       1.0  0.75690  0.59790  0.69407  1.0000
  C   C36       1.0  0.84100  0.24310  0.02740  1.0000
  H   H1        1.0  0.83140  0.56910  0.27860  1.0000
  H   H2        1.0  0.43090  0.26230  0.94527  1.0000
  H   H3        1.0  0.73770  0.16860  0.61193  1.0000
  H   H4        1.0  0.16860  0.43090  0.27860  1.0000
  H   H5        1.0  0.56910  0.73770  0.94527  1.0000
  H   H6        1.0  0.26230  0.83140  0.61193  1.0000
  H   H7        1.0  0.56910  0.83140  0.38807  1.0000
  H   H8        1.0  0.26230  0.43090  0.72140  1.0000
  H   H9        1.0  0.16860  0.73770  0.05473  1.0000
  H   H10       1.0  0.43090  0.16860  0.38807  1.0000
  H   H11       1.0  0.73770  0.56910  0.72140  1.0000
  H   H12       1.0  0.83140  0.26230  0.05473  1.0000
  C   C37       1.0  0.56280  0.29630  0.44675  1.0000
  C   C38       1.0  0.70370  0.26650  0.11342  1.0000
  C   C39       1.0  0.73350  0.43720  0.78008  1.0000
  C   C40       1.0  0.43720  0.70370  0.44675  1.0000
  C   C41       1.0  0.29630  0.73350  0.11342  1.0000
  C   C42       1.0  0.26650  0.56280  0.78008  1.0000
  C   C43       1.0  0.29630  0.56280  0.21992  1.0000
  C   C44       1.0  0.26650  0.70370  0.55325  1.0000
  C   C45       1.0  0.43720  0.73350  0.88658  1.0000
  C   C46       1.0  0.70370  0.43720  0.21992  1.0000
  C   C47       1.0  0.73350  0.29630  0.55325  1.0000
  C   C48       1.0  0.56280  0.26650  0.88658  1.0000
  H   H13       1.0  0.50120  0.25770  0.45730  1.0000
  H   H14       1.0  0.74230  0.24350  0.12397  1.0000
  H   H15       1.0  0.75650  0.49880  0.79063  1.0000
  H   H16       1.0  0.49880  0.74230  0.45730  1.0000
  H   H17       1.0  0.25770  0.75650  0.12397  1.0000
  H   H18       1.0  0.24350  0.50120  0.79063  1.0000
  H   H19       1.0  0.25770  0.50120  0.20937  1.0000
  H   H20       1.0  0.24350  0.74230  0.54270  1.0000
  H   H21       1.0  0.49880  0.75650  0.87603  1.0000
  H   H22       1.0  0.74230  0.49880  0.20937  1.0000
  H   H23       1.0  0.75650  0.25770  0.54270  1.0000
  H   H24       1.0  0.50120  0.24350  0.87603  1.0000
  C   C49       1.0  0.68620  0.58600  0.48679  1.0000
  C   C50       1.0  0.41400  0.10020  0.15346  1.0000
  C   C51       1.0  0.89980  0.31380  0.82012  1.0000
  C   C52       1.0  0.31380  0.41400  0.48679  1.0000
  C   C53       1.0  0.58600  0.89980  0.15346  1.0000
  C   C54       1.0  0.10020  0.68620  0.82012  1.0000
  C   C55       1.0  0.58600  0.68620  0.17988  1.0000
  C   C56       1.0  0.10020  0.41400  0.51321  1.0000
  C   C57       1.0  0.31380  0.89980  0.84654  1.0000
  C   C58       1.0  0.41400  0.31380  0.17988  1.0000
  C   C59       1.0  0.89980  0.58600  0.51321  1.0000
  C   C60       1.0  0.68620  0.10020  0.84654  1.0000
  H   H25       1.0  0.68530  0.53230  0.49830  1.0000
  H   H26       1.0  0.46770  0.15300  0.16497  1.0000
  H   H27       1.0  0.84700  0.31470  0.83163  1.0000
  H   H28       1.0  0.31470  0.46770  0.49830  1.0000
  H   H29       1.0  0.53230  0.84700  0.16497  1.0000
  H   H30       1.0  0.15300  0.68530  0.83163  1.0000
  H   H31       1.0  0.53230  0.68530  0.16837  1.0000
  H   H32       1.0  0.15300  0.46770  0.50170  1.0000
  H   H33       1.0  0.31470  0.84700  0.83503  1.0000
  H   H34       1.0  0.46770  0.31470  0.16837  1.0000
  H   H35       1.0  0.84700  0.53230  0.50170  1.0000
  H   H36       1.0  0.68530  0.15300  0.83503  1.0000
  C   C61       1.0  0.59390  0.39090  0.43787  1.0000
  C   C62       1.0  0.60910  0.20300  0.10454  1.0000
  C   C63       1.0  0.79700  0.40610  0.77120  1.0000
  C   C64       1.0  0.40610  0.60910  0.43787  1.0000
  C   C65       1.0  0.39090  0.79700  0.10454  1.0000
  C   C66       1.0  0.20300  0.59390  0.77120  1.0000
  C   C67       1.0  0.39090  0.59390  0.22880  1.0000
  C   C68       1.0  0.20300  0.60910  0.56213  1.0000
  C   C69       1.0  0.40610  0.79700  0.89546  1.0000
  C   C70       1.0  0.60910  0.40610  0.22880  1.0000
  C   C71       1.0  0.79700  0.39090  0.56213  1.0000
  C   C72       1.0  0.59390  0.20300  0.89546  1.0000
  H   H37       1.0  0.55310  0.41510  0.44210  1.0000
  H   H38       1.0  0.58490  0.13800  0.10877  1.0000
  H   H39       1.0  0.86200  0.44690  0.77543  1.0000
  H   H40       1.0  0.44690  0.58490  0.44210  1.0000
  H   H41       1.0  0.41510  0.86200  0.10877  1.0000
  H   H42       1.0  0.13800  0.55310  0.77543  1.0000
  H   H43       1.0  0.41510  0.55310  0.22457  1.0000
  H   H44       1.0  0.13800  0.58490  0.55790  1.0000
  H   H45       1.0  0.44690  0.86200  0.89123  1.0000
  H   H46       1.0  0.58490  0.44690  0.22457  1.0000
  H   H47       1.0  0.86200  0.41510  0.55790  1.0000
  H   H48       1.0  0.55310  0.13800  0.89123  1.0000
  C   C73       1.0  0.78840  0.59470  0.37999  1.0000
  C   C74       1.0  0.40530  0.19370  0.04666  1.0000
  C   C75       1.0  0.80630  0.21160  0.71332  1.0000
  C   C76       1.0  0.21160  0.40530  0.37999  1.0000
  C   C77       1.0  0.59470  0.80630  0.04666  1.0000
  C   C78       1.0  0.19370  0.78840  0.71332  1.0000
  C   C79       1.0  0.59470  0.78840  0.28668  1.0000
  C   C80       1.0  0.19370  0.40530  0.62001  1.0000
  C   C81       1.0  0.21160  0.80630  0.95334  1.0000
  C   C82       1.0  0.40530  0.21160  0.28668  1.0000
  C   C83       1.0  0.80630  0.59470  0.62001  1.0000
  C   C84       1.0  0.78840  0.19370  0.95334  1.0000
  C   C85       1.0  0.71410  0.31710  0.42548  1.0000
  C   C86       1.0  0.68290  0.39700  0.09215  1.0000
  C   C87       1.0  0.60300  0.28590  0.75881  1.0000
  C   C88       1.0  0.28590  0.68290  0.42548  1.0000
  C   C89       1.0  0.31710  0.60300  0.09215  1.0000
  C   C90       1.0  0.39700  0.71410  0.75881  1.0000
  C   C91       1.0  0.31710  0.71410  0.24119  1.0000
  C   C92       1.0  0.39700  0.68290  0.57452  1.0000
  C   C93       1.0  0.28590  0.60300  0.90785  1.0000
  C   C94       1.0  0.68290  0.28590  0.24119  1.0000
  C   C95       1.0  0.60300  0.31710  0.57452  1.0000
  C   C96       1.0  0.71410  0.39700  0.90785  1.0000
  H   H49       1.0  0.75480  0.29270  0.42120  1.0000
  H   H50       1.0  0.70730  0.46210  0.08787  1.0000
  H   H51       1.0  0.53790  0.24520  0.75453  1.0000
  H   H52       1.0  0.24520  0.70730  0.42120  1.0000
  H   H53       1.0  0.29270  0.53790  0.08787  1.0000
  H   H54       1.0  0.46210  0.75480  0.75453  1.0000
  H   H55       1.0  0.29270  0.75480  0.24547  1.0000
  H   H56       1.0  0.46210  0.70730  0.57880  1.0000
  H   H57       1.0  0.24520  0.53790  0.91213  1.0000
  H   H58       1.0  0.70730  0.24520  0.24547  1.0000
  H   H59       1.0  0.53790  0.29270  0.57880  1.0000
  H   H60       1.0  0.75480  0.46210  0.91213  1.0000
  C   C97       1.0  0.69830  0.60340  0.44191  1.0000
  C   C98       1.0  0.39660  0.09490  0.10858  1.0000
  C   C99       1.0  0.90510  0.30170  0.77524  1.0000
  C   C100      1.0  0.30170  0.39660  0.44191  1.0000
  C   C101      1.0  0.60340  0.90510  0.10858  1.0000
  C   C102      1.0  0.09490  0.69830  0.77524  1.0000
  C   C103      1.0  0.60340  0.69830  0.22476  1.0000
  C   C104      1.0  0.09490  0.39660  0.55809  1.0000
  C   C105      1.0  0.30170  0.90510  0.89142  1.0000
  C   C106      1.0  0.39660  0.30170  0.22476  1.0000
  C   C107      1.0  0.90510  0.60340  0.55809  1.0000
  C   C108      1.0  0.69830  0.09490  0.89142  1.0000
  C   C109      1.0  0.93620  0.72840  0.35449  1.0000
  C   C110      1.0  0.27160  0.20780  0.02116  1.0000
  C   C111      1.0  0.79220  0.06380  0.68782  1.0000
  C   C112      1.0  0.06380  0.27160  0.35449  1.0000
  C   C113      1.0  0.72840  0.79220  0.02116  1.0000
  C   C114      1.0  0.20780  0.93620  0.68782  1.0000
  C   C115      1.0  0.72840  0.93620  0.31218  1.0000
  C   C116      1.0  0.20780  0.27160  0.64551  1.0000
  C   C117      1.0  0.06380  0.79220  0.97884  1.0000
  C   C118      1.0  0.27160  0.06380  0.31218  1.0000
  C   C119      1.0  0.79220  0.72840  0.64551  1.0000
  C   C120      1.0  0.93620  0.20780  0.97884  1.0000
  H   H61       1.0  0.99040  0.78690  0.36000  1.0000
  H   H62       1.0  0.21310  0.20350  0.02667  1.0000
  H   H63       1.0  0.79650  0.00960  0.69333  1.0000
  H   H64       1.0  0.00960  0.21310  0.36000  1.0000
  H   H65       1.0  0.78690  0.79650  0.02667  1.0000
  H   H66       1.0  0.20350  0.99040  0.69333  1.0000
  H   H67       1.0  0.78690  0.99040  0.30667  1.0000
  H   H68       1.0  0.20350  0.21310  0.64000  1.0000
  H   H69       1.0  0.00960  0.79650  0.97333  1.0000
  H   H70       1.0  0.21310  0.00960  0.30667  1.0000
  H   H71       1.0  0.79650  0.78690  0.64000  1.0000
  H   H72       1.0  0.99040  0.20350  0.97333  1.0000
  C   C121      1.0  0.77530  0.55250  0.33852  1.0000
  C   C122      1.0  0.44750  0.22280  0.00519  1.0000
  C   C123      1.0  0.77720  0.22470  0.67185  1.0000
  C   C124      1.0  0.22470  0.44750  0.33852  1.0000
  C   C125      1.0  0.55250  0.77720  0.00519  1.0000
  C   C126      1.0  0.22280  0.77530  0.67185  1.0000
  C   C127      1.0  0.55250  0.77530  0.32815  1.0000
  C   C128      1.0  0.22280  0.44750  0.66148  1.0000
  C   C129      1.0  0.22470  0.77720  0.99481  1.0000
  C   C130      1.0  0.44750  0.22470  0.32815  1.0000
  C   C131      1.0  0.77720  0.55250  0.66148  1.0000
  C   C132      1.0  0.77530  0.22280  0.99481  1.0000
  H   H73       1.0  0.72180  0.49330  0.33310  1.0000
  H   H74       1.0  0.50670  0.22850  0.99977  1.0000
  H   H75       1.0  0.77150  0.27820  0.66643  1.0000
  H   H76       1.0  0.27820  0.50670  0.33310  1.0000
  H   H77       1.0  0.49330  0.77150  0.99977  1.0000
  H   H78       1.0  0.22850  0.72180  0.66643  1.0000
  H   H79       1.0  0.49330  0.72180  0.33357  1.0000
  H   H80       1.0  0.22850  0.50670  0.66690  1.0000
  H   H81       1.0  0.27820  0.77150  0.00023  1.0000
  H   H82       1.0  0.50670  0.27820  0.33357  1.0000
  H   H83       1.0  0.77150  0.49330  0.66690  1.0000
  H   H84       1.0  0.72180  0.22850  0.00023  1.0000
  C   C133      1.0  0.69270  0.68070  0.42487  1.0000
  C   C134      1.0  0.31930  0.01200  0.09154  1.0000
  C   C135      1.0  0.98800  0.30730  0.75820  1.0000
  C   C136      1.0  0.30730  0.31930  0.42487  1.0000
  C   C137      1.0  0.68070  0.98800  0.09154  1.0000
  C   C138      1.0  0.01200  0.69270  0.75820  1.0000
  C   C139      1.0  0.68070  0.69270  0.24180  1.0000
  C   C140      1.0  0.01200  0.31930  0.57513  1.0000
  C   C141      1.0  0.30730  0.98800  0.90846  1.0000
  C   C142      1.0  0.31930  0.30730  0.24180  1.0000
  C   C143      1.0  0.98800  0.68070  0.57513  1.0000
  C   C144      1.0  0.69270  0.01200  0.90846  1.0000
  H   H85       1.0  0.69520  0.69020  0.39470  1.0000
  H   H86       1.0  0.30980  0.00500  0.06137  1.0000
  H   H87       1.0  0.99500  0.30480  0.72803  1.0000
  H   H88       1.0  0.30480  0.30980  0.39470  1.0000
  H   H89       1.0  0.69020  0.99500  0.06137  1.0000
  H   H90       1.0  0.00500  0.69520  0.72803  1.0000
  H   H91       1.0  0.69020  0.69520  0.27197  1.0000
  H   H92       1.0  0.00500  0.30980  0.60530  1.0000
  H   H93       1.0  0.30480  0.99500  0.93863  1.0000
  H   H94       1.0  0.30980  0.30480  0.27197  1.0000
  H   H95       1.0  0.99500  0.69020  0.60530  1.0000
  H   H96       1.0  0.69520  0.00500  0.93863  1.0000
  C   C145      1.0  0.67540  0.64770  0.51434  1.0000
  C   C146      1.0  0.35230  0.02770  0.18101  1.0000
  C   C147      1.0  0.97230  0.32460  0.84767  1.0000
  C   C148      1.0  0.32460  0.35230  0.51434  1.0000
  C   C149      1.0  0.64770  0.97230  0.18101  1.0000
  C   C150      1.0  0.02770  0.67540  0.84767  1.0000
  C   C151      1.0  0.64770  0.67540  0.15233  1.0000
  C   C152      1.0  0.02770  0.35230  0.48566  1.0000
  C   C153      1.0  0.32460  0.97230  0.81899  1.0000
  C   C154      1.0  0.35230  0.32460  0.15233  1.0000
  C   C155      1.0  0.97230  0.64770  0.48566  1.0000
  C   C156      1.0  0.67540  0.02770  0.81899  1.0000
  H   H97       1.0  0.66740  0.63540  0.54430  1.0000
  H   H98       1.0  0.36460  0.03200  0.21097  1.0000
  H   H99       1.0  0.96800  0.33260  0.87763  1.0000
  H   H100      1.0  0.33260  0.36460  0.54430  1.0000
  H   H101      1.0  0.63540  0.96800  0.21097  1.0000
  H   H102      1.0  0.03200  0.66740  0.87763  1.0000
  H   H103      1.0  0.63540  0.66740  0.12237  1.0000
  H   H104      1.0  0.03200  0.36460  0.45570  1.0000
  H   H105      1.0  0.33260  0.96800  0.78903  1.0000
  H   H106      1.0  0.36460  0.33260  0.12237  1.0000
  H   H107      1.0  0.96800  0.63540  0.45570  1.0000
  H   H108      1.0  0.66740  0.03200  0.78903  1.0000
  C   C157      1.0  0.58580  0.15440  0.44913  1.0000
  C   C158      1.0  0.84560  0.43140  0.11580  1.0000
  C   C159      1.0  0.56860  0.41420  0.78246  1.0000
  C   C160      1.0  0.41420  0.84560  0.44913  1.0000
  C   C161      1.0  0.15440  0.56860  0.11580  1.0000
  C   C162      1.0  0.43140  0.58580  0.78246  1.0000
  C   C163      1.0  0.15440  0.58580  0.21754  1.0000
  C   C164      1.0  0.43140  0.84560  0.55087  1.0000
  C   C165      1.0  0.41420  0.56860  0.88420  1.0000
  C   C166      1.0  0.84560  0.41420  0.21754  1.0000
  C   C167      1.0  0.56860  0.15440  0.55087  1.0000
  C   C168      1.0  0.58580  0.43140  0.88420  1.0000
  C   C169      1.0  0.86960  0.68280  0.38739  1.0000
  C   C170      1.0  0.31720  0.18680  0.05406  1.0000
  C   C171      1.0  0.81320  0.13040  0.72072  1.0000
  C   C172      1.0  0.13040  0.31720  0.38739  1.0000
  C   C173      1.0  0.68280  0.81320  0.05406  1.0000
  C   C174      1.0  0.18680  0.86960  0.72072  1.0000
  C   C175      1.0  0.68280  0.86960  0.27928  1.0000
  C   C176      1.0  0.18680  0.31720  0.61261  1.0000
  C   C177      1.0  0.13040  0.81320  0.94594  1.0000
  C   C178      1.0  0.31720  0.13040  0.27928  1.0000
  C   C179      1.0  0.81320  0.68280  0.61261  1.0000
  C   C180      1.0  0.86960  0.18680  0.94594  1.0000
  H   H109      1.0  0.87930  0.71150  0.41480  1.0000
  H   H110      1.0  0.28850  0.16780  0.08147  1.0000
  H   H111      1.0  0.83220  0.12070  0.74813  1.0000
  H   H112      1.0  0.12070  0.28850  0.41480  1.0000
  H   H113      1.0  0.71150  0.83220  0.08147  1.0000
  H   H114      1.0  0.16780  0.87930  0.74813  1.0000
  H   H115      1.0  0.71150  0.87930  0.25187  1.0000
  H   H116      1.0  0.16780  0.28850  0.58520  1.0000
  H   H117      1.0  0.12070  0.83220  0.91853  1.0000
  H   H118      1.0  0.28850  0.12070  0.25187  1.0000
  H   H119      1.0  0.83220  0.71150  0.58520  1.0000
  H   H120      1.0  0.87930  0.16780  0.91853  1.0000
  C   C181      1.0  0.99230  0.73110  0.27646  1.0000
  C   C182      1.0  0.26890  0.26120  0.94313  1.0000
  C   C183      1.0  0.73880  0.00770  0.60979  1.0000
  C   C184      1.0  0.00770  0.26890  0.27646  1.0000
  C   C185      1.0  0.73110  0.73880  0.94313  1.0000
  C   C186      1.0  0.26120  0.99230  0.60979  1.0000
  C   C187      1.0  0.73110  0.99230  0.39021  1.0000
  C   C188      1.0  0.26120  0.26890  0.72354  1.0000
  C   C189      1.0  0.00770  0.73880  0.05687  1.0000
  C   C190      1.0  0.26890  0.00770  0.39021  1.0000
  C   C191      1.0  0.73880  0.73110  0.72354  1.0000
  C   C192      1.0  0.99230  0.26120  0.05687  1.0000
  O   O61       1.0  0.07590  0.79960  0.28713  1.0000
  O   O62       1.0  0.20040  0.27630  0.95380  1.0000
  O   O63       1.0  0.72370  0.92410  0.62046  1.0000
  O   O64       1.0  0.92410  0.20040  0.28713  1.0000
  O   O65       1.0  0.79960  0.72370  0.95380  1.0000
  O   O66       1.0  0.27630  0.07590  0.62046  1.0000
  O   O67       1.0  0.79960  0.07590  0.37954  1.0000
  O   O68       1.0  0.27630  0.20040  0.71287  1.0000
  O   O69       1.0  0.92410  0.72370  0.04620  1.0000
  O   O70       1.0  0.20040  0.92410  0.37954  1.0000
  O   O71       1.0  0.72370  0.79960  0.71287  1.0000
  O   O72       1.0  0.07590  0.27630  0.04620  1.0000
  H   H121      1.0  0.14160  0.81370  0.28930  1.0000
  H   H122      1.0  0.18630  0.32790  0.95597  1.0000
  H   H123      1.0  0.67210  0.85840  0.62263  1.0000
  H   H124      1.0  0.85840  0.18630  0.28930  1.0000
  H   H125      1.0  0.81370  0.67210  0.95597  1.0000
  H   H126      1.0  0.32790  0.14160  0.62263  1.0000
  H   H127      1.0  0.81370  0.14160  0.37737  1.0000
  H   H128      1.0  0.32790  0.18630  0.71070  1.0000
  H   H129      1.0  0.85840  0.67210  0.04403  1.0000
  H   H130      1.0  0.18630  0.85840  0.37737  1.0000
  H   H131      1.0  0.67210  0.81370  0.71070  1.0000
  H   H132      1.0  0.14160  0.32790  0.04403  1.0000
  C   C193      1.0  0.67720  0.80310  0.52661  1.0000
  C   C194      1.0  0.19690  0.87410  0.19328  1.0000
  C   C195      1.0  0.12590  0.32280  0.85994  1.0000
  C   C196      1.0  0.32280  0.19690  0.52661  1.0000
  C   C197      1.0  0.80310  0.12590  0.19328  1.0000
  C   C198      1.0  0.87410  0.67720  0.85994  1.0000
  C   C199      1.0  0.80310  0.67720  0.14006  1.0000
  C   C200      1.0  0.87410  0.19690  0.47339  1.0000
  C   C201      1.0  0.32280  0.12590  0.80672  1.0000
  C   C202      1.0  0.19690  0.32280  0.14006  1.0000
  C   C203      1.0  0.12590  0.80310  0.47339  1.0000
  C   C204      1.0  0.67720  0.87410  0.80672  1.0000
  C   C205      1.0  0.74620  0.41190  0.41714  1.0000
  C   C206      1.0  0.58810  0.33430  0.08381  1.0000
  C   C207      1.0  0.66570  0.25380  0.75047  1.0000
  C   C208      1.0  0.25380  0.58810  0.41714  1.0000
  C   C209      1.0  0.41190  0.66570  0.08381  1.0000
  C   C210      1.0  0.33430  0.74620  0.75047  1.0000
  C   C211      1.0  0.41190  0.74620  0.24953  1.0000
  C   C212      1.0  0.33430  0.58810  0.58286  1.0000
  C   C213      1.0  0.25380  0.66570  0.91619  1.0000
  C   C214      1.0  0.58810  0.25380  0.24953  1.0000
  C   C215      1.0  0.66570  0.41190  0.58286  1.0000
  C   C216      1.0  0.74620  0.33430  0.91619  1.0000
  H   H133      1.0  0.80870  0.45120  0.40780  1.0000
  H   H134      1.0  0.54880  0.35750  0.07447  1.0000
  H   H135      1.0  0.64250  0.19130  0.74113  1.0000
  H   H136      1.0  0.19130  0.54880  0.40780  1.0000
  H   H137      1.0  0.45120  0.64250  0.07447  1.0000
  H   H138      1.0  0.35750  0.80870  0.74113  1.0000
  H   H139      1.0  0.45120  0.80870  0.25887  1.0000
  H   H140      1.0  0.35750  0.54880  0.59220  1.0000
  H   H141      1.0  0.19130  0.64250  0.92553  1.0000
  H   H142      1.0  0.54880  0.19130  0.25887  1.0000
  H   H143      1.0  0.64250  0.45120  0.59220  1.0000
  H   H144      1.0  0.80870  0.35750  0.92553  1.0000
  C   C217      1.0  0.92210  0.68690  0.31313  1.0000
  C   C218      1.0  0.31310  0.23520  0.97980  1.0000
  C   C219      1.0  0.76480  0.07790  0.64646  1.0000
  C   C220      1.0  0.07790  0.31310  0.31313  1.0000
  C   C221      1.0  0.68690  0.76480  0.97980  1.0000
  C   C222      1.0  0.23520  0.92210  0.64646  1.0000
  C   C223      1.0  0.68690  0.92210  0.35354  1.0000
  C   C224      1.0  0.23520  0.31310  0.68687  1.0000
  C   C225      1.0  0.07790  0.76480  0.02020  1.0000
  C   C226      1.0  0.31310  0.07790  0.35354  1.0000
  C   C227      1.0  0.76480  0.68690  0.68687  1.0000
  C   C228      1.0  0.92210  0.23520  0.02020  1.0000
  C   C229      1.0  0.68350  0.74260  0.45249  1.0000
  C   C230      1.0  0.25740  0.94090  0.11916  1.0000
  C   C231      1.0  0.05910  0.31650  0.78582  1.0000
  C   C232      1.0  0.31650  0.25740  0.45249  1.0000
  C   C233      1.0  0.74260  0.05910  0.11916  1.0000
  C   C234      1.0  0.94090  0.68350  0.78582  1.0000
  C   C235      1.0  0.74260  0.68350  0.21418  1.0000
  C   C236      1.0  0.94090  0.25740  0.54751  1.0000
  C   C237      1.0  0.31650  0.05910  0.88084  1.0000
  C   C238      1.0  0.25740  0.31650  0.21418  1.0000
  C   C239      1.0  0.05910  0.74260  0.54751  1.0000
  C   C240      1.0  0.68350  0.94090  0.88084  1.0000
  H   H145      1.0  0.68190  0.79490  0.44080  1.0000
  H   H146      1.0  0.20510  0.88700  0.10747  1.0000
  H   H147      1.0  0.11300  0.31810  0.77413  1.0000
  H   H148      1.0  0.31810  0.20510  0.44080  1.0000
  H   H149      1.0  0.79490  0.11300  0.10747  1.0000
  H   H150      1.0  0.88700  0.68190  0.77413  1.0000
  H   H151      1.0  0.79490  0.68190  0.22587  1.0000
  H   H152      1.0  0.88700  0.20510  0.55920  1.0000
  H   H153      1.0  0.31810  0.11300  0.89253  1.0000
  H   H154      1.0  0.20510  0.31810  0.22587  1.0000
  H   H155      1.0  0.11300  0.79490  0.55920  1.0000
  H   H156      1.0  0.68190  0.88700  0.89253  1.0000
  C   C241      1.0  0.67650  0.72860  0.49756  1.0000
  C   C242      1.0  0.27140  0.94790  0.16423  1.0000
  C   C243      1.0  0.05210  0.32350  0.83089  1.0000
  C   C244      1.0  0.32350  0.27140  0.49756  1.0000
  C   C245      1.0  0.72860  0.05210  0.16423  1.0000
  C   C246      1.0  0.94790  0.67650  0.83089  1.0000
  C   C247      1.0  0.72860  0.67650  0.16911  1.0000
  C   C248      1.0  0.94790  0.27140  0.50244  1.0000
  C   C249      1.0  0.32350  0.05210  0.83577  1.0000
  C   C250      1.0  0.27140  0.32350  0.16911  1.0000
  C   C251      1.0  0.05210  0.72860  0.50244  1.0000
  C   C252      1.0  0.67650  0.94790  0.83577  1.0000
