data_image0
_chemical_formula_structural       Cu4O28H8N4C4H4C4H4C8H4C4H4C24
_chemical_formula_sum              "Cu4 O28 H24 N4 C44"
_cell_length_a       10.1763
_cell_length_b       11.1598
_cell_length_c       14.8557
_cell_angle_alpha    90
_cell_angle_beta     107.035
_cell_angle_gamma    90

_space_group_name_H-M_alt    "P 1"
_space_group_IT_number       1

loop_
  _space_group_symop_operation_xyz
  'x, y, z'

loop_
  _atom_site_type_symbol
  _atom_site_label
  _atom_site_symmetry_multiplicity
  _atom_site_fract_x
  _atom_site_fract_y
  _atom_site_fract_z
  _atom_site_occupancy
  Cu  Cu1       1.0  0.03066  0.25026  0.00000  1.0000
  Cu  Cu2       1.0  0.03066  0.74974  0.50000  1.0000
  Cu  Cu3       1.0  0.96934  0.74974  0.00000  1.0000
  Cu  Cu4       1.0  0.96934  0.25026  0.50000  1.0000
  O   O1        1.0  0.85090  0.17220  0.99140  1.0000
  O   O2        1.0  0.85090  0.82780  0.49140  1.0000
  O   O3        1.0  0.14910  0.82780  0.00860  1.0000
  O   O4        1.0  0.14910  0.17220  0.50860  1.0000
  O   O5        1.0  0.70700  0.06760  0.04630  1.0000
  O   O6        1.0  0.70700  0.93240  0.54630  1.0000
  O   O7        1.0  0.29300  0.93240  0.95370  1.0000
  O   O8        1.0  0.29300  0.06760  0.45370  1.0000
  O   O9        1.0  0.98750  0.36550  0.08440  1.0000
  O   O10       1.0  0.98750  0.63450  0.58440  1.0000
  O   O11       1.0  0.01250  0.63450  0.91560  1.0000
  O   O12       1.0  0.01250  0.36550  0.41560  1.0000
  O   O13       1.0  0.86710  0.42350  0.17870  1.0000
  O   O14       1.0  0.86710  0.57650  0.67870  1.0000
  O   O15       1.0  0.13290  0.57650  0.82130  1.0000
  O   O16       1.0  0.13290  0.42350  0.32130  1.0000
  O   O17       1.0  0.94010  0.88440  0.07560  1.0000
  O   O18       1.0  0.94010  0.11560  0.57560  1.0000
  O   O19       1.0  0.05990  0.11560  0.92440  1.0000
  O   O20       1.0  0.05990  0.88440  0.42440  1.0000
  O   O21       1.0  0.85570  0.81840  0.19050  1.0000
  O   O22       1.0  0.85570  0.18160  0.69050  1.0000
  O   O23       1.0  0.14430  0.18160  0.80950  1.0000
  O   O24       1.0  0.14430  0.81840  0.30950  1.0000
  O   O25       1.0  0.94110  0.36380  0.86100  1.0000
  O   O26       1.0  0.94110  0.63620  0.36100  1.0000
  O   O27       1.0  0.05890  0.63620  0.13900  1.0000
  O   O28       1.0  0.05890  0.36380  0.63900  1.0000
  H   H1        1.0  0.97200  0.42900  0.85000  1.0000
  H   H2        1.0  0.97200  0.57100  0.35000  1.0000
  H   H3        1.0  0.02800  0.57100  0.15000  1.0000
  H   H4        1.0  0.02800  0.42900  0.65000  1.0000
  H   H5        1.0  0.93400  0.33100  0.81600  1.0000
  H   H6        1.0  0.93400  0.66900  0.31600  1.0000
  H   H7        1.0  0.06600  0.66900  0.18400  1.0000
  H   H8        1.0  0.06600  0.33100  0.68400  1.0000
  N   N1        1.0  0.21340  0.32910  0.01810  1.0000
  N   N2        1.0  0.21340  0.67090  0.51810  1.0000
  N   N3        1.0  0.78660  0.67090  0.98190  1.0000
  N   N4        1.0  0.78660  0.32910  0.48190  1.0000
  C   C1        1.0  0.21880  0.44880  0.02910  1.0000
  C   C2        1.0  0.21880  0.55120  0.52910  1.0000
  C   C3        1.0  0.78120  0.55120  0.97090  1.0000
  C   C4        1.0  0.78120  0.44880  0.47090  1.0000
  H   H9        1.0  0.14470  0.48720  0.04120  1.0000
  H   H10       1.0  0.14470  0.51280  0.54120  1.0000
  H   H11       1.0  0.85530  0.51280  0.95880  1.0000
  H   H12       1.0  0.85530  0.48720  0.45880  1.0000
  C   C5        1.0  0.32790  0.51680  0.02330  1.0000
  C   C6        1.0  0.32790  0.48320  0.52330  1.0000
  C   C7        1.0  0.67210  0.48320  0.97670  1.0000
  C   C8        1.0  0.67210  0.51680  0.47670  1.0000
  H   H13       1.0  0.32570  0.59950  0.03090  1.0000
  H   H14       1.0  0.32570  0.40050  0.53090  1.0000
  H   H15       1.0  0.67430  0.40050  0.96910  1.0000
  H   H16       1.0  0.67430  0.59950  0.46910  1.0000
  C   C9        1.0  0.44160  0.46420  0.00630  1.0000
  C   C10       1.0  0.44160  0.53580  0.50630  1.0000
  C   C11       1.0  0.55840  0.53580  0.99370  1.0000
  C   C12       1.0  0.55840  0.46420  0.49370  1.0000
  C   C13       1.0  0.43910  0.33920  0.00000  1.0000
  C   C14       1.0  0.43910  0.66080  0.50000  1.0000
  C   C15       1.0  0.56090  0.66080  0.00000  1.0000
  C   C16       1.0  0.56090  0.33920  0.50000  1.0000
  H   H17       1.0  0.51470  0.29840  0.99220  1.0000
  H   H18       1.0  0.51470  0.70160  0.49220  1.0000
  H   H19       1.0  0.48530  0.70160  0.00780  1.0000
  H   H20       1.0  0.48530  0.29840  0.50780  1.0000
  C   C17       1.0  0.32530  0.27580  0.00520  1.0000
  C   C18       1.0  0.32530  0.72420  0.50520  1.0000
  C   C19       1.0  0.67470  0.72420  0.99480  1.0000
  C   C20       1.0  0.67470  0.27580  0.49480  1.0000
  H   H21       1.0  0.32590  0.19280  0.99960  1.0000
  H   H22       1.0  0.32590  0.80720  0.49960  1.0000
  H   H23       1.0  0.67410  0.80720  0.00040  1.0000
  H   H24       1.0  0.67410  0.19280  0.50040  1.0000
  C   C21       1.0  0.93320  0.34810  0.15120  1.0000
  C   C22       1.0  0.93320  0.65190  0.65120  1.0000
  C   C23       1.0  0.06680  0.65190  0.84880  1.0000
  C   C24       1.0  0.06680  0.34810  0.34880  1.0000
  C   C25       1.0  0.96310  0.22800  0.20150  1.0000
  C   C26       1.0  0.96310  0.77200  0.70150  1.0000
  C   C27       1.0  0.03690  0.77200  0.79850  1.0000
  C   C28       1.0  0.03690  0.22800  0.29850  1.0000
  C   C29       1.0  0.81930  0.11900  0.05640  1.0000
  C   C30       1.0  0.81930  0.88100  0.55640  1.0000
  C   C31       1.0  0.18070  0.88100  0.94360  1.0000
  C   C32       1.0  0.18070  0.11900  0.44360  1.0000
  C   C33       1.0  0.92010  0.11990  0.15540  1.0000
  C   C34       1.0  0.92010  0.88010  0.65540  1.0000
  C   C35       1.0  0.07990  0.88010  0.84460  1.0000
  C   C36       1.0  0.07990  0.11990  0.34460  1.0000
  C   C37       1.0  0.95780  0.01190  0.20330  1.0000
  C   C38       1.0  0.95780  0.98810  0.70330  1.0000
  C   C39       1.0  0.04220  0.98810  0.79670  1.0000
  C   C40       1.0  0.04220  0.01190  0.29670  1.0000
  C   C41       1.0  0.91240  0.89430  0.15300  1.0000
  C   C42       1.0  0.91240  0.10570  0.65300  1.0000
  C   C43       1.0  0.08760  0.10570  0.84700  1.0000
  C   C44       1.0  0.08760  0.89430  0.34700  1.0000
