data_image0
_chemical_formula_structural       U4O64C32
_chemical_formula_sum              "U4 O64 C32"
_cell_length_a       19.6703
_cell_length_b       11.9387
_cell_length_c       12.8072
_cell_angle_alpha    90
_cell_angle_beta     117.811
_cell_angle_gamma    90

_space_group_name_H-M_alt    "P 1"
_space_group_IT_number       1

loop_
  _space_group_symop_operation_xyz
  'x, y, z'

loop_
  _atom_site_type_symbol
  _atom_site_label
  _atom_site_symmetry_multiplicity
  _atom_site_fract_x
  _atom_site_fract_y
  _atom_site_fract_z
  _atom_site_occupancy
  U   U1        1.0  0.50000  0.94835  0.75000  1.0000
  U   U2        1.0  0.00000  0.44835  0.75000  1.0000
  U   U3        1.0  0.50000  0.05165  0.25000  1.0000
  U   U4        1.0  0.00000  0.55165  0.25000  1.0000
  O   O1        1.0  0.46569  0.78200  0.82080  1.0000
  O   O2        1.0  0.53431  0.78200  0.67920  1.0000
  O   O3        1.0  0.96569  0.28200  0.82080  1.0000
  O   O4        1.0  0.03431  0.28200  0.67920  1.0000
  O   O5        1.0  0.53431  0.21800  0.17920  1.0000
  O   O6        1.0  0.46569  0.21800  0.32080  1.0000
  O   O7        1.0  0.03431  0.71800  0.17920  1.0000
  O   O8        1.0  0.96569  0.71800  0.32080  1.0000
  O   O9        1.0  0.38118  0.64430  0.78650  1.0000
  O   O10       1.0  0.61882  0.64430  0.71350  1.0000
  O   O11       1.0  0.88118  0.14430  0.78650  1.0000
  O   O12       1.0  0.11882  0.14430  0.71350  1.0000
  O   O13       1.0  0.61882  0.35570  0.21350  1.0000
  O   O14       1.0  0.38118  0.35570  0.28650  1.0000
  O   O15       1.0  0.11882  0.85570  0.21350  1.0000
  O   O16       1.0  0.88118  0.85570  0.28650  1.0000
  O   O17       1.0  0.26792  0.79210  0.64160  1.0000
  O   O18       1.0  0.73208  0.79210  0.85840  1.0000
  O   O19       1.0  0.76792  0.29210  0.64160  1.0000
  O   O20       1.0  0.23208  0.29210  0.85840  1.0000
  O   O21       1.0  0.73208  0.20790  0.35840  1.0000
  O   O22       1.0  0.26792  0.20790  0.14160  1.0000
  O   O23       1.0  0.23208  0.70790  0.35840  1.0000
  O   O24       1.0  0.76792  0.70790  0.14160  1.0000
  O   O25       1.0  0.36311  0.90500  0.65680  1.0000
  O   O26       1.0  0.63689  0.90500  0.84320  1.0000
  O   O27       1.0  0.86311  0.40500  0.65680  1.0000
  O   O28       1.0  0.13689  0.40500  0.84320  1.0000
  O   O29       1.0  0.63689  0.09500  0.34320  1.0000
  O   O30       1.0  0.36311  0.09500  0.15680  1.0000
  O   O31       1.0  0.13689  0.59500  0.34320  1.0000
  O   O32       1.0  0.86311  0.59500  0.15680  1.0000
  O   O33       1.0  0.43390  0.11690  0.65370  1.0000
  O   O34       1.0  0.56610  0.11690  0.84630  1.0000
  O   O35       1.0  0.93390  0.61690  0.65370  1.0000
  O   O36       1.0  0.06610  0.61690  0.84630  1.0000
  O   O37       1.0  0.56610  0.88310  0.34630  1.0000
  O   O38       1.0  0.43390  0.88310  0.15370  1.0000
  O   O39       1.0  0.06610  0.38310  0.34630  1.0000
  O   O40       1.0  0.93390  0.38310  0.15370  1.0000
  O   O41       1.0  0.43390  0.30260  0.64150  1.0000
  O   O42       1.0  0.56610  0.30260  0.85850  1.0000
  O   O43       1.0  0.93390  0.80260  0.64150  1.0000
  O   O44       1.0  0.06610  0.80260  0.85850  1.0000
  O   O45       1.0  0.56610  0.69740  0.35850  1.0000
  O   O46       1.0  0.43390  0.69740  0.14150  1.0000
  O   O47       1.0  0.06610  0.19740  0.35850  1.0000
  O   O48       1.0  0.93390  0.19740  0.14150  1.0000
  O   O49       1.0  0.43240  0.03300  0.85620  1.0000
  O   O50       1.0  0.56760  0.03300  0.64380  1.0000
  O   O51       1.0  0.93240  0.53300  0.85620  1.0000
  O   O52       1.0  0.06760  0.53300  0.64380  1.0000
  O   O53       1.0  0.56760  0.96700  0.14380  1.0000
  O   O54       1.0  0.43240  0.96700  0.35620  1.0000
  O   O55       1.0  0.06760  0.46700  0.14380  1.0000
  O   O56       1.0  0.93240  0.46700  0.35620  1.0000
  O   O57       1.0  0.43380  0.07330  0.02820  1.0000
  O   O58       1.0  0.56620  0.07330  0.47180  1.0000
  O   O59       1.0  0.93380  0.57330  0.02820  1.0000
  O   O60       1.0  0.06620  0.57330  0.47180  1.0000
  O   O61       1.0  0.56620  0.92670  0.97180  1.0000
  O   O62       1.0  0.43380  0.92670  0.52820  1.0000
  O   O63       1.0  0.06620  0.42670  0.97180  1.0000
  O   O64       1.0  0.93380  0.42670  0.52820  1.0000
  C   C1        1.0  0.39850  0.73920  0.77070  1.0000
  C   C2        1.0  0.60150  0.73920  0.72930  1.0000
  C   C3        1.0  0.89850  0.23920  0.77070  1.0000
  C   C4        1.0  0.10150  0.23920  0.72930  1.0000
  C   C5        1.0  0.60150  0.26080  0.22930  1.0000
  C   C6        1.0  0.39850  0.26080  0.27070  1.0000
  C   C7        1.0  0.10150  0.76080  0.22930  1.0000
  C   C8        1.0  0.89850  0.76080  0.27070  1.0000
  C   C9        1.0  0.33630  0.81860  0.68150  1.0000
  C   C10       1.0  0.66370  0.81860  0.81850  1.0000
  C   C11       1.0  0.83630  0.31860  0.68150  1.0000
  C   C12       1.0  0.16370  0.31860  0.81850  1.0000
  C   C13       1.0  0.66370  0.18140  0.31850  1.0000
  C   C14       1.0  0.33630  0.18140  0.18150  1.0000
  C   C15       1.0  0.16370  0.68140  0.31850  1.0000
  C   C16       1.0  0.83630  0.68140  0.18150  1.0000
  C   C17       1.0  0.46210  0.21410  0.69100  1.0000
  C   C18       1.0  0.53790  0.21410  0.80900  1.0000
  C   C19       1.0  0.96210  0.71410  0.69100  1.0000
  C   C20       1.0  0.03790  0.71410  0.80900  1.0000
  C   C21       1.0  0.53790  0.78590  0.30900  1.0000
  C   C22       1.0  0.46210  0.78590  0.19100  1.0000
  C   C23       1.0  0.03790  0.28590  0.30900  1.0000
  C   C24       1.0  0.96210  0.28590  0.19100  1.0000
  C   C25       1.0  0.46150  0.03090  0.96680  1.0000
  C   C26       1.0  0.53850  0.03090  0.53320  1.0000
  C   C27       1.0  0.96150  0.53090  0.96680  1.0000
  C   C28       1.0  0.03850  0.53090  0.53320  1.0000
  C   C29       1.0  0.53850  0.96910  0.03320  1.0000
  C   C30       1.0  0.46150  0.96910  0.46680  1.0000
  C   C31       1.0  0.03850  0.46910  0.03320  1.0000
  C   C32       1.0  0.96150  0.46910  0.46680  1.0000
