data_image0
_chemical_formula_structural       Th4O64C32
_chemical_formula_sum              "Th4 O64 C32"
_cell_length_a       19.5854
_cell_length_b       12.078
_cell_length_c       12.9363
_cell_angle_alpha    90
_cell_angle_beta     118.161
_cell_angle_gamma    90

_space_group_name_H-M_alt    "P 1"
_space_group_IT_number       1

loop_
  _space_group_symop_operation_xyz
  'x, y, z'

loop_
  _atom_site_type_symbol
  _atom_site_label
  _atom_site_symmetry_multiplicity
  _atom_site_fract_x
  _atom_site_fract_y
  _atom_site_fract_z
  _atom_site_occupancy
  Th  Th1       1.0  0.50000  0.94800  0.75000  1.0000
  Th  Th2       1.0  0.00000  0.44800  0.75000  1.0000
  Th  Th3       1.0  0.50000  0.05200  0.25000  1.0000
  Th  Th4       1.0  0.00000  0.55200  0.25000  1.0000
  O   O1        1.0  0.46511  0.77930  0.82215  1.0000
  O   O2        1.0  0.53489  0.77930  0.67785  1.0000
  O   O3        1.0  0.96511  0.27930  0.82215  1.0000
  O   O4        1.0  0.03489  0.27930  0.67785  1.0000
  O   O5        1.0  0.53489  0.22070  0.17785  1.0000
  O   O6        1.0  0.46511  0.22070  0.32215  1.0000
  O   O7        1.0  0.03489  0.72070  0.17785  1.0000
  O   O8        1.0  0.96511  0.72070  0.32215  1.0000
  O   O9        1.0  0.38082  0.64230  0.78640  1.0000
  O   O10       1.0  0.61918  0.64230  0.71360  1.0000
  O   O11       1.0  0.88082  0.14230  0.78640  1.0000
  O   O12       1.0  0.11918  0.14230  0.71360  1.0000
  O   O13       1.0  0.61918  0.35770  0.21360  1.0000
  O   O14       1.0  0.38082  0.35770  0.28640  1.0000
  O   O15       1.0  0.11918  0.85770  0.21360  1.0000
  O   O16       1.0  0.88082  0.85770  0.28640  1.0000
  O   O17       1.0  0.26605  0.78680  0.64260  1.0000
  O   O18       1.0  0.73395  0.78680  0.85740  1.0000
  O   O19       1.0  0.76605  0.28680  0.64260  1.0000
  O   O20       1.0  0.23395  0.28680  0.85740  1.0000
  O   O21       1.0  0.73395  0.21320  0.35740  1.0000
  O   O22       1.0  0.26605  0.21320  0.14260  1.0000
  O   O23       1.0  0.23395  0.71320  0.35740  1.0000
  O   O24       1.0  0.76605  0.71320  0.14260  1.0000
  O   O25       1.0  0.36043  0.89950  0.65510  1.0000
  O   O26       1.0  0.63957  0.89950  0.84490  1.0000
  O   O27       1.0  0.86043  0.39950  0.65510  1.0000
  O   O28       1.0  0.13957  0.39950  0.84490  1.0000
  O   O29       1.0  0.63957  0.10050  0.34490  1.0000
  O   O30       1.0  0.36043  0.10050  0.15510  1.0000
  O   O31       1.0  0.13957  0.60050  0.34490  1.0000
  O   O32       1.0  0.86043  0.60050  0.15510  1.0000
  O   O33       1.0  0.43317  0.11828  0.65362  1.0000
  O   O34       1.0  0.56683  0.11828  0.84638  1.0000
  O   O35       1.0  0.93317  0.61828  0.65362  1.0000
  O   O36       1.0  0.06683  0.61828  0.84638  1.0000
  O   O37       1.0  0.56683  0.88172  0.34638  1.0000
  O   O38       1.0  0.43317  0.88172  0.15362  1.0000
  O   O39       1.0  0.06683  0.38172  0.34638  1.0000
  O   O40       1.0  0.93317  0.38172  0.15362  1.0000
  O   O41       1.0  0.43490  0.30160  0.64040  1.0000
  O   O42       1.0  0.56510  0.30160  0.85960  1.0000
  O   O43       1.0  0.93490  0.80160  0.64040  1.0000
  O   O44       1.0  0.06510  0.80160  0.85960  1.0000
  O   O45       1.0  0.56510  0.69840  0.35960  1.0000
  O   O46       1.0  0.43490  0.69840  0.14040  1.0000
  O   O47       1.0  0.06510  0.19840  0.35960  1.0000
  O   O48       1.0  0.93490  0.19840  0.14040  1.0000
  O   O49       1.0  0.43078  0.03066  0.85659  1.0000
  O   O50       1.0  0.56922  0.03066  0.64341  1.0000
  O   O51       1.0  0.93078  0.53066  0.85659  1.0000
  O   O52       1.0  0.06922  0.53066  0.64341  1.0000
  O   O53       1.0  0.56922  0.96934  0.14341  1.0000
  O   O54       1.0  0.43078  0.96934  0.35659  1.0000
  O   O55       1.0  0.06922  0.46934  0.14341  1.0000
  O   O56       1.0  0.93078  0.46934  0.35659  1.0000
  O   O57       1.0  0.43320  0.07191  0.02722  1.0000
  O   O58       1.0  0.56680  0.07191  0.47278  1.0000
  O   O59       1.0  0.93320  0.57191  0.02722  1.0000
  O   O60       1.0  0.06680  0.57191  0.47278  1.0000
  O   O61       1.0  0.56680  0.92809  0.97278  1.0000
  O   O62       1.0  0.43320  0.92809  0.52722  1.0000
  O   O63       1.0  0.06680  0.42809  0.97278  1.0000
  O   O64       1.0  0.93320  0.42809  0.52722  1.0000
  C   C1        1.0  0.39831  0.73680  0.77130  1.0000
  C   C2        1.0  0.60169  0.73680  0.72870  1.0000
  C   C3        1.0  0.89831  0.23680  0.77130  1.0000
  C   C4        1.0  0.10169  0.23680  0.72870  1.0000
  C   C5        1.0  0.60169  0.26320  0.22870  1.0000
  C   C6        1.0  0.39831  0.26320  0.27130  1.0000
  C   C7        1.0  0.10169  0.76320  0.22870  1.0000
  C   C8        1.0  0.89831  0.76320  0.27130  1.0000
  C   C9        1.0  0.33434  0.81400  0.68140  1.0000
  C   C10       1.0  0.66566  0.81400  0.81860  1.0000
  C   C11       1.0  0.83434  0.31400  0.68140  1.0000
  C   C12       1.0  0.16566  0.31400  0.81860  1.0000
  C   C13       1.0  0.66566  0.18600  0.31860  1.0000
  C   C14       1.0  0.33434  0.18600  0.18140  1.0000
  C   C15       1.0  0.16566  0.68600  0.31860  1.0000
  C   C16       1.0  0.83434  0.68600  0.18140  1.0000
  C   C17       1.0  0.46260  0.21410  0.69090  1.0000
  C   C18       1.0  0.53740  0.21410  0.80910  1.0000
  C   C19       1.0  0.96260  0.71410  0.69090  1.0000
  C   C20       1.0  0.03740  0.71410  0.80910  1.0000
  C   C21       1.0  0.53740  0.78590  0.30910  1.0000
  C   C22       1.0  0.46260  0.78590  0.19090  1.0000
  C   C23       1.0  0.03740  0.28590  0.30910  1.0000
  C   C24       1.0  0.96260  0.28590  0.19090  1.0000
  C   C25       1.0  0.46070  0.03000  0.96670  1.0000
  C   C26       1.0  0.53930  0.03000  0.53330  1.0000
  C   C27       1.0  0.96070  0.53000  0.96670  1.0000
  C   C28       1.0  0.03930  0.53000  0.53330  1.0000
  C   C29       1.0  0.53930  0.97000  0.03330  1.0000
  C   C30       1.0  0.46070  0.97000  0.46670  1.0000
  C   C31       1.0  0.03930  0.47000  0.03330  1.0000
  C   C32       1.0  0.96070  0.47000  0.46670  1.0000
