data_image0
_chemical_formula_structural       U4O64C32U8O128C64
_chemical_formula_sum              "U12 O192 C96"
_cell_length_a       17.7856
_cell_length_b       35.825
_cell_length_c       12.8175
_cell_angle_alpha    90
_cell_angle_beta     101.713
_cell_angle_gamma    90

_space_group_name_H-M_alt    "P 1"
_space_group_IT_number       1

loop_
  _space_group_symop_operation_xyz
  'x, y, z'

loop_
  _atom_site_type_symbol
  _atom_site_label
  _atom_site_symmetry_multiplicity
  _atom_site_fract_x
  _atom_site_fract_y
  _atom_site_fract_z
  _atom_site_occupancy
  U   U1        1.0  0.76670  0.73262  0.51987  1.0000
  U   U2        1.0  0.23330  0.23262  0.98013  1.0000
  U   U3        1.0  0.23330  0.26738  0.48013  1.0000
  U   U4        1.0  0.76670  0.76738  0.01987  1.0000
  O   O1        1.0  0.72280  0.68060  0.40170  1.0000
  O   O2        1.0  0.27720  0.18060  0.09830  1.0000
  O   O3        1.0  0.27720  0.31940  0.59830  1.0000
  O   O4        1.0  0.72280  0.81940  0.90170  1.0000
  O   O5        1.0  0.63180  0.63890  0.34270  1.0000
  O   O6        1.0  0.36820  0.13890  0.15730  1.0000
  O   O7        1.0  0.36820  0.36110  0.65730  1.0000
  O   O8        1.0  0.63180  0.86110  0.84270  1.0000
  O   O9        1.0  0.62910  0.72260  0.47840  1.0000
  O   O10       1.0  0.37090  0.22260  0.02160  1.0000
  O   O11       1.0  0.37090  0.27740  0.52160  1.0000
  O   O12       1.0  0.62910  0.77740  0.97840  1.0000
  O   O13       1.0  0.52800  0.68990  0.39500  1.0000
  O   O14       1.0  0.47200  0.18990  0.10500  1.0000
  O   O15       1.0  0.47200  0.31010  0.60500  1.0000
  O   O16       1.0  0.52800  0.81010  0.89500  1.0000
  O   O17       1.0  0.83420  0.78900  0.49060  1.0000
  O   O18       1.0  0.16580  0.28900  0.00940  1.0000
  O   O19       1.0  0.16580  0.21100  0.50940  1.0000
  O   O20       1.0  0.83420  0.71100  0.99060  1.0000
  O   O21       1.0  0.83320  0.85020  0.47310  1.0000
  O   O22       1.0  0.16680  0.35020  0.02690  1.0000
  O   O23       1.0  0.16680  0.14980  0.52690  1.0000
  O   O24       1.0  0.83320  0.64980  0.97310  1.0000
  O   O25       1.0  0.70120  0.78900  0.55400  1.0000
  O   O26       1.0  0.29880  0.28900  0.94600  1.0000
  O   O27       1.0  0.29880  0.21100  0.44600  1.0000
  O   O28       1.0  0.70120  0.71100  0.05400  1.0000
  O   O29       1.0  0.70050  0.85090  0.55640  1.0000
  O   O30       1.0  0.29950  0.35090  0.94360  1.0000
  O   O31       1.0  0.29950  0.14910  0.44360  1.0000
  O   O32       1.0  0.70050  0.64910  0.05640  1.0000
  O   O33       1.0  0.90260  0.71530  0.56820  1.0000
  O   O34       1.0  0.09740  0.21530  0.93180  1.0000
  O   O35       1.0  0.09740  0.28470  0.43180  1.0000
  O   O36       1.0  0.90260  0.78470  0.06820  1.0000
  O   O37       1.0  0.99250  0.67270  0.63860  1.0000
  O   O38       1.0  0.00750  0.17270  0.86140  1.0000
  O   O39       1.0  0.00750  0.32730  0.36140  1.0000
  O   O40       1.0  0.99250  0.82730  0.13860  1.0000
  O   O41       1.0  0.79260  0.67370  0.61150  1.0000
  O   O42       1.0  0.20740  0.17370  0.88850  1.0000
  O   O43       1.0  0.20740  0.32630  0.38850  1.0000
  O   O44       1.0  0.79260  0.82630  0.11150  1.0000
  O   O45       1.0  0.87170  0.62460  0.64780  1.0000
  O   O46       1.0  0.12830  0.12460  0.85220  1.0000
  O   O47       1.0  0.12830  0.37540  0.35220  1.0000
  O   O48       1.0  0.87170  0.87540  0.14780  1.0000
  O   O49       1.0  0.83480  0.72540  0.36510  1.0000
  O   O50       1.0  0.16520  0.22540  0.13490  1.0000
  O   O51       1.0  0.16520  0.27460  0.63490  1.0000
  O   O52       1.0  0.83480  0.77460  0.86510  1.0000
  O   O53       1.0  0.83710  0.73980  0.19400  1.0000
  O   O54       1.0  0.16290  0.23980  0.30600  1.0000
  O   O55       1.0  0.16290  0.26020  0.80600  1.0000
  O   O56       1.0  0.83710  0.76020  0.69400  1.0000
  O   O57       1.0  0.70180  0.76230  0.34800  1.0000
  O   O58       1.0  0.29820  0.26230  0.15200  1.0000
  O   O59       1.0  0.29820  0.23770  0.65200  1.0000
  O   O60       1.0  0.70180  0.73770  0.84800  1.0000
  O   O61       1.0  0.70320  0.77490  0.17730  1.0000
  O   O62       1.0  0.29680  0.27490  0.32270  1.0000
  O   O63       1.0  0.29680  0.22510  0.82270  1.0000
  O   O64       1.0  0.70320  0.72510  0.67730  1.0000
  C   C1        1.0  0.65430  0.66970  0.38550  1.0000
  C   C2        1.0  0.34570  0.16970  0.11450  1.0000
  C   C3        1.0  0.34570  0.33030  0.61450  1.0000
  C   C4        1.0  0.65430  0.83030  0.88550  1.0000
  C   C5        1.0  0.59730  0.69590  0.42250  1.0000
  C   C6        1.0  0.40270  0.19590  0.07750  1.0000
  C   C7        1.0  0.40270  0.30410  0.57750  1.0000
  C   C8        1.0  0.59730  0.80410  0.92250  1.0000
  C   C9        1.0  0.80420  0.82150  0.49900  1.0000
  C   C10       1.0  0.19580  0.32150  0.00100  1.0000
  C   C11       1.0  0.19580  0.17850  0.50100  1.0000
  C   C12       1.0  0.80420  0.67850  0.99900  1.0000
  C   C13       1.0  0.73060  0.82100  0.53830  1.0000
  C   C14       1.0  0.26940  0.32100  0.96170  1.0000
  C   C15       1.0  0.26940  0.17900  0.46170  1.0000
  C   C16       1.0  0.73060  0.67900  0.03830  1.0000
  C   C17       1.0  0.92430  0.68380  0.61060  1.0000
  C   C18       1.0  0.07570  0.18380  0.88940  1.0000
  C   C19       1.0  0.07570  0.31620  0.38940  1.0000
  C   C20       1.0  0.92430  0.81620  0.11060  1.0000
  C   C21       1.0  0.85880  0.65780  0.62550  1.0000
  C   C22       1.0  0.14120  0.15780  0.87450  1.0000
  C   C23       1.0  0.14120  0.34220  0.37450  1.0000
  C   C24       1.0  0.85880  0.84220  0.12550  1.0000
  C   C25       1.0  0.80690  0.74150  0.27500  1.0000
  C   C26       1.0  0.19310  0.24150  0.22500  1.0000
  C   C27       1.0  0.19310  0.25850  0.72500  1.0000
  C   C28       1.0  0.80690  0.75850  0.77500  1.0000
  C   C29       1.0  0.73110  0.76180  0.26660  1.0000
  C   C30       1.0  0.26890  0.26180  0.23340  1.0000
  C   C31       1.0  0.26890  0.23820  0.73340  1.0000
  C   C32       1.0  0.73110  0.73820  0.76660  1.0000
  U   U5        1.0  0.25709  0.93385  0.50798  1.0000
  U   U6        1.0  0.74291  0.43385  0.99202  1.0000
  U   U7        1.0  0.74291  0.06615  0.49202  1.0000
  U   U8        1.0  0.25709  0.56614  0.00798  1.0000
  U   U9        1.0  0.25730  0.89948  0.00674  1.0000
  U   U10       1.0  0.74270  0.39948  0.49326  1.0000
  U   U11       1.0  0.74270  0.10052  0.99326  1.0000
  U   U12       1.0  0.25730  0.60052  0.50674  1.0000
  O   O65       1.0  0.32530  0.92620  0.18340  1.0000
  O   O66       1.0  0.67470  0.42620  0.31660  1.0000
  O   O67       1.0  0.67470  0.07380  0.81660  1.0000
  O   O68       1.0  0.32530  0.57380  0.68340  1.0000
  O   O69       1.0  0.32600  0.93730  0.35510  1.0000
  O   O70       1.0  0.67400  0.43730  0.14490  1.0000
  O   O71       1.0  0.67400  0.06270  0.64490  1.0000
  O   O72       1.0  0.32600  0.56270  0.85510  1.0000
  O   O73       1.0  0.18840  0.89360  0.16180  1.0000
  O   O74       1.0  0.81160  0.39360  0.33820  1.0000
  O   O75       1.0  0.81160  0.10640  0.83820  1.0000
  O   O76       1.0  0.18840  0.60640  0.66180  1.0000
  O   O77       1.0  0.18950  0.90510  0.33440  1.0000
  O   O78       1.0  0.81050  0.40510  0.16560  1.0000
  O   O79       1.0  0.81050  0.09490  0.66560  1.0000
  O   O80       1.0  0.18950  0.59490  0.83440  1.0000
  O   O81       1.0  0.11850  0.88580  0.96380  1.0000
  O   O82       1.0  0.88150  0.38580  0.53620  1.0000
  O   O83       1.0  0.88150  0.11420  0.03620  1.0000
  O   O84       1.0  0.11850  0.61420  0.46380  1.0000
  O   O85       1.0  0.02270  0.85040  0.88070  1.0000
  O   O86       1.0  0.97730  0.35040  0.61930  1.0000
  O   O87       1.0  0.97730  0.14960  0.11930  1.0000
  O   O88       1.0  0.02270  0.64960  0.38070  1.0000
  O   O89       1.0  0.22110  0.84430  0.90100  1.0000
  O   O90       1.0  0.77890  0.34430  0.59900  1.0000
  O   O91       1.0  0.77890  0.15570  0.09900  1.0000
  O   O92       1.0  0.22110  0.65570  0.40100  1.0000
  O   O93       1.0  0.13350  0.80000  0.84560  1.0000
  O   O94       1.0  0.86650  0.30000  0.65440  1.0000
  O   O95       1.0  0.86650  0.20000  0.15440  1.0000
  O   O96       1.0  0.13350  0.70000  0.34560  1.0000
  O   O97       1.0  0.11970  0.94800  0.47010  1.0000
  O   O98       1.0  0.88030  0.44800  0.02990  1.0000
  O   O99       1.0  0.88030  0.05200  0.52990  1.0000
  O   O100      1.0  0.11970  0.55200  0.97010  1.0000
  O   O101      1.0  0.02240  0.98270  0.38300  1.0000
  O   O102      1.0  0.97760  0.48270  0.11700  1.0000
  O   O103      1.0  0.97760  0.01730  0.61700  1.0000
  O   O104      1.0  0.02240  0.51730  0.88300  1.0000
  O   O105      1.0  0.32520  0.95350  0.97790  1.0000
  O   O106      1.0  0.67480  0.45350  0.52210  1.0000
  O   O107      1.0  0.67480  0.04650  0.02210  1.0000
  O   O108      1.0  0.32520  0.54650  0.47790  1.0000
  O   O109      1.0  0.13250  0.03090  0.32860  1.0000
  O   O110      1.0  0.86750  0.53090  0.17140  1.0000
  O   O111      1.0  0.86750  0.96910  0.67140  1.0000
  O   O112      1.0  0.13250  0.46910  0.82860  1.0000
  O   O113      1.0  0.19380  0.95780  0.03620  1.0000
  O   O114      1.0  0.80620  0.45780  0.46380  1.0000
  O   O115      1.0  0.80620  0.04220  0.96380  1.0000
  O   O116      1.0  0.19380  0.54220  0.53620  1.0000
  O   O117      1.0  0.19550  0.02020  0.03440  1.0000
  O   O118      1.0  0.80450  0.52020  0.46560  1.0000
  O   O119      1.0  0.80450  0.97980  0.96560  1.0000
  O   O120      1.0  0.19550  0.47980  0.53440  1.0000
  O   O121      1.0  0.21950  0.98570  0.38660  1.0000
  O   O122      1.0  0.78050  0.48570  0.11340  1.0000
  O   O123      1.0  0.78050  0.01430  0.61340  1.0000
  O   O124      1.0  0.21950  0.51430  0.88660  1.0000
  O   O125      1.0  0.32710  0.01520  0.94840  1.0000
  O   O126      1.0  0.67290  0.51520  0.55160  1.0000
  O   O127      1.0  0.67290  0.98480  0.05160  1.0000
  O   O128      1.0  0.32710  0.48480  0.44840  1.0000
  O   O129      1.0  0.39430  0.95010  0.55370  1.0000
  O   O130      1.0  0.60570  0.45010  0.94630  1.0000
  O   O131      1.0  0.60570  0.04990  0.44630  1.0000
  O   O132      1.0  0.39430  0.54990  0.05370  1.0000
  O   O133      1.0  0.48380  0.99020  0.63040  1.0000
  O   O134      1.0  0.51620  0.49020  0.86960  1.0000
  O   O135      1.0  0.51620  0.00980  0.36960  1.0000
  O   O136      1.0  0.48380  0.50980  0.13040  1.0000
  O   O137      1.0  0.28670  0.99280  0.59840  1.0000
  O   O138      1.0  0.71330  0.49280  0.90160  1.0000
  O   O139      1.0  0.71330  0.00720  0.40160  1.0000
  O   O140      1.0  0.28670  0.50720  0.09840  1.0000
  O   O141      1.0  0.36620  0.04060  0.64010  1.0000
  O   O142      1.0  0.63380  0.54060  0.85990  1.0000
  O   O143      1.0  0.63380  0.95940  0.35990  1.0000
  O   O144      1.0  0.36620  0.45940  0.14010  1.0000
  O   O145      1.0  0.28960  0.84350  0.11240  1.0000
  O   O146      1.0  0.71040  0.34350  0.38760  1.0000
  O   O147      1.0  0.71040  0.15650  0.88760  1.0000
  O   O148      1.0  0.28960  0.65650  0.61240  1.0000
  O   O149      1.0  0.37190  0.79680  0.16060  1.0000
  O   O150      1.0  0.62810  0.29680  0.33940  1.0000
  O   O151      1.0  0.62810  0.20320  0.83940  1.0000
  O   O152      1.0  0.37190  0.70320  0.66060  1.0000
  O   O153      1.0  0.39380  0.88340  0.05110  1.0000
  O   O154      1.0  0.60620  0.38340  0.44890  1.0000
  O   O155      1.0  0.60620  0.11660  0.94890  1.0000
  O   O156      1.0  0.39380  0.61660  0.55110  1.0000
  O   O157      1.0  0.48610  0.84530  0.12970  1.0000
  O   O158      1.0  0.51390  0.34530  0.37030  1.0000
  O   O159      1.0  0.51390  0.15470  0.87030  1.0000
  O   O160      1.0  0.48610  0.65470  0.62970  1.0000
  O   O161      1.0  0.32000  0.87620  0.48280  1.0000
  O   O162      1.0  0.68000  0.37620  0.01720  1.0000
  O   O163      1.0  0.68000  0.12380  0.51720  1.0000
  O   O164      1.0  0.32000  0.62380  0.98280  1.0000
  O   O165      1.0  0.31880  0.81270  0.48720  1.0000
  O   O166      1.0  0.68120  0.31270  0.01280  1.0000
  O   O167      1.0  0.68120  0.18730  0.51280  1.0000
  O   O168      1.0  0.31880  0.68730  0.98720  1.0000
  O   O169      1.0  0.18780  0.88000  0.54270  1.0000
  O   O170      1.0  0.81220  0.38000  0.95730  1.0000
  O   O171      1.0  0.81220  0.12000  0.45730  1.0000
  O   O172      1.0  0.18780  0.62000  0.04270  1.0000
  O   O173      1.0  0.18720  0.81880  0.57440  1.0000
  O   O174      1.0  0.81280  0.31880  0.92560  1.0000
  O   O175      1.0  0.81280  0.18120  0.42560  1.0000
  O   O176      1.0  0.18720  0.68120  0.07440  1.0000
  O   O177      1.0  0.19120  0.92830  0.83450  1.0000
  O   O178      1.0  0.80880  0.42830  0.66550  1.0000
  O   O179      1.0  0.80880  0.07170  0.16550  1.0000
  O   O180      1.0  0.19120  0.57170  0.33450  1.0000
  O   O181      1.0  0.19360  0.94370  0.66560  1.0000
  O   O182      1.0  0.80640  0.44370  0.83440  1.0000
  O   O183      1.0  0.80640  0.05630  0.33440  1.0000
  O   O184      1.0  0.19360  0.55630  0.16560  1.0000
  O   O185      1.0  0.32180  0.89140  0.85130  1.0000
  O   O186      1.0  0.67820  0.39140  0.64870  1.0000
  O   O187      1.0  0.67820  0.10860  0.14870  1.0000
  O   O188      1.0  0.32180  0.60860  0.35130  1.0000
  O   O189      1.0  0.32610  0.90650  0.68120  1.0000
  O   O190      1.0  0.67390  0.40650  0.81880  1.0000
  O   O191      1.0  0.67390  0.09350  0.31880  1.0000
  O   O192      1.0  0.32610  0.59350  0.18120  1.0000
  C   C33       1.0  0.29700  0.92570  0.26550  1.0000
  C   C34       1.0  0.70300  0.42570  0.23450  1.0000
  C   C35       1.0  0.70300  0.07430  0.73450  1.0000
  C   C36       1.0  0.29700  0.57430  0.76550  1.0000
  C   C37       1.0  0.21730  0.90640  0.25110  1.0000
  C   C38       1.0  0.78270  0.40640  0.24890  1.0000
  C   C39       1.0  0.78270  0.09360  0.74890  1.0000
  C   C40       1.0  0.21730  0.59360  0.75110  1.0000
  C   C41       1.0  0.09190  0.85890  0.90990  1.0000
  C   C42       1.0  0.90810  0.35890  0.59010  1.0000
  C   C43       1.0  0.90810  0.14110  0.09010  1.0000
  C   C44       1.0  0.09190  0.64110  0.40990  1.0000
  C   C45       1.0  0.15270  0.83140  0.88020  1.0000
  C   C46       1.0  0.84730  0.33140  0.61980  1.0000
  C   C47       1.0  0.84730  0.16860  0.11980  1.0000
  C   C48       1.0  0.15270  0.66860  0.38020  1.0000
  C   C49       1.0  0.22250  0.98880  0.02040  1.0000
  C   C50       1.0  0.77750  0.48880  0.47960  1.0000
  C   C51       1.0  0.77750  0.01120  0.97960  1.0000
  C   C52       1.0  0.22250  0.51120  0.52040  1.0000
  C   C53       1.0  0.29880  0.98650  0.97700  1.0000
  C   C54       1.0  0.70120  0.48650  0.52300  1.0000
  C   C55       1.0  0.70120  0.01350  0.02300  1.0000
  C   C56       1.0  0.29880  0.51350  0.47700  1.0000
  C   C57       1.0  0.09170  0.97470  0.40790  1.0000
  C   C58       1.0  0.90830  0.47470  0.09210  1.0000
  C   C59       1.0  0.90830  0.02530  0.59210  1.0000
  C   C60       1.0  0.09170  0.52530  0.90790  1.0000
  C   C61       1.0  0.15100  0.99990  0.37010  1.0000
  C   C62       1.0  0.84900  0.49990  0.12990  1.0000
  C   C63       1.0  0.84900  0.00010  0.62990  1.0000
  C   C64       1.0  0.15100  0.50010  0.87010  1.0000
  C   C65       1.0  0.41760  0.98110  0.59740  1.0000
  C   C66       1.0  0.58240  0.48110  0.90260  1.0000
  C   C67       1.0  0.58240  0.01890  0.40260  1.0000
  C   C68       1.0  0.41760  0.51890  0.09740  1.0000
  C   C69       1.0  0.35260  0.00770  0.61260  1.0000
  C   C70       1.0  0.64740  0.50770  0.88740  1.0000
  C   C71       1.0  0.64740  0.99230  0.38740  1.0000
  C   C72       1.0  0.35260  0.49230  0.11260  1.0000
  C   C73       1.0  0.35590  0.82830  0.12830  1.0000
  C   C74       1.0  0.64410  0.32830  0.37170  1.0000
  C   C75       1.0  0.64410  0.17170  0.87170  1.0000
  C   C76       1.0  0.35590  0.67170  0.62830  1.0000
  C   C77       1.0  0.41840  0.85450  0.10050  1.0000
  C   C78       1.0  0.58160  0.35450  0.39950  1.0000
  C   C79       1.0  0.58160  0.14550  0.89950  1.0000
  C   C80       1.0  0.41840  0.64550  0.60050  1.0000
  C   C81       1.0  0.29220  0.84390  0.50000  1.0000
  C   C82       1.0  0.70780  0.34390  0.00000  1.0000
  C   C83       1.0  0.70780  0.15610  0.50000  1.0000
  C   C84       1.0  0.29220  0.65610  0.00000  1.0000
  C   C85       1.0  0.21630  0.84670  0.54470  1.0000
  C   C86       1.0  0.78370  0.34670  0.95530  1.0000
  C   C87       1.0  0.78370  0.15330  0.45530  1.0000
  C   C88       1.0  0.21630  0.65330  0.04470  1.0000
  C   C89       1.0  0.21960  0.92840  0.75360  1.0000
  C   C90       1.0  0.78040  0.42840  0.74640  1.0000
  C   C91       1.0  0.78040  0.07160  0.24640  1.0000
  C   C92       1.0  0.21960  0.57160  0.25360  1.0000
  C   C93       1.0  0.29540  0.90650  0.76300  1.0000
  C   C94       1.0  0.70460  0.40650  0.73700  1.0000
  C   C95       1.0  0.70460  0.09350  0.23700  1.0000
  C   C96       1.0  0.29540  0.59350  0.26300  1.0000
