data_image0
_chemical_formula_structural       Np4O64C32
_chemical_formula_sum              "Np4 O64 C32"
_cell_length_a       19.6222
_cell_length_b       11.9186
_cell_length_c       12.767
_cell_angle_alpha    90
_cell_angle_beta     117.725
_cell_angle_gamma    90

_space_group_name_H-M_alt    "P 1"
_space_group_IT_number       1

loop_
  _space_group_symop_operation_xyz
  'x, y, z'

loop_
  _atom_site_type_symbol
  _atom_site_label
  _atom_site_symmetry_multiplicity
  _atom_site_fract_x
  _atom_site_fract_y
  _atom_site_fract_z
  _atom_site_occupancy
  Np  Np1       1.0  0.50000  0.94966  0.75000  1.0000
  Np  Np2       1.0  0.00000  0.44966  0.75000  1.0000
  Np  Np3       1.0  0.50000  0.05034  0.25000  1.0000
  Np  Np4       1.0  0.00000  0.55034  0.25000  1.0000
  O   O1        1.0  0.46663  0.78340  0.82238  1.0000
  O   O2        1.0  0.53337  0.78340  0.67762  1.0000
  O   O3        1.0  0.96663  0.28340  0.82238  1.0000
  O   O4        1.0  0.03337  0.28340  0.67762  1.0000
  O   O5        1.0  0.53337  0.21660  0.17762  1.0000
  O   O6        1.0  0.46663  0.21660  0.32238  1.0000
  O   O7        1.0  0.03337  0.71660  0.17762  1.0000
  O   O8        1.0  0.96663  0.71660  0.32238  1.0000
  O   O9        1.0  0.38231  0.64560  0.78840  1.0000
  O   O10       1.0  0.61769  0.64560  0.71160  1.0000
  O   O11       1.0  0.88231  0.14560  0.78840  1.0000
  O   O12       1.0  0.11769  0.14560  0.71160  1.0000
  O   O13       1.0  0.61769  0.35440  0.21160  1.0000
  O   O14       1.0  0.38231  0.35440  0.28840  1.0000
  O   O15       1.0  0.11769  0.85440  0.21160  1.0000
  O   O16       1.0  0.88231  0.85440  0.28840  1.0000
  O   O17       1.0  0.26878  0.79290  0.64271  1.0000
  O   O18       1.0  0.73122  0.79290  0.85729  1.0000
  O   O19       1.0  0.76878  0.29290  0.64271  1.0000
  O   O20       1.0  0.23122  0.29290  0.85729  1.0000
  O   O21       1.0  0.73122  0.20710  0.35729  1.0000
  O   O22       1.0  0.26878  0.20710  0.14271  1.0000
  O   O23       1.0  0.23122  0.70710  0.35729  1.0000
  O   O24       1.0  0.76878  0.70710  0.14271  1.0000
  O   O25       1.0  0.36398  0.90556  0.65667  1.0000
  O   O26       1.0  0.63602  0.90556  0.84333  1.0000
  O   O27       1.0  0.86398  0.40556  0.65667  1.0000
  O   O28       1.0  0.13602  0.40556  0.84333  1.0000
  O   O29       1.0  0.63602  0.09444  0.34333  1.0000
  O   O30       1.0  0.36398  0.09444  0.15667  1.0000
  O   O31       1.0  0.13602  0.59444  0.34333  1.0000
  O   O32       1.0  0.86398  0.59444  0.15667  1.0000
  O   O33       1.0  0.43396  0.11663  0.65369  1.0000
  O   O34       1.0  0.56604  0.11663  0.84631  1.0000
  O   O35       1.0  0.93396  0.61663  0.65369  1.0000
  O   O36       1.0  0.06604  0.61663  0.84631  1.0000
  O   O37       1.0  0.56604  0.88337  0.34631  1.0000
  O   O38       1.0  0.43396  0.88337  0.15369  1.0000
  O   O39       1.0  0.06604  0.38337  0.34631  1.0000
  O   O40       1.0  0.93396  0.38337  0.15369  1.0000
  O   O41       1.0  0.43380  0.30250  0.64090  1.0000
  O   O42       1.0  0.56620  0.30250  0.85910  1.0000
  O   O43       1.0  0.93380  0.80250  0.64090  1.0000
  O   O44       1.0  0.06620  0.80250  0.85910  1.0000
  O   O45       1.0  0.56620  0.69750  0.35910  1.0000
  O   O46       1.0  0.43380  0.69750  0.14090  1.0000
  O   O47       1.0  0.06620  0.19750  0.35910  1.0000
  O   O48       1.0  0.93380  0.19750  0.14090  1.0000
  O   O49       1.0  0.43242  0.03237  0.85580  1.0000
  O   O50       1.0  0.56758  0.03237  0.64420  1.0000
  O   O51       1.0  0.93242  0.53237  0.85580  1.0000
  O   O52       1.0  0.06758  0.53237  0.64420  1.0000
  O   O53       1.0  0.56758  0.96763  0.14420  1.0000
  O   O54       1.0  0.43242  0.96763  0.35580  1.0000
  O   O55       1.0  0.06758  0.46763  0.14420  1.0000
  O   O56       1.0  0.93242  0.46763  0.35580  1.0000
  O   O57       1.0  0.43334  0.07228  0.02822  1.0000
  O   O58       1.0  0.56666  0.07228  0.47178  1.0000
  O   O59       1.0  0.93334  0.57228  0.02822  1.0000
  O   O60       1.0  0.06666  0.57228  0.47178  1.0000
  O   O61       1.0  0.56666  0.92772  0.97178  1.0000
  O   O62       1.0  0.43334  0.92772  0.52822  1.0000
  O   O63       1.0  0.06666  0.42772  0.97178  1.0000
  O   O64       1.0  0.93334  0.42772  0.52822  1.0000
  C   C1        1.0  0.39955  0.74090  0.77230  1.0000
  C   C2        1.0  0.60045  0.74090  0.72770  1.0000
  C   C3        1.0  0.89955  0.24090  0.77230  1.0000
  C   C4        1.0  0.10045  0.24090  0.72770  1.0000
  C   C5        1.0  0.60045  0.25910  0.22770  1.0000
  C   C6        1.0  0.39955  0.25910  0.27230  1.0000
  C   C7        1.0  0.10045  0.75910  0.22770  1.0000
  C   C8        1.0  0.89955  0.75910  0.27230  1.0000
  C   C9        1.0  0.33719  0.81930  0.68235  1.0000
  C   C10       1.0  0.66281  0.81930  0.81765  1.0000
  C   C11       1.0  0.83719  0.31930  0.68235  1.0000
  C   C12       1.0  0.16281  0.31930  0.81765  1.0000
  C   C13       1.0  0.66281  0.18070  0.31765  1.0000
  C   C14       1.0  0.33719  0.18070  0.18235  1.0000
  C   C15       1.0  0.16281  0.68070  0.31765  1.0000
  C   C16       1.0  0.83719  0.68070  0.18235  1.0000
  C   C17       1.0  0.46230  0.21360  0.69070  1.0000
  C   C18       1.0  0.53770  0.21360  0.80930  1.0000
  C   C19       1.0  0.96230  0.71360  0.69070  1.0000
  C   C20       1.0  0.03770  0.71360  0.80930  1.0000
  C   C21       1.0  0.53770  0.78640  0.30930  1.0000
  C   C22       1.0  0.46230  0.78640  0.19070  1.0000
  C   C23       1.0  0.03770  0.28640  0.30930  1.0000
  C   C24       1.0  0.96230  0.28640  0.19070  1.0000
  C   C25       1.0  0.46140  0.03036  0.96681  1.0000
  C   C26       1.0  0.53860  0.03036  0.53319  1.0000
  C   C27       1.0  0.96140  0.53036  0.96681  1.0000
  C   C28       1.0  0.03860  0.53036  0.53319  1.0000
  C   C29       1.0  0.53860  0.96964  0.03319  1.0000
  C   C30       1.0  0.46140  0.96964  0.46681  1.0000
  C   C31       1.0  0.03860  0.46964  0.03319  1.0000
  C   C32       1.0  0.96140  0.46964  0.46681  1.0000
