data_image0
_chemical_formula_structural       Pu4O64C32
_chemical_formula_sum              "Pu4 O64 C32"
_cell_length_a       19.6361
_cell_length_b       11.8811
_cell_length_c       12.7195
_cell_angle_alpha    90
_cell_angle_beta     117.437
_cell_angle_gamma    90

_space_group_name_H-M_alt    "P 1"
_space_group_IT_number       1

loop_
  _space_group_symop_operation_xyz
  'x, y, z'

loop_
  _atom_site_type_symbol
  _atom_site_label
  _atom_site_symmetry_multiplicity
  _atom_site_fract_x
  _atom_site_fract_y
  _atom_site_fract_z
  _atom_site_occupancy
  Pu  Pu1       1.0  0.50000  0.94939  0.75000  1.0000
  Pu  Pu2       1.0  0.00000  0.44939  0.75000  1.0000
  Pu  Pu3       1.0  0.50000  0.05061  0.25000  1.0000
  Pu  Pu4       1.0  0.00000  0.55061  0.25000  1.0000
  O   O1        1.0  0.46598  0.78398  0.82073  1.0000
  O   O2        1.0  0.53402  0.78398  0.67927  1.0000
  O   O3        1.0  0.96598  0.28398  0.82073  1.0000
  O   O4        1.0  0.03402  0.28398  0.67927  1.0000
  O   O5        1.0  0.53402  0.21602  0.17927  1.0000
  O   O6        1.0  0.46598  0.21602  0.32073  1.0000
  O   O7        1.0  0.03402  0.71602  0.17927  1.0000
  O   O8        1.0  0.96598  0.71602  0.32073  1.0000
  O   O9        1.0  0.38125  0.64640  0.78640  1.0000
  O   O10       1.0  0.61875  0.64640  0.71360  1.0000
  O   O11       1.0  0.88125  0.14640  0.78640  1.0000
  O   O12       1.0  0.11875  0.14640  0.71360  1.0000
  O   O13       1.0  0.61875  0.35360  0.21360  1.0000
  O   O14       1.0  0.38125  0.35360  0.28640  1.0000
  O   O15       1.0  0.11875  0.85360  0.21360  1.0000
  O   O16       1.0  0.88125  0.85360  0.28640  1.0000
  O   O17       1.0  0.26867  0.79600  0.64160  1.0000
  O   O18       1.0  0.73133  0.79600  0.85840  1.0000
  O   O19       1.0  0.76867  0.29600  0.64160  1.0000
  O   O20       1.0  0.23133  0.29600  0.85840  1.0000
  O   O21       1.0  0.73133  0.20400  0.35840  1.0000
  O   O22       1.0  0.26867  0.20400  0.14160  1.0000
  O   O23       1.0  0.23133  0.70400  0.35840  1.0000
  O   O24       1.0  0.76867  0.70400  0.14160  1.0000
  O   O25       1.0  0.36437  0.90903  0.65805  1.0000
  O   O26       1.0  0.63563  0.90903  0.84195  1.0000
  O   O27       1.0  0.86437  0.40903  0.65805  1.0000
  O   O28       1.0  0.13563  0.40903  0.84195  1.0000
  O   O29       1.0  0.63563  0.09097  0.34195  1.0000
  O   O30       1.0  0.36437  0.09097  0.15805  1.0000
  O   O31       1.0  0.13563  0.59097  0.34195  1.0000
  O   O32       1.0  0.86437  0.59097  0.15805  1.0000
  O   O33       1.0  0.43425  0.11612  0.65354  1.0000
  O   O34       1.0  0.56575  0.11612  0.84646  1.0000
  O   O35       1.0  0.93425  0.61612  0.65354  1.0000
  O   O36       1.0  0.06575  0.61612  0.84646  1.0000
  O   O37       1.0  0.56575  0.88388  0.34646  1.0000
  O   O38       1.0  0.43425  0.88388  0.15354  1.0000
  O   O39       1.0  0.06575  0.38388  0.34646  1.0000
  O   O40       1.0  0.93425  0.38388  0.15354  1.0000
  O   O41       1.0  0.43420  0.30290  0.64130  1.0000
  O   O42       1.0  0.56580  0.30290  0.85870  1.0000
  O   O43       1.0  0.93420  0.80290  0.64130  1.0000
  O   O44       1.0  0.06580  0.80290  0.85870  1.0000
  O   O45       1.0  0.56580  0.69710  0.35870  1.0000
  O   O46       1.0  0.43420  0.69710  0.14130  1.0000
  O   O47       1.0  0.06580  0.19710  0.35870  1.0000
  O   O48       1.0  0.93420  0.19710  0.14130  1.0000
  O   O49       1.0  0.43276  0.03409  0.85654  1.0000
  O   O50       1.0  0.56724  0.03409  0.64346  1.0000
  O   O51       1.0  0.93276  0.53409  0.85654  1.0000
  O   O52       1.0  0.06724  0.53409  0.64346  1.0000
  O   O53       1.0  0.56724  0.96591  0.14346  1.0000
  O   O54       1.0  0.43276  0.96591  0.35654  1.0000
  O   O55       1.0  0.06724  0.46591  0.14346  1.0000
  O   O56       1.0  0.93276  0.46591  0.35654  1.0000
  O   O57       1.0  0.43462  0.07338  0.03026  1.0000
  O   O58       1.0  0.56538  0.07338  0.46974  1.0000
  O   O59       1.0  0.93462  0.57338  0.03026  1.0000
  O   O60       1.0  0.06538  0.57338  0.46974  1.0000
  O   O61       1.0  0.56538  0.92662  0.96974  1.0000
  O   O62       1.0  0.43462  0.92662  0.53026  1.0000
  O   O63       1.0  0.06538  0.42662  0.96974  1.0000
  O   O64       1.0  0.93462  0.42662  0.53026  1.0000
  C   C1        1.0  0.39880  0.74210  0.77070  1.0000
  C   C2        1.0  0.60120  0.74210  0.72930  1.0000
  C   C3        1.0  0.89880  0.24210  0.77070  1.0000
  C   C4        1.0  0.10120  0.24210  0.72930  1.0000
  C   C5        1.0  0.60120  0.25790  0.22930  1.0000
  C   C6        1.0  0.39880  0.25790  0.27070  1.0000
  C   C7        1.0  0.10120  0.75790  0.22930  1.0000
  C   C8        1.0  0.89880  0.75790  0.27070  1.0000
  C   C9        1.0  0.33709  0.82200  0.68190  1.0000
  C   C10       1.0  0.66291  0.82200  0.81810  1.0000
  C   C11       1.0  0.83709  0.32200  0.68190  1.0000
  C   C12       1.0  0.16291  0.32200  0.81810  1.0000
  C   C13       1.0  0.66291  0.17800  0.31810  1.0000
  C   C14       1.0  0.33709  0.17800  0.18190  1.0000
  C   C15       1.0  0.16291  0.67800  0.31810  1.0000
  C   C16       1.0  0.83709  0.67800  0.18190  1.0000
  C   C17       1.0  0.46220  0.21340  0.69080  1.0000
  C   C18       1.0  0.53780  0.21340  0.80920  1.0000
  C   C19       1.0  0.96220  0.71340  0.69080  1.0000
  C   C20       1.0  0.03780  0.71340  0.80920  1.0000
  C   C21       1.0  0.53780  0.78660  0.30920  1.0000
  C   C22       1.0  0.46220  0.78660  0.19080  1.0000
  C   C23       1.0  0.03780  0.28660  0.30920  1.0000
  C   C24       1.0  0.96220  0.28660  0.19080  1.0000
  C   C25       1.0  0.46170  0.03110  0.96750  1.0000
  C   C26       1.0  0.53830  0.03110  0.53250  1.0000
  C   C27       1.0  0.96170  0.53110  0.96750  1.0000
  C   C28       1.0  0.03830  0.53110  0.53250  1.0000
  C   C29       1.0  0.53830  0.96890  0.03250  1.0000
  C   C30       1.0  0.46170  0.96890  0.46750  1.0000
  C   C31       1.0  0.03830  0.46890  0.03250  1.0000
  C   C32       1.0  0.96170  0.46890  0.46750  1.0000
