data_image0
_chemical_formula_structural       Sb24V60O168Ni4N8H16C8H16C8H16N8H16
_chemical_formula_sum              "Sb24 V60 O168 Ni4 N16 H64 C16"
_cell_length_a       21.2523
_cell_length_b       31.159
_cell_length_c       18.7101
_cell_angle_alpha    90
_cell_angle_beta     92.117
_cell_angle_gamma    90

_space_group_name_H-M_alt    "P 1"
_space_group_IT_number       1

loop_
  _space_group_symop_operation_xyz
  'x, y, z'

loop_
  _atom_site_type_symbol
  _atom_site_label
  _atom_site_symmetry_multiplicity
  _atom_site_fract_x
  _atom_site_fract_y
  _atom_site_fract_z
  _atom_site_occupancy
  Sb  Sb1       1.0  0.28473  0.21538  0.32176  1.0000
  Sb  Sb2       1.0  0.71527  0.21538  0.17824  1.0000
  Sb  Sb3       1.0  0.78473  0.71538  0.32176  1.0000
  Sb  Sb4       1.0  0.21527  0.71538  0.17824  1.0000
  Sb  Sb5       1.0  0.71527  0.78462  0.67824  1.0000
  Sb  Sb6       1.0  0.28473  0.78462  0.82176  1.0000
  Sb  Sb7       1.0  0.21527  0.28462  0.67824  1.0000
  Sb  Sb8       1.0  0.78473  0.28462  0.82176  1.0000
  Sb  Sb9       1.0  0.39459  0.13647  0.37878  1.0000
  Sb  Sb10      1.0  0.60541  0.13647  0.12122  1.0000
  Sb  Sb11      1.0  0.89459  0.63647  0.37878  1.0000
  Sb  Sb12      1.0  0.10541  0.63647  0.12122  1.0000
  Sb  Sb13      1.0  0.60541  0.86353  0.62122  1.0000
  Sb  Sb14      1.0  0.39459  0.86353  0.87878  1.0000
  Sb  Sb15      1.0  0.10541  0.36353  0.62122  1.0000
  Sb  Sb16      1.0  0.89459  0.36353  0.87878  1.0000
  Sb  Sb17      1.0  0.46528  0.39567  0.33388  1.0000
  Sb  Sb18      1.0  0.53472  0.39567  0.16612  1.0000
  Sb  Sb19      1.0  0.96528  0.89567  0.33388  1.0000
  Sb  Sb20      1.0  0.03472  0.89567  0.16612  1.0000
  Sb  Sb21      1.0  0.53472  0.60433  0.66612  1.0000
  Sb  Sb22      1.0  0.46528  0.60433  0.83388  1.0000
  Sb  Sb23      1.0  0.03472  0.10433  0.66612  1.0000
  Sb  Sb24      1.0  0.96528  0.10433  0.83388  1.0000
  V   V1        1.0  0.36096  0.31219  0.33627  1.0000
  V   V2        1.0  0.63904  0.31219  0.16373  1.0000
  V   V3        1.0  0.86096  0.81219  0.33627  1.0000
  V   V4        1.0  0.13904  0.81219  0.16373  1.0000
  V   V5        1.0  0.63904  0.68781  0.66373  1.0000
  V   V6        1.0  0.36096  0.68781  0.83627  1.0000
  V   V7        1.0  0.13904  0.18781  0.66373  1.0000
  V   V8        1.0  0.86096  0.18781  0.83627  1.0000
  V   V9        1.0  0.50000  0.12381  0.25000  1.0000
  V   V10       1.0  0.00000  0.62381  0.25000  1.0000
  V   V11       1.0  0.50000  0.87619  0.75000  1.0000
  V   V12       1.0  0.00000  0.37619  0.75000  1.0000
  V   V13       1.0  0.34130  0.25410  0.16033  1.0000
  V   V14       1.0  0.65870  0.25410  0.33967  1.0000
  V   V15       1.0  0.84130  0.75410  0.16033  1.0000
  V   V16       1.0  0.15870  0.75410  0.33967  1.0000
  V   V17       1.0  0.65870  0.74590  0.83967  1.0000
  V   V18       1.0  0.34130  0.74590  0.66033  1.0000
  V   V19       1.0  0.15870  0.24590  0.83967  1.0000
  V   V20       1.0  0.84130  0.24590  0.66033  1.0000
  V   V21       1.0  0.42187  0.24861  0.43731  1.0000
  V   V22       1.0  0.57813  0.24861  0.06269  1.0000
  V   V23       1.0  0.92187  0.74861  0.43731  1.0000
  V   V24       1.0  0.07813  0.74861  0.06269  1.0000
  V   V25       1.0  0.57813  0.75139  0.56269  1.0000
  V   V26       1.0  0.42187  0.75139  0.93731  1.0000
  V   V27       1.0  0.07813  0.25139  0.56269  1.0000
  V   V28       1.0  0.92187  0.25139  0.93731  1.0000
  V   V29       1.0  0.53381  0.18861  0.41912  1.0000
  V   V30       1.0  0.46619  0.18861  0.08088  1.0000
  V   V31       1.0  0.03381  0.68861  0.41912  1.0000
  V   V32       1.0  0.96619  0.68861  0.08088  1.0000
  V   V33       1.0  0.46619  0.81139  0.58088  1.0000
  V   V34       1.0  0.53381  0.81139  0.91912  1.0000
  V   V35       1.0  0.96619  0.31139  0.58088  1.0000
  V   V36       1.0  0.03381  0.31139  0.91912  1.0000
  V   V37       1.0  0.52341  0.30744  0.42294  1.0000
  V   V38       1.0  0.47659  0.30744  0.07706  1.0000
  V   V39       1.0  0.02341  0.80744  0.42294  1.0000
  V   V40       1.0  0.97659  0.80744  0.07706  1.0000
  V   V41       1.0  0.47659  0.69256  0.57706  1.0000
  V   V42       1.0  0.52341  0.69256  0.92294  1.0000
  V   V43       1.0  0.97659  0.19256  0.57706  1.0000
  V   V44       1.0  0.02341  0.19256  0.92294  1.0000
  V   V45       1.0  0.37889  0.16117  0.18588  1.0000
  V   V46       1.0  0.62111  0.16117  0.31412  1.0000
  V   V47       1.0  0.87889  0.66117  0.18588  1.0000
  V   V48       1.0  0.12111  0.66117  0.31412  1.0000
  V   V49       1.0  0.62111  0.83883  0.81412  1.0000
  V   V50       1.0  0.37889  0.83883  0.68588  1.0000
  V   V51       1.0  0.12111  0.33883  0.81412  1.0000
  V   V52       1.0  0.87889  0.33883  0.68588  1.0000
  V   V53       1.0  0.38196  0.33959  0.18504  1.0000
  V   V54       1.0  0.61804  0.33959  0.31496  1.0000
  V   V55       1.0  0.88196  0.83959  0.18504  1.0000
  V   V56       1.0  0.11804  0.83959  0.31496  1.0000
  V   V57       1.0  0.61804  0.66041  0.81496  1.0000
  V   V58       1.0  0.38196  0.66041  0.68504  1.0000
  V   V59       1.0  0.11804  0.16041  0.81496  1.0000
  V   V60       1.0  0.88196  0.16041  0.68504  1.0000
  O   O1        1.0  0.35096  0.25161  0.36653  1.0000
  O   O2        1.0  0.64904  0.25161  0.13347  1.0000
  O   O3        1.0  0.85096  0.75161  0.36653  1.0000
  O   O4        1.0  0.14904  0.75161  0.13347  1.0000
  O   O5        1.0  0.64904  0.74839  0.63347  1.0000
  O   O6        1.0  0.35096  0.74839  0.86653  1.0000
  O   O7        1.0  0.14904  0.24839  0.63347  1.0000
  O   O8        1.0  0.85096  0.24839  0.86653  1.0000
  O   O9        1.0  0.33128  0.20797  0.23293  1.0000
  O   O10       1.0  0.66872  0.20797  0.26707  1.0000
  O   O11       1.0  0.83128  0.70797  0.23293  1.0000
  O   O12       1.0  0.16872  0.70797  0.26707  1.0000
  O   O13       1.0  0.66872  0.79203  0.76707  1.0000
  O   O14       1.0  0.33128  0.79203  0.73293  1.0000
  O   O15       1.0  0.16872  0.29203  0.76707  1.0000
  O   O16       1.0  0.83128  0.29203  0.73293  1.0000
  O   O17       1.0  0.31236  0.16224  0.36626  1.0000
  O   O18       1.0  0.68764  0.16224  0.13374  1.0000
  O   O19       1.0  0.81236  0.66224  0.36626  1.0000
  O   O20       1.0  0.18764  0.66224  0.13374  1.0000
  O   O21       1.0  0.68764  0.83776  0.63374  1.0000
  O   O22       1.0  0.31236  0.83776  0.86626  1.0000
  O   O23       1.0  0.18764  0.33776  0.63374  1.0000
  O   O24       1.0  0.81236  0.33776  0.86626  1.0000
  O   O25       1.0  0.41504  0.14141  0.27870  1.0000
  O   O26       1.0  0.58496  0.14141  0.22130  1.0000
  O   O27       1.0  0.91504  0.64141  0.27870  1.0000
  O   O28       1.0  0.08496  0.64141  0.22130  1.0000
  O   O29       1.0  0.58496  0.85859  0.72130  1.0000
  O   O30       1.0  0.41504  0.85859  0.77870  1.0000
  O   O31       1.0  0.08496  0.35859  0.72130  1.0000
  O   O32       1.0  0.91504  0.35859  0.77870  1.0000
  O   O33       1.0  0.43916  0.18825  0.41001  1.0000
  O   O34       1.0  0.56084  0.18825  0.08999  1.0000
  O   O35       1.0  0.93916  0.68825  0.41001  1.0000
  O   O36       1.0  0.06084  0.68825  0.08999  1.0000
  O   O37       1.0  0.56084  0.81175  0.58999  1.0000
  O   O38       1.0  0.43916  0.81175  0.91001  1.0000
  O   O39       1.0  0.06084  0.31175  0.58999  1.0000
  O   O40       1.0  0.93916  0.31175  0.91001  1.0000
  O   O41       1.0  0.40860  0.35674  0.28344  1.0000
  O   O42       1.0  0.59140  0.35674  0.21656  1.0000
  O   O43       1.0  0.90860  0.85674  0.28344  1.0000
  O   O44       1.0  0.09140  0.85674  0.21656  1.0000
  O   O45       1.0  0.59140  0.64326  0.71656  1.0000
  O   O46       1.0  0.40860  0.64326  0.78344  1.0000
  O   O47       1.0  0.09140  0.14326  0.71656  1.0000
  O   O48       1.0  0.90860  0.14326  0.78344  1.0000
  O   O49       1.0  0.50000  0.42226  0.25000  1.0000
  O   O50       1.0  0.00000  0.92226  0.25000  1.0000
  O   O51       1.0  0.50000  0.57774  0.75000  1.0000
  O   O52       1.0  0.00000  0.07774  0.75000  1.0000
  O   O53       1.0  0.53280  0.35491  0.35042  1.0000
  O   O54       1.0  0.46720  0.35491  0.14958  1.0000
  O   O55       1.0  0.03280  0.85491  0.35042  1.0000
  O   O56       1.0  0.96720  0.85491  0.14958  1.0000
  O   O57       1.0  0.46720  0.64509  0.64958  1.0000
  O   O58       1.0  0.53280  0.64509  0.85042  1.0000
  O   O59       1.0  0.96720  0.14509  0.64958  1.0000
  O   O60       1.0  0.03280  0.14509  0.85042  1.0000
  O   O61       1.0  0.34066  0.29527  0.23864  1.0000
  O   O62       1.0  0.65934  0.29527  0.26136  1.0000
  O   O63       1.0  0.84066  0.79527  0.23864  1.0000
  O   O64       1.0  0.15934  0.79527  0.26136  1.0000
  O   O65       1.0  0.65934  0.70473  0.76136  1.0000
  O   O66       1.0  0.34066  0.70473  0.73864  1.0000
  O   O67       1.0  0.15934  0.20473  0.76136  1.0000
  O   O68       1.0  0.84066  0.20473  0.73864  1.0000
  O   O69       1.0  0.43300  0.30666  0.40133  1.0000
  O   O70       1.0  0.56700  0.30666  0.09867  1.0000
  O   O71       1.0  0.93300  0.80666  0.40133  1.0000
  O   O72       1.0  0.06700  0.80666  0.09867  1.0000
  O   O73       1.0  0.56700  0.69334  0.59867  1.0000
  O   O74       1.0  0.43300  0.69334  0.90133  1.0000
  O   O75       1.0  0.06700  0.19334  0.59867  1.0000
  O   O76       1.0  0.93300  0.19334  0.90133  1.0000
  O   O77       1.0  0.30406  0.33809  0.37149  1.0000
  O   O78       1.0  0.69594  0.33809  0.12851  1.0000
  O   O79       1.0  0.80406  0.83809  0.37149  1.0000
  O   O80       1.0  0.19594  0.83809  0.12851  1.0000
  O   O81       1.0  0.69594  0.66191  0.62851  1.0000
  O   O82       1.0  0.30406  0.66191  0.87149  1.0000
  O   O83       1.0  0.19594  0.16191  0.62851  1.0000
  O   O84       1.0  0.80406  0.16191  0.87149  1.0000
  O   O85       1.0  0.53483  0.14778  0.34004  1.0000
  O   O86       1.0  0.46517  0.14778  0.15996  1.0000
  O   O87       1.0  0.03483  0.64778  0.34004  1.0000
  O   O88       1.0  0.96517  0.64778  0.15996  1.0000
  O   O89       1.0  0.46517  0.85222  0.65996  1.0000
  O   O90       1.0  0.53483  0.85222  0.84004  1.0000
  O   O91       1.0  0.96517  0.35222  0.65996  1.0000
  O   O92       1.0  0.03483  0.35222  0.84004  1.0000
  O   O93       1.0  0.50000  0.07255  0.25000  1.0000
  O   O94       1.0  0.00000  0.57255  0.25000  1.0000
  O   O95       1.0  0.50000  0.92745  0.75000  1.0000
  O   O96       1.0  0.00000  0.42745  0.75000  1.0000
  O   O97       1.0  0.39662  0.29469  0.11796  1.0000
  O   O98       1.0  0.60338  0.29469  0.38204  1.0000
  O   O99       1.0  0.89662  0.79469  0.11796  1.0000
  O   O100      1.0  0.10338  0.79469  0.38204  1.0000
  O   O101      1.0  0.60338  0.70531  0.88204  1.0000
  O   O102      1.0  0.39662  0.70531  0.61796  1.0000
  O   O103      1.0  0.10338  0.20531  0.88204  1.0000
  O   O104      1.0  0.89662  0.20531  0.61796  1.0000
  O   O105      1.0  0.38836  0.20840  0.12055  1.0000
  O   O106      1.0  0.61164  0.20840  0.37945  1.0000
  O   O107      1.0  0.88836  0.70840  0.12055  1.0000
  O   O108      1.0  0.11164  0.70840  0.37945  1.0000
  O   O109      1.0  0.61164  0.79160  0.87945  1.0000
  O   O110      1.0  0.38836  0.79160  0.62055  1.0000
  O   O111      1.0  0.11164  0.29160  0.87945  1.0000
  O   O112      1.0  0.88836  0.29160  0.62055  1.0000
  O   O113      1.0  0.27540  0.25781  0.11199  1.0000
  O   O114      1.0  0.72460  0.25781  0.38801  1.0000
  O   O115      1.0  0.77540  0.75781  0.11199  1.0000
  O   O116      1.0  0.22460  0.75781  0.38801  1.0000
  O   O117      1.0  0.72460  0.74219  0.88801  1.0000
  O   O118      1.0  0.27540  0.74219  0.61199  1.0000
  O   O119      1.0  0.22460  0.24219  0.88801  1.0000
  O   O120      1.0  0.77540  0.24219  0.61199  1.0000
  O   O121      1.0  0.39555  0.25077  0.51827  1.0000
  O   O122      1.0  0.60445  0.25077  0.98173  1.0000
  O   O123      1.0  0.89555  0.75077  0.51827  1.0000
  O   O124      1.0  0.10445  0.75077  0.98173  1.0000
  O   O125      1.0  0.60445  0.74923  0.48173  1.0000
  O   O126      1.0  0.39555  0.74923  0.01827  1.0000
  O   O127      1.0  0.10445  0.24923  0.48173  1.0000
  O   O128      1.0  0.89555  0.24923  0.01827  1.0000
  O   O129      1.0  0.51156  0.24735  0.43978  1.0000
  O   O130      1.0  0.48844  0.24735  0.06022  1.0000
  O   O131      1.0  0.01156  0.74735  0.43978  1.0000
  O   O132      1.0  0.98844  0.74735  0.06022  1.0000
  O   O133      1.0  0.48844  0.75265  0.56022  1.0000
  O   O134      1.0  0.51156  0.75265  0.93978  1.0000
  O   O135      1.0  0.98844  0.25265  0.56022  1.0000
  O   O136      1.0  0.01156  0.25265  0.93978  1.0000
  O   O137      1.0  0.55293  0.16399  0.49297  1.0000
  O   O138      1.0  0.44707  0.16399  0.00703  1.0000
  O   O139      1.0  0.05293  0.66399  0.49297  1.0000
  O   O140      1.0  0.94707  0.66399  0.00703  1.0000
  O   O141      1.0  0.44707  0.83601  0.50703  1.0000
  O   O142      1.0  0.55293  0.83601  0.99297  1.0000
  O   O143      1.0  0.94707  0.33601  0.50703  1.0000
  O   O144      1.0  0.05293  0.33601  0.99297  1.0000
  O   O145      1.0  0.53593  0.33072  0.49951  1.0000
  O   O146      1.0  0.46407  0.33072  0.00049  1.0000
  O   O147      1.0  0.03593  0.83072  0.49951  1.0000
  O   O148      1.0  0.96407  0.83072  0.00049  1.0000
  O   O149      1.0  0.46407  0.66928  0.50049  1.0000
  O   O150      1.0  0.53593  0.66928  0.99951  1.0000
  O   O151      1.0  0.96407  0.16928  0.50049  1.0000
  O   O152      1.0  0.03593  0.16928  0.99951  1.0000
  O   O153      1.0  0.32957  0.12705  0.15162  1.0000
  O   O154      1.0  0.67043  0.12705  0.34838  1.0000
  O   O155      1.0  0.82957  0.62705  0.15162  1.0000
  O   O156      1.0  0.17043  0.62705  0.34838  1.0000
  O   O157      1.0  0.67043  0.87295  0.84838  1.0000
  O   O158      1.0  0.32957  0.87295  0.65162  1.0000
  O   O159      1.0  0.17043  0.37295  0.84838  1.0000
  O   O160      1.0  0.82957  0.37295  0.65162  1.0000
  O   O161      1.0  0.32986  0.37296  0.15289  1.0000
  O   O162      1.0  0.67014  0.37296  0.34711  1.0000
  O   O163      1.0  0.82986  0.87296  0.15289  1.0000
  O   O164      1.0  0.17014  0.87296  0.34711  1.0000
  O   O165      1.0  0.67014  0.62704  0.84711  1.0000
  O   O166      1.0  0.32986  0.62704  0.65289  1.0000
  O   O167      1.0  0.17014  0.12704  0.84711  1.0000
  O   O168      1.0  0.82986  0.12704  0.65289  1.0000
  Ni  Ni1       1.0  0.25000  0.25000  0.00000  1.0000
  Ni  Ni2       1.0  0.75000  0.25000  0.50000  1.0000
  Ni  Ni3       1.0  0.75000  0.75000  0.00000  1.0000
  Ni  Ni4       1.0  0.25000  0.75000  0.50000  1.0000
  N   N1        1.0  0.28438  0.18702  0.00459  1.0000
  N   N2        1.0  0.71562  0.18702  0.49541  1.0000
  N   N3        1.0  0.78438  0.68702  0.00459  1.0000
  N   N4        1.0  0.21562  0.68702  0.49541  1.0000
  N   N5        1.0  0.71562  0.81298  0.99541  1.0000
  N   N6        1.0  0.28438  0.81298  0.50459  1.0000
  N   N7        1.0  0.21562  0.31298  0.99541  1.0000
  N   N8        1.0  0.78438  0.31298  0.50459  1.0000
  H   H1        1.0  0.30210  0.18010  0.96260  1.0000
  H   H2        1.0  0.69790  0.18010  0.53740  1.0000
  H   H3        1.0  0.80210  0.68010  0.96260  1.0000
  H   H4        1.0  0.19790  0.68010  0.53740  1.0000
  H   H5        1.0  0.69790  0.81990  0.03740  1.0000
  H   H6        1.0  0.30210  0.81990  0.46260  1.0000
  H   H7        1.0  0.19790  0.31990  0.03740  1.0000
  H   H8        1.0  0.80210  0.31990  0.46260  1.0000
  H   H9        1.0  0.31430  0.18460  0.04040  1.0000
  H   H10       1.0  0.68570  0.18460  0.45960  1.0000
  H   H11       1.0  0.81430  0.68460  0.04040  1.0000
  H   H12       1.0  0.18570  0.68460  0.45960  1.0000
  H   H13       1.0  0.68570  0.81540  0.95960  1.0000
  H   H14       1.0  0.31430  0.81540  0.54040  1.0000
  H   H15       1.0  0.18570  0.31540  0.95960  1.0000
  H   H16       1.0  0.81430  0.31540  0.54040  1.0000
  C   C1        1.0  0.23100  0.15767  0.01800  1.0000
  C   C2        1.0  0.76900  0.15767  0.48200  1.0000
  C   C3        1.0  0.73100  0.65767  0.01800  1.0000
  C   C4        1.0  0.26900  0.65767  0.48200  1.0000
  C   C5        1.0  0.76900  0.84233  0.98200  1.0000
  C   C6        1.0  0.23100  0.84233  0.51800  1.0000
  C   C7        1.0  0.26900  0.34233  0.98200  1.0000
  C   C8        1.0  0.73100  0.34233  0.51800  1.0000
  H   H17       1.0  0.24680  0.13080  0.04060  1.0000
  H   H18       1.0  0.75320  0.13080  0.45940  1.0000
  H   H19       1.0  0.74680  0.63080  0.04060  1.0000
  H   H20       1.0  0.25320  0.63080  0.45940  1.0000
  H   H21       1.0  0.75320  0.86920  0.95940  1.0000
  H   H22       1.0  0.24680  0.86920  0.54060  1.0000
  H   H23       1.0  0.25320  0.36920  0.95940  1.0000
  H   H24       1.0  0.74680  0.36920  0.54060  1.0000
  H   H25       1.0  0.20870  0.15020  0.97230  1.0000
  H   H26       1.0  0.79130  0.15020  0.52770  1.0000
  H   H27       1.0  0.70870  0.65020  0.97230  1.0000
  H   H28       1.0  0.29130  0.65020  0.52770  1.0000
  H   H29       1.0  0.79130  0.84980  0.02770  1.0000
  H   H30       1.0  0.20870  0.84980  0.47230  1.0000
  H   H31       1.0  0.29130  0.34980  0.02770  1.0000
  H   H32       1.0  0.70870  0.34980  0.47230  1.0000
  C   C9        1.0  0.18618  0.17996  0.06700  1.0000
  C   C10       1.0  0.81382  0.17996  0.43300  1.0000
  C   C11       1.0  0.68618  0.67996  0.06700  1.0000
  C   C12       1.0  0.31382  0.67996  0.43300  1.0000
  C   C13       1.0  0.81382  0.82004  0.93300  1.0000
  C   C14       1.0  0.18618  0.82004  0.56700  1.0000
  C   C15       1.0  0.31382  0.32004  0.93300  1.0000
  C   C16       1.0  0.68618  0.32004  0.56700  1.0000
  H   H33       1.0  0.14850  0.16190  0.07350  1.0000
  H   H34       1.0  0.85150  0.16190  0.42650  1.0000
  H   H35       1.0  0.64850  0.66190  0.07350  1.0000
  H   H36       1.0  0.35150  0.66190  0.42650  1.0000
  H   H37       1.0  0.85150  0.83810  0.92650  1.0000
  H   H38       1.0  0.14850  0.83810  0.57350  1.0000
  H   H39       1.0  0.35150  0.33810  0.92650  1.0000
  H   H40       1.0  0.64850  0.33810  0.57350  1.0000
  H   H41       1.0  0.20700  0.18490  0.11450  1.0000
  H   H42       1.0  0.79300  0.18490  0.38550  1.0000
  H   H43       1.0  0.70700  0.68490  0.11450  1.0000
  H   H44       1.0  0.29300  0.68490  0.38550  1.0000
  H   H45       1.0  0.79300  0.81510  0.88550  1.0000
  H   H46       1.0  0.20700  0.81510  0.61450  1.0000
  H   H47       1.0  0.29300  0.31510  0.88550  1.0000
  H   H48       1.0  0.70700  0.31510  0.61450  1.0000
  N   N9        1.0  0.16783  0.22124  0.03408  1.0000
  N   N10       1.0  0.83217  0.22124  0.46592  1.0000
  N   N11       1.0  0.66783  0.72124  0.03408  1.0000
  N   N12       1.0  0.33217  0.72124  0.46592  1.0000
  N   N13       1.0  0.83217  0.77876  0.96592  1.0000
  N   N14       1.0  0.16783  0.77876  0.53408  1.0000
  N   N15       1.0  0.33217  0.27876  0.96592  1.0000
  N   N16       1.0  0.66783  0.27876  0.53408  1.0000
  H   H49       1.0  0.14900  0.23830  0.06650  1.0000
  H   H50       1.0  0.85100  0.23830  0.43350  1.0000
  H   H51       1.0  0.64900  0.73830  0.06650  1.0000
  H   H52       1.0  0.35100  0.73830  0.43350  1.0000
  H   H53       1.0  0.85100  0.76170  0.93350  1.0000
  H   H54       1.0  0.14900  0.76170  0.56650  1.0000
  H   H55       1.0  0.35100  0.26170  0.93350  1.0000
  H   H56       1.0  0.64900  0.26170  0.56650  1.0000
  H   H57       1.0  0.14040  0.21690  0.99630  1.0000
  H   H58       1.0  0.85960  0.21690  0.50370  1.0000
  H   H59       1.0  0.64040  0.71690  0.99630  1.0000
  H   H60       1.0  0.35960  0.71690  0.50370  1.0000
  H   H61       1.0  0.85960  0.78310  0.00370  1.0000
  H   H62       1.0  0.14040  0.78310  0.49630  1.0000
  H   H63       1.0  0.35960  0.28310  0.00370  1.0000
  H   H64       1.0  0.64040  0.28310  0.49630  1.0000
