data_image0
_chemical_formula_structural       Mo4Fe4O32C8
_chemical_formula_sum              "Mo4 Fe4 O32 C8"
_cell_length_a       5.5813
_cell_length_b       13.994
_cell_length_c       13.2282
_cell_angle_alpha    90
_cell_angle_beta     93.1
_cell_angle_gamma    90

_space_group_name_H-M_alt    "P 1"
_space_group_IT_number       1

loop_
  _space_group_symop_operation_xyz
  'x, y, z'

loop_
  _atom_site_type_symbol
  _atom_site_label
  _atom_site_symmetry_multiplicity
  _atom_site_fract_x
  _atom_site_fract_y
  _atom_site_fract_z
  _atom_site_occupancy
  Mo  Mo1       1.0  0.60703  0.27382  0.29233  1.0000
  Mo  Mo2       1.0  0.39297  0.77382  0.20767  1.0000
  Mo  Mo3       1.0  0.39297  0.72618  0.70767  1.0000
  Mo  Mo4       1.0  0.60703  0.22618  0.79233  1.0000
  Fe  Fe1       1.0  0.48298  0.52023  0.25100  1.0000
  Fe  Fe2       1.0  0.51702  0.02023  0.24900  1.0000
  Fe  Fe3       1.0  0.51702  0.47977  0.74900  1.0000
  Fe  Fe4       1.0  0.48298  0.97977  0.75100  1.0000
  O   O1        1.0  0.47450  0.37270  0.22480  1.0000
  O   O2        1.0  0.52550  0.87270  0.27520  1.0000
  O   O3        1.0  0.52550  0.62730  0.77520  1.0000
  O   O4        1.0  0.47450  0.12730  0.72480  1.0000
  O   O5        1.0  0.91610  0.28350  0.29340  1.0000
  O   O6        1.0  0.08390  0.78350  0.20660  1.0000
  O   O7        1.0  0.08390  0.71650  0.70660  1.0000
  O   O8        1.0  0.91610  0.21650  0.79340  1.0000
  O   O9        1.0  0.52900  0.27390  0.42010  1.0000
  O   O10       1.0  0.47100  0.77390  0.07990  1.0000
  O   O11       1.0  0.47100  0.72610  0.57990  1.0000
  O   O12       1.0  0.52900  0.22610  0.92010  1.0000
  O   O13       1.0  0.51410  0.16700  0.23080  1.0000
  O   O14       1.0  0.48590  0.66700  0.26920  1.0000
  O   O15       1.0  0.48590  0.83300  0.76920  1.0000
  O   O16       1.0  0.51410  0.33300  0.73080  1.0000
  O   O17       1.0  0.16980  0.53000  0.14740  1.0000
  O   O18       1.0  0.83020  0.03000  0.35260  1.0000
  O   O19       1.0  0.83020  0.47000  0.85260  1.0000
  O   O20       1.0  0.16980  0.97000  0.64740  1.0000
  O   O21       1.0  0.19580  0.50810  0.35110  1.0000
  O   O22       1.0  0.80420  0.00810  0.14890  1.0000
  O   O23       1.0  0.80420  0.49190  0.64890  1.0000
  O   O24       1.0  0.19580  0.99190  0.85110  1.0000
  O   O25       1.0  0.79700  0.50430  0.35140  1.0000
  O   O26       1.0  0.20300  0.00430  0.14860  1.0000
  O   O27       1.0  0.20300  0.49570  0.64860  1.0000
  O   O28       1.0  0.79700  0.99570  0.85140  1.0000
  O   O29       1.0  0.76930  0.52680  0.14800  1.0000
  O   O30       1.0  0.23070  0.02680  0.35200  1.0000
  O   O31       1.0  0.23070  0.47320  0.85200  1.0000
  O   O32       1.0  0.76930  0.97320  0.64800  1.0000
  C   C1        1.0  0.97590  0.52360  0.19050  1.0000
  C   C2        1.0  0.02410  0.02360  0.30950  1.0000
  C   C3        1.0  0.02410  0.47640  0.80950  1.0000
  C   C4        1.0  0.97590  0.97640  0.69050  1.0000
  C   C5        1.0  0.99190  0.51020  0.30730  1.0000
  C   C6        1.0  0.00810  0.01020  0.19270  1.0000
  C   C7        1.0  0.00810  0.48980  0.69270  1.0000
  C   C8        1.0  0.99190  0.98980  0.80730  1.0000
