data_image0
_chemical_formula_structural       Sm2O2H2O4H2O4H4O4H2O12N4C6H2C2H2C2H2C8H2C2H2C2H2C10H6
_chemical_formula_sum              "Sm2 O26 H28 N4 C32"
_cell_length_a       10.889
_cell_length_b       11.454
_cell_length_c       13.192
_cell_angle_alpha    108.803
_cell_angle_beta     95.641
_cell_angle_gamma    113.361

_space_group_name_H-M_alt    "P 1"
_space_group_IT_number       1

loop_
  _space_group_symop_operation_xyz
  'x, y, z'

loop_
  _atom_site_type_symbol
  _atom_site_label
  _atom_site_symmetry_multiplicity
  _atom_site_fract_x
  _atom_site_fract_y
  _atom_site_fract_z
  _atom_site_occupancy
  Sm  Sm1       1.0  0.35703  0.80614  0.00715  1.0000
  Sm  Sm2       1.0  0.64297  0.19386  0.99285  1.0000
  O   O1        1.0  0.12680  0.69210  0.03830  1.0000
  O   O2        1.0  0.87320  0.30790  0.96170  1.0000
  H   H1        1.0  0.12720  0.63850  0.06710  1.0000
  H   H2        1.0  0.87280  0.36150  0.93290  1.0000
  O   O3        1.0  0.31090  0.31370  0.33090  1.0000
  O   O4        1.0  0.68910  0.68630  0.66910  1.0000
  O   O5        1.0  0.34730  0.99670  0.14570  1.0000
  O   O6        1.0  0.65270  0.00330  0.85430  1.0000
  H   H3        1.0  0.35270  0.98800  0.20500  1.0000
  H   H4        1.0  0.64730  0.01200  0.79500  1.0000
  O   O7        1.0  0.28290  0.45110  0.10330  1.0000
  O   O8        1.0  0.71710  0.54890  0.89670  1.0000
  O   O9        1.0  0.43880  0.75250  0.82760  1.0000
  O   O10       1.0  0.56120  0.24750  0.17240  1.0000
  H   H5        1.0  0.37100  0.73600  0.77100  1.0000
  H   H6        1.0  0.62900  0.26400  0.22900  1.0000
  H   H7        1.0  0.45500  0.69700  0.80400  1.0000
  H   H8        1.0  0.54500  0.30300  0.19600  1.0000
  O   O11       1.0  0.11560  0.51110  0.13300  1.0000
  O   O12       1.0  0.88440  0.48890  0.86700  1.0000
  O   O13       1.0  0.30510  0.56180  0.94490  1.0000
  O   O14       1.0  0.69490  0.43820  0.05510  1.0000
  H   H9        1.0  0.35300  0.54600  0.90330  1.0000
  H   H10       1.0  0.64700  0.45400  0.09670  1.0000
  O   O15       1.0  0.60630  0.00840  0.06760  1.0000
  O   O16       1.0  0.39370  0.99160  0.93240  1.0000
  O   O17       1.0  0.58120  0.80190  0.04470  1.0000
  O   O18       1.0  0.41880  0.19810  0.95530  1.0000
  O   O19       1.0  0.79790  0.24020  0.29870  1.0000
  O   O20       1.0  0.20210  0.75980  0.70130  1.0000
  O   O21       1.0  0.83130  0.28640  0.15190  1.0000
  O   O22       1.0  0.16870  0.71360  0.84810  1.0000
  O   O23       1.0  0.37960  0.77100  0.17450  1.0000
  O   O24       1.0  0.62040  0.22900  0.82550  1.0000
  O   O25       1.0  0.36820  0.92970  0.31710  1.0000
  O   O26       1.0  0.63180  0.07030  0.68290  1.0000
  N   N1        1.0  0.23700  0.36720  0.30580  1.0000
  N   N2        1.0  0.76300  0.63280  0.69420  1.0000
  N   N3        1.0  0.11310  0.31230  0.27040  1.0000
  N   N4        1.0  0.88690  0.68770  0.72960  1.0000
  C   C1        1.0  0.29850  0.58780  0.28840  1.0000
  C   C2        1.0  0.70150  0.41220  0.71160  1.0000
  C   C3        1.0  0.30280  0.51690  0.35450  1.0000
  C   C4        1.0  0.69720  0.48310  0.64550  1.0000
  C   C5        1.0  0.36950  0.58180  0.46630  1.0000
  C   C6        1.0  0.63050  0.41820  0.53370  1.0000
  H   H11       1.0  0.37470  0.53110  0.50790  1.0000
  H   H12       1.0  0.62530  0.46890  0.49210  1.0000
  C   C7        1.0  0.42780  0.72380  0.51390  1.0000
  C   C8        1.0  0.57220  0.27620  0.48610  1.0000
  H   H13       1.0  0.47150  0.77040  0.58930  1.0000
  H   H14       1.0  0.52850  0.22960  0.41070  1.0000
  C   C9        1.0  0.42240  0.79650  0.45210  1.0000
  C   C10       1.0  0.57760  0.20350  0.54790  1.0000
  H   H15       1.0  0.45960  0.89240  0.48630  1.0000
  H   H16       1.0  0.54040  0.10760  0.51370  1.0000
  C   C11       1.0  0.36180  0.72990  0.33740  1.0000
  C   C12       1.0  0.63820  0.27010  0.66260  1.0000
  C   C13       1.0  0.22580  0.50960  0.16440  1.0000
  C   C14       1.0  0.77420  0.49040  0.83560  1.0000
  C   C15       1.0  0.03630  0.16680  0.20850  1.0000
  C   C16       1.0  0.96370  0.83320  0.79150  1.0000
  C   C17       1.0  0.09240  0.07680  0.17400  1.0000
  C   C18       1.0  0.90760  0.92320  0.82600  1.0000
  H   H17       1.0  0.18780  0.10960  0.19480  1.0000
  H   H18       1.0  0.81220  0.89040  0.80520  1.0000
  C   C19       1.0  0.00890  0.93940  0.10940  1.0000
  C   C20       1.0  0.99110  0.06060  0.89060  1.0000
  H   H19       1.0  0.04750  0.87900  0.08730  1.0000
  H   H20       1.0  0.95250  0.12100  0.91270  1.0000
  C   C21       1.0  0.86680  0.89060  0.07700  1.0000
  C   C22       1.0  0.13320  0.10940  0.92300  1.0000
  H   H21       1.0  0.80990  0.79750  0.03280  1.0000
  H   H22       1.0  0.19010  0.20250  0.96720  1.0000
  C   C23       1.0  0.80880  0.98170  0.11090  1.0000
  C   C24       1.0  0.19120  0.01830  0.88910  1.0000
  C   C25       1.0  0.89380  0.12040  0.17670  1.0000
  C   C26       1.0  0.10620  0.87960  0.82330  1.0000
  C   C27       1.0  0.65760  0.92710  0.07140  1.0000
  C   C28       1.0  0.34240  0.07290  0.92860  1.0000
  C   C29       1.0  0.37000  0.81880  0.27220  1.0000
  C   C30       1.0  0.63000  0.18120  0.72780  1.0000
  C   C31       1.0  0.83480  0.22240  0.21380  1.0000
  C   C32       1.0  0.16520  0.77760  0.78620  1.0000
  H   H23       1.0  0.06100  0.65600  0.97900  1.0000
  H   H24       1.0  0.93900  0.34400  0.02100  1.0000
  H   H25       1.0  0.40500  0.07400  0.15800  1.0000
  H   H26       1.0  0.59500  0.92600  0.84200  1.0000
  H   H27       1.0  0.30000  0.51100  0.00300  1.0000
  H   H28       1.0  0.70000  0.48900  0.99700  1.0000
