data_image0
_chemical_formula_structural       Tb2O4H4O4H4O4H4O4H4O10N4C6H2C2H2C2H2C10H2C2H2C2H2C8
_chemical_formula_sum              "Tb2 O26 H28 N4 C32"
_cell_length_a       10.9023
_cell_length_b       11.4881
_cell_length_c       13.1686
_cell_angle_alpha    108.622
_cell_angle_beta     95.609
_cell_angle_gamma    113.432

_space_group_name_H-M_alt    "P 1"
_space_group_IT_number       1

loop_
  _space_group_symop_operation_xyz
  'x, y, z'

loop_
  _atom_site_type_symbol
  _atom_site_label
  _atom_site_symmetry_multiplicity
  _atom_site_fract_x
  _atom_site_fract_y
  _atom_site_fract_z
  _atom_site_occupancy
  Tb  Tb1       1.0  0.14292  0.19394  0.49316  1.0000
  Tb  Tb2       1.0  0.85708  0.80606  0.50684  1.0000
  O   O1        1.0  0.11990  0.22920  0.32780  1.0000
  O   O2        1.0  0.88010  0.77080  0.67220  1.0000
  O   O3        1.0  0.37040  0.30580  0.46100  1.0000
  O   O4        1.0  0.62960  0.69420  0.53900  1.0000
  H   H1        1.0  0.44200  0.35200  0.51100  1.0000
  H   H2        1.0  0.55800  0.64800  0.48900  1.0000
  H   H3        1.0  0.37100  0.36000  0.43100  1.0000
  H   H4        1.0  0.62900  0.64000  0.56900  1.0000
  O   O5        1.0  0.13450  0.07100  0.18550  1.0000
  O   O6        1.0  0.86550  0.92900  0.81450  1.0000
  O   O7        1.0  0.19510  0.43380  0.55550  1.0000
  O   O8        1.0  0.80490  0.56620  0.44450  1.0000
  H   H5        1.0  0.13140  0.45470  0.59060  1.0000
  H   H6        1.0  0.86860  0.54530  0.40940  1.0000
  H   H7        1.0  0.19670  0.46480  0.49790  1.0000
  H   H8        1.0  0.80330  0.53520  0.50210  1.0000
  O   O9        1.0  0.38500  0.48860  0.36700  1.0000
  O   O10       1.0  0.61500  0.51140  0.63300  1.0000
  O   O11       1.0  0.06010  0.24510  0.67070  1.0000
  O   O12       1.0  0.93990  0.75490  0.32930  1.0000
  H   H9        1.0  0.04270  0.31760  0.68460  1.0000
  H   H10       1.0  0.95730  0.68240  0.31540  1.0000
  H   H11       1.0  0.12370  0.26400  0.72990  1.0000
  H   H12       1.0  0.87630  0.73600  0.27010  1.0000
  O   O13       1.0  0.21740  0.54940  0.39650  1.0000
  O   O14       1.0  0.78260  0.45060  0.60350  1.0000
  O   O15       1.0  0.15350  0.00600  0.35830  1.0000
  O   O16       1.0  0.84650  0.99400  0.64170  1.0000
  H   H13       1.0  0.22770  0.00080  0.38010  1.0000
  H   H14       1.0  0.77230  0.99920  0.61990  1.0000
  H   H15       1.0  0.15440  0.01730  0.29670  1.0000
  H   H16       1.0  0.84560  0.98270  0.70330  1.0000
  O   O17       1.0  0.70190  0.75800  0.20090  1.0000
  O   O18       1.0  0.29810  0.24200  0.79910  1.0000
  O   O19       1.0  0.67160  0.71480  0.35070  1.0000
  O   O20       1.0  0.32840  0.28520  0.64930  1.0000
  O   O21       1.0  0.89540  0.99060  0.43180  1.0000
  O   O22       1.0  0.10460  0.00940  0.56820  1.0000
  O   O23       1.0  0.92190  0.19840  0.45670  1.0000
  O   O24       1.0  0.07810  0.80160  0.54330  1.0000
  O   O25       1.0  0.18870  0.68680  0.16790  1.0000
  O   O26       1.0  0.81130  0.31320  0.83210  1.0000
  N   N1        1.0  0.26210  0.63180  0.19280  1.0000
  N   N2        1.0  0.73790  0.36820  0.80720  1.0000
  N   N3        1.0  0.38700  0.68660  0.23150  1.0000
  N   N4        1.0  0.61300  0.31340  0.76850  1.0000
  C   C1        1.0  0.13030  0.18200  0.22970  1.0000
  C   C2        1.0  0.86970  0.81800  0.77030  1.0000
  C   C3        1.0  0.13720  0.26900  0.16270  1.0000
  C   C4        1.0  0.86280  0.73100  0.83730  1.0000
  C   C5        1.0  0.07510  0.20190  0.04850  1.0000
  C   C6        1.0  0.92490  0.79810  0.95150  1.0000
  H   H17       1.0  0.03710  0.10630  0.01530  1.0000
  H   H18       1.0  0.96290  0.89370  0.98470  1.0000
  C   C7        1.0  0.06900  0.27430  0.98460  1.0000
  C   C8        1.0  0.93100  0.72570  0.01540  1.0000
  H   H19       1.0  0.02540  0.22770  0.90920  1.0000
  H   H20       1.0  0.97460  0.77230  0.09080  1.0000
  C   C9        1.0  0.12800  0.41620  0.03270  1.0000
  C   C10       1.0  0.87200  0.58380  0.96730  1.0000
  H   H21       1.0  0.12260  0.46660  0.99090  1.0000
  H   H22       1.0  0.87740  0.53340  0.00910  1.0000
  C   C11       1.0  0.19530  0.48220  0.14460  1.0000
  C   C12       1.0  0.80470  0.51780  0.85540  1.0000
  C   C13       1.0  0.20150  0.41240  0.21250  1.0000
  C   C14       1.0  0.79850  0.58760  0.78750  1.0000
  C   C15       1.0  0.27370  0.49040  0.33560  1.0000
  C   C16       1.0  0.72630  0.50960  0.66440  1.0000
  C   C17       1.0  0.46400  0.83310  0.29230  1.0000
  C   C18       1.0  0.53600  0.16690  0.70770  1.0000
  C   C19       1.0  0.40760  0.92400  0.32640  1.0000
  C   C20       1.0  0.59240  0.07600  0.67360  1.0000
  H   H23       1.0  0.31250  0.89230  0.30500  1.0000
  H   H24       1.0  0.68750  0.10770  0.69500  1.0000
  C   C21       1.0  0.49280  0.06100  0.39180  1.0000
  C   C22       1.0  0.50720  0.93900  0.60820  1.0000
  H   H25       1.0  0.45490  0.12130  0.41550  1.0000
  H   H26       1.0  0.54510  0.87870  0.58450  1.0000
  C   C23       1.0  0.63470  0.10920  0.42230  1.0000
  C   C24       1.0  0.36530  0.89080  0.57770  1.0000
  H   H27       1.0  0.69210  0.20230  0.46460  1.0000
  H   H28       1.0  0.30790  0.79770  0.53540  1.0000
  C   C25       1.0  0.69160  0.01790  0.38930  1.0000
  C   C26       1.0  0.30840  0.98210  0.61070  1.0000
  C   C27       1.0  0.60740  0.87930  0.32440  1.0000
  C   C28       1.0  0.39260  0.12070  0.67560  1.0000
  C   C29       1.0  0.66490  0.77690  0.28650  1.0000
  C   C30       1.0  0.33510  0.22310  0.71350  1.0000
  C   C31       1.0  0.84500  0.07250  0.42880  1.0000
  C   C32       1.0  0.15500  0.92750  0.57120  1.0000
