data_image0
_chemical_formula_structural       Mg6O14H2O26C6H2C2H2C4H2C2H2C4H2C2H2C4H2C2H2C8H2C2H2C4H2C2H2C4H2C2H2C4H2C2H2C8H2C2H2C4H2C2H2C4H2C2H2C4H2C2H2C8H2C2H2C4H2C2H2C4H2C2H2C4H2C2H2C2
_chemical_formula_sum              "Mg6 O40 H66 C112"
_cell_length_a       10.3169
_cell_length_b       14.591
_cell_length_c       19.9242
_cell_angle_alpha    81.023
_cell_angle_beta     87.629
_cell_angle_gamma    80.676

_space_group_name_H-M_alt    "P 1"
_space_group_IT_number       1

loop_
  _space_group_symop_operation_xyz
  'x, y, z'

loop_
  _atom_site_type_symbol
  _atom_site_label
  _atom_site_symmetry_multiplicity
  _atom_site_fract_x
  _atom_site_fract_y
  _atom_site_fract_z
  _atom_site_occupancy
  Mg  Mg1       1.0  0.70203  0.38483  0.13687  1.0000
  Mg  Mg2       1.0  0.29797  0.61517  0.86313  1.0000
  Mg  Mg3       1.0  0.50000  0.50000  0.00000  1.0000
  Mg  Mg4       1.0  0.20038  0.85490  0.61557  1.0000
  Mg  Mg5       1.0  0.79962  0.14510  0.38443  1.0000
  Mg  Mg6       1.0  0.00000  1.00000  0.50000  1.0000
  O   O1        1.0  0.64049  0.51712  0.15245  1.0000
  O   O2        1.0  0.35951  0.48288  0.84755  1.0000
  O   O3        1.0  0.53791  0.59490  0.05927  1.0000
  O   O4        1.0  0.46209  0.40510  0.94073  1.0000
  O   O5        1.0  0.50901  0.92537  0.23378  1.0000
  O   O6        1.0  0.49099  0.07463  0.76622  1.0000
  O   O7        1.0  0.37268  0.87500  0.55150  1.0000
  O   O8        1.0  0.62732  0.12500  0.44850  1.0000
  O   O9        1.0  0.17623  0.90703  0.51062  1.0000
  O   O10       1.0  0.82377  0.09297  0.48938  1.0000
  O   O11       1.0  0.80034  0.24186  0.12544  1.0000
  O   O12       1.0  0.19966  0.75814  0.87456  1.0000
  O   O13       1.0  0.72686  0.12641  0.19581  1.0000
  O   O14       1.0  0.27314  0.87359  0.80419  1.0000
  H   H1        1.0  0.71800  0.16760  0.22440  1.0000
  H   H2        1.0  0.28200  0.83240  0.77560  1.0000
  O   O15       1.0  0.83705  0.94505  0.92563  1.0000
  O   O16       1.0  0.16295  0.05495  0.07437  1.0000
  O   O17       1.0  0.46012  0.67698  0.85090  1.0000
  O   O18       1.0  0.53988  0.32302  0.14910  1.0000
  O   O19       1.0  0.59285  0.57407  0.92200  1.0000
  O   O20       1.0  0.40715  0.42593  0.07800  1.0000
  O   O21       1.0  0.76863  0.35569  0.23198  1.0000
  O   O22       1.0  0.23137  0.64431  0.76802  1.0000
  O   O23       1.0  0.71921  0.23665  0.30665  1.0000
  O   O24       1.0  0.28079  0.76335  0.69335  1.0000
  O   O25       1.0  0.65282  0.56746  0.48513  1.0000
  O   O26       1.0  0.34718  0.43254  0.51487  1.0000
  O   O27       1.0  0.91446  0.89892  0.56184  1.0000
  O   O28       1.0  0.08554  0.10108  0.43816  1.0000
  O   O29       1.0  0.05893  0.77822  0.60699  1.0000
  O   O30       1.0  0.94107  0.22178  0.39301  1.0000
  O   O31       1.0  0.84423  0.03544  0.33698  1.0000
  O   O32       1.0  0.15577  0.96456  0.66302  1.0000
  O   O33       1.0  0.95420  0.94158  0.42125  1.0000
  O   O34       1.0  0.04580  0.05842  0.57875  1.0000
  O   O35       1.0  0.95274  0.64017  0.23025  1.0000
  O   O36       1.0  0.04726  0.35983  0.76975  1.0000
  O   O37       1.0  0.13403  0.58734  0.92877  1.0000
  O   O38       1.0  0.86597  0.41266  0.07123  1.0000
  O   O39       1.0  0.32478  0.59174  0.97116  1.0000
  O   O40       1.0  0.67522  0.40826  0.02884  1.0000
  C   C1        1.0  0.58303  0.58991  0.11712  1.0000
  C   C2        1.0  0.41697  0.41009  0.88288  1.0000
  C   C3        1.0  0.56662  0.67943  0.14733  1.0000
  C   C4        1.0  0.43338  0.32057  0.85267  1.0000
  C   C5        1.0  0.50946  0.76358  0.11131  1.0000
  C   C6        1.0  0.49054  0.23642  0.88869  1.0000
  H   H3        1.0  0.48370  0.76570  0.06680  1.0000
  H   H4        1.0  0.51630  0.23430  0.93320  1.0000
  C   C7        1.0  0.48979  0.84501  0.14032  1.0000
  C   C8        1.0  0.51021  0.15499  0.85968  1.0000
  H   H5        1.0  0.45150  0.90150  0.11550  1.0000
  H   H6        1.0  0.54850  0.09850  0.88450  1.0000
  C   C9        1.0  0.52722  0.84170  0.20606  1.0000
  C   C10       1.0  0.47278  0.15830  0.79394  1.0000
  C   C11       1.0  0.58678  0.75926  0.24238  1.0000
  C   C12       1.0  0.41322  0.24074  0.75762  1.0000
  H   H7        1.0  0.61350  0.75780  0.28660  1.0000
  H   H8        1.0  0.38650  0.24220  0.71340  1.0000
  C   C13       1.0  0.60687  0.67832  0.21297  1.0000
  C   C14       1.0  0.39313  0.32168  0.78703  1.0000
  H   H9        1.0  0.64790  0.62240  0.23750  1.0000
  H   H10       1.0  0.35210  0.37760  0.76250  1.0000
  C   C15       1.0  0.45685  0.91977  0.29955  1.0000
  C   C16       1.0  0.54315  0.08023  0.70045  1.0000
  C   C17       1.0  0.52702  0.94300  0.34974  1.0000
  C   C18       1.0  0.47298  0.05700  0.65026  1.0000
  H   H11       1.0  0.60810  0.96240  0.33980  1.0000
  H   H12       1.0  0.39190  0.03760  0.66020  1.0000
  C   C19       1.0  0.47614  0.93729  0.41524  1.0000
  C   C20       1.0  0.52386  0.06271  0.58476  1.0000
  H   H13       1.0  0.52460  0.95140  0.44960  1.0000
  H   H14       1.0  0.47540  0.04860  0.55040  1.0000
  C   C21       1.0  0.35419  0.91093  0.43044  1.0000
  C   C22       1.0  0.64581  0.08907  0.56956  1.0000
  C   C23       1.0  0.28224  0.89165  0.37830  1.0000
  C   C24       1.0  0.71776  0.10835  0.62170  1.0000
  H   H15       1.0  0.19840  0.87650  0.38730  1.0000
  H   H16       1.0  0.80160  0.12350  0.61270  1.0000
  C   C25       1.0  0.33453  0.89482  0.31320  1.0000
  C   C26       1.0  0.66547  0.10518  0.68680  1.0000
  H   H17       1.0  0.28710  0.88010  0.27870  1.0000
  H   H18       1.0  0.71290  0.11990  0.72130  1.0000
  C   C27       1.0  0.29985  0.89875  0.50122  1.0000
  C   C28       1.0  0.70015  0.10125  0.49878  1.0000
  C   C29       1.0  0.77015  0.16373  0.13605  1.0000
  C   C30       1.0  0.22985  0.83627  0.86395  1.0000
  C   C31       1.0  0.78195  0.10278  0.08282  1.0000
  C   C32       1.0  0.21805  0.89722  0.91718  1.0000
  C   C33       1.0  0.84342  0.13247  0.02214  1.0000
  C   C34       1.0  0.15658  0.86753  0.97786  1.0000
  H   H19       1.0  0.87460  0.18960  0.01610  1.0000
  H   H20       1.0  0.12540  0.81040  0.98390  1.0000
  C   C35       1.0  0.85919  0.07887  0.97061  1.0000
  C   C36       1.0  0.14081  0.92113  0.02939  1.0000
  H   H21       1.0  0.90120  0.09930  0.93020  1.0000
  H   H22       1.0  0.09880  0.90070  0.06980  1.0000
  C   C37       1.0  0.81215  0.99456  0.97940  1.0000
  C   C38       1.0  0.18785  0.00544  0.02060  1.0000
  C   C39       1.0  0.74690  0.96494  0.03868  1.0000
  C   C40       1.0  0.25310  0.03506  0.96132  1.0000
  H   H23       1.0  0.71250  0.90910  0.04370  1.0000
  H   H24       1.0  0.28750  0.09090  0.95630  1.0000
  C   C41       1.0  0.73299  0.01894  0.09047  1.0000
  C   C42       1.0  0.26701  0.98106  0.90953  1.0000
  H   H25       1.0  0.69040  0.99870  0.13080  1.0000
  H   H26       1.0  0.30960  0.00130  0.86920  1.0000
  C   C43       1.0  0.76592  0.87251  0.92079  1.0000
  C   C44       1.0  0.23408  0.12749  0.07921  1.0000
  C   C45       1.0  0.66151  0.89270  0.87793  1.0000
  C   C46       1.0  0.33849  0.10730  0.12207  1.0000
  H   H27       1.0  0.63640  0.95360  0.85560  1.0000
  H   H28       1.0  0.36360  0.04640  0.14440  1.0000
  C   C47       1.0  0.59378  0.82168  0.86816  1.0000
  C   C48       1.0  0.40622  0.17832  0.13184  1.0000
  H   H29       1.0  0.52220  0.83510  0.83940  1.0000
  H   H30       1.0  0.47780  0.16490  0.16060  1.0000
  C   C49       1.0  0.63115  0.73137  0.90054  1.0000
  C   C50       1.0  0.36885  0.26863  0.09946  1.0000
  C   C51       1.0  0.73626  0.71354  0.94334  1.0000
  C   C52       1.0  0.26374  0.28646  0.05666  1.0000
  H   H31       1.0  0.76190  0.65300  0.96610  1.0000
  H   H32       1.0  0.23810  0.34700  0.03390  1.0000
  C   C53       1.0  0.80450  0.78443  0.95313  1.0000
  C   C54       1.0  0.19550  0.21557  0.04687  1.0000
  H   H33       1.0  0.87630  0.77150  0.98170  1.0000
  H   H34       1.0  0.12370  0.22850  0.01830  1.0000
  C   C55       1.0  0.55618  0.65449  0.89089  1.0000
  C   C56       1.0  0.44382  0.34551  0.10911  1.0000
  C   C57       1.0  0.73868  0.32162  0.29043  1.0000
  C   C58       1.0  0.26132  0.67838  0.70957  1.0000
  C   C59       1.0  0.72382  0.38480  0.34361  1.0000
  C   C60       1.0  0.27618  0.61520  0.65639  1.0000
  C   C61       1.0  0.77396  0.46844  0.33222  1.0000
  C   C62       1.0  0.22604  0.53156  0.66778  1.0000
  H   H35       1.0  0.81960  0.48400  0.29190  1.0000
  H   H36       1.0  0.18040  0.51600  0.70810  1.0000
  C   C63       1.0  0.75730  0.52918  0.37980  1.0000
  C   C64       1.0  0.24270  0.47082  0.62020  1.0000
  H   H37       1.0  0.79250  0.58480  0.37200  1.0000
  H   H38       1.0  0.20750  0.41520  0.62800  1.0000
  C   C65       1.0  0.68806  0.50616  0.43862  1.0000
  C   C66       1.0  0.31194  0.49384  0.56138  1.0000
  C   C67       1.0  0.63766  0.42307  0.45136  1.0000
  C   C68       1.0  0.36234  0.57693  0.54864  1.0000
  H   H39       1.0  0.59180  0.40790  0.49170  1.0000
  H   H40       1.0  0.40820  0.59210  0.50830  1.0000
  C   C69       1.0  0.65588  0.36274  0.40387  1.0000
  C   C70       1.0  0.34412  0.63726  0.59613  1.0000
  H   H41       1.0  0.62220  0.30660  0.41230  1.0000
  H   H42       1.0  0.37780  0.69340  0.58770  1.0000
  C   C71       1.0  0.73550  0.62706  0.50108  1.0000
  C   C72       1.0  0.26450  0.37294  0.49892  1.0000
  C   C73       1.0  0.68267  0.71895  0.50002  1.0000
  C   C74       1.0  0.31733  0.28105  0.49998  1.0000
  H   H43       1.0  0.59850  0.74130  0.48360  1.0000
  H   H44       1.0  0.40150  0.25870  0.51640  1.0000
  C   C75       1.0  0.75493  0.77864  0.52347  1.0000
  C   C76       1.0  0.24507  0.22136  0.47653  1.0000
  H   H45       1.0  0.71950  0.84170  0.52200  1.0000
  H   H46       1.0  0.28050  0.15830  0.47800  1.0000
  C   C77       1.0  0.87929  0.74626  0.54907  1.0000
  C   C78       1.0  0.12071  0.25374  0.45093  1.0000
  C   C79       1.0  0.93121  0.65308  0.54909  1.0000
  C   C80       1.0  0.06879  0.34692  0.45091  1.0000
  H   H47       1.0  0.01500  0.63020  0.56570  1.0000
  H   H48       1.0  0.98500  0.36980  0.43430  1.0000
  C   C81       1.0  0.85966  0.59306  0.52452  1.0000
  C   C82       1.0  0.14034  0.40694  0.47548  1.0000
  H   H49       1.0  0.89560  0.53050  0.52400  1.0000
  H   H50       1.0  0.10440  0.46950  0.47600  1.0000
  C   C83       1.0  0.95611  0.81294  0.57426  1.0000
  C   C84       1.0  0.04389  0.18706  0.42574  1.0000
  C   C85       1.0  0.90526  0.95705  0.36374  1.0000
  C   C86       1.0  0.09474  0.04295  0.63626  1.0000
  C   C87       1.0  0.92000  0.87537  0.32548  1.0000
  C   C88       1.0  0.08000  0.12463  0.67452  1.0000
  C   C89       1.0  0.89478  0.88656  0.25683  1.0000
  C   C90       1.0  0.10522  0.11344  0.74317  1.0000
  H   H51       1.0  0.86730  0.94630  0.23310  1.0000
  H   H52       1.0  0.13270  0.05370  0.76690  1.0000
  C   C91       1.0  0.91021  0.80920  0.22323  1.0000
  C   C92       1.0  0.08979  0.19080  0.77677  1.0000
  H   H53       1.0  0.89510  0.81680  0.17690  1.0000
  H   H54       1.0  0.10490  0.18320  0.82310  1.0000
  C   C93       1.0  0.94798  0.72122  0.25887  1.0000
  C   C94       1.0  0.05202  0.27878  0.74113  1.0000
  C   C95       1.0  0.97350  0.70878  0.32715  1.0000
  C   C96       1.0  0.02650  0.29122  0.67285  1.0000
  H   H55       1.0  0.99970  0.64890  0.35080  1.0000
  H   H56       1.0  0.00030  0.35110  0.64920  1.0000
  C   C97       1.0  0.95977  0.78620  0.36010  1.0000
  C   C98       1.0  0.04023  0.21380  0.63990  1.0000
  H   H57       1.0  0.97750  0.77830  0.40620  1.0000
  H   H58       1.0  0.02250  0.22170  0.59380  1.0000
  C   C99       1.0  0.01335  0.63578  0.16697  1.0000
  C   C100      1.0  0.98665  0.36422  0.83303  1.0000
  C   C101      1.0  0.94787  0.60244  0.11968  1.0000
  C   C102      1.0  0.05213  0.39756  0.88032  1.0000
  H   H59       1.0  0.86320  0.58900  0.12880  1.0000
  H   H60       1.0  0.13680  0.41100  0.87120  1.0000
  C   C103      1.0  0.00966  0.58914  0.05850  1.0000
  C   C104      1.0  0.99034  0.41086  0.94150  1.0000
  H   H61       1.0  0.96490  0.56850  0.02560  1.0000
  H   H62       1.0  0.03510  0.43150  0.97440  1.0000
  C   C105      1.0  0.13688  0.60586  0.04514  1.0000
  C   C106      1.0  0.86312  0.39414  0.95486  1.0000
  C   C107      1.0  0.20201  0.63917  0.09390  1.0000
  C   C108      1.0  0.79799  0.36083  0.90610  1.0000
  H   H63       1.0  0.28780  0.65050  0.08570  1.0000
  H   H64       1.0  0.71220  0.34950  0.91430  1.0000
  C   C109      1.0  0.13942  0.65541  0.15443  1.0000
  C   C110      1.0  0.86058  0.34459  0.84557  1.0000
  H   H65       1.0  0.18180  0.67940  0.18650  1.0000
  H   H66       1.0  0.81820  0.32060  0.81350  1.0000
  C   C111      1.0  0.20121  0.59244  0.97861  1.0000
  C   C112      1.0  0.79879  0.40756  0.02139  1.0000
