data_image0
_chemical_formula_structural       Cu4N60C24
_chemical_formula_sum              "Cu4 N60 C24"
_cell_length_a       7.5389
_cell_length_b       15.0865
_cell_length_c       27.3257
_cell_angle_alpha    90
_cell_angle_beta     93.637
_cell_angle_gamma    90

_space_group_name_H-M_alt    "P 1"
_space_group_IT_number       1

loop_
  _space_group_symop_operation_xyz
  'x, y, z'

loop_
  _atom_site_type_symbol
  _atom_site_label
  _atom_site_symmetry_multiplicity
  _atom_site_fract_x
  _atom_site_fract_y
  _atom_site_fract_z
  _atom_site_occupancy
  Cu  Cu1       1.0  0.50000  0.50000  0.00000  1.0000
  Cu  Cu2       1.0  0.50000  0.00000  0.50000  1.0000
  Cu  Cu3       1.0  0.00000  0.50000  0.00000  1.0000
  Cu  Cu4       1.0  0.00000  0.00000  0.50000  1.0000
  N   N1        1.0  0.20240  0.41480  0.04754  1.0000
  N   N2        1.0  0.79760  0.91480  0.45246  1.0000
  N   N3        1.0  0.79760  0.58520  0.95246  1.0000
  N   N4        1.0  0.20240  0.08520  0.54754  1.0000
  N   N5        1.0  0.37340  0.43800  0.05235  1.0000
  N   N6        1.0  0.62660  0.93800  0.44765  1.0000
  N   N7        1.0  0.62660  0.56200  0.94765  1.0000
  N   N8        1.0  0.37340  0.06200  0.55235  1.0000
  N   N9        1.0  0.45000  0.40970  0.09460  1.0000
  N   N10       1.0  0.55000  0.90970  0.40540  1.0000
  N   N11       1.0  0.55000  0.59030  0.90540  1.0000
  N   N12       1.0  0.45000  0.09030  0.59460  1.0000
  N   N13       1.0  0.32730  0.36610  0.11877  1.0000
  N   N14       1.0  0.67270  0.86610  0.38123  1.0000
  N   N15       1.0  0.67270  0.63390  0.88123  1.0000
  N   N16       1.0  0.32730  0.13390  0.61877  1.0000
  N   N17       1.0  0.88930  0.29650  0.11185  1.0000
  N   N18       1.0  0.11070  0.79650  0.38815  1.0000
  N   N19       1.0  0.11070  0.70350  0.88815  1.0000
  N   N20       1.0  0.88930  0.20350  0.61185  1.0000
  N   N21       1.0  0.10380  0.68840  0.01549  1.0000
  N   N22       1.0  0.89620  0.18840  0.48451  1.0000
  N   N23       1.0  0.89620  0.31160  0.98451  1.0000
  N   N24       1.0  0.10380  0.81160  0.51549  1.0000
  N   N25       1.0  0.16320  0.60690  0.00969  1.0000
  N   N26       1.0  0.83680  0.10690  0.49031  1.0000
  N   N27       1.0  0.83680  0.39310  0.99031  1.0000
  N   N28       1.0  0.16320  0.89310  0.50969  1.0000
  N   N29       1.0  0.33950  0.60800  0.00660  1.0000
  N   N30       1.0  0.66050  0.10800  0.49340  1.0000
  N   N31       1.0  0.66050  0.39200  0.99340  1.0000
  N   N32       1.0  0.33950  0.89200  0.50660  1.0000
  N   N33       1.0  0.39870  0.69050  0.01092  1.0000
  N   N34       1.0  0.60130  0.19050  0.48908  1.0000
  N   N35       1.0  0.60130  0.30950  0.98908  1.0000
  N   N36       1.0  0.39870  0.80950  0.51092  1.0000
  N   N37       1.0  0.25650  0.90780  0.02430  1.0000
  N   N38       1.0  0.74350  0.40780  0.47570  1.0000
  N   N39       1.0  0.74350  0.09220  0.97570  1.0000
  N   N40       1.0  0.25650  0.59220  0.52430  1.0000
  N   N41       1.0  0.70840  0.55880  0.05971  1.0000
  N   N42       1.0  0.29160  0.05880  0.44029  1.0000
  N   N43       1.0  0.29160  0.44120  0.94029  1.0000
  N   N44       1.0  0.70840  0.94120  0.55971  1.0000
  N   N45       1.0  0.87950  0.53300  0.06105  1.0000
  N   N46       1.0  0.12050  0.03300  0.43895  1.0000
  N   N47       1.0  0.12050  0.46700  0.93895  1.0000
  N   N48       1.0  0.87950  0.96700  0.56105  1.0000
  N   N49       1.0  0.95550  0.53990  0.10598  1.0000
  N   N50       1.0  0.04450  0.03990  0.39402  1.0000
  N   N51       1.0  0.04450  0.46010  0.89402  1.0000
  N   N52       1.0  0.95550  0.96010  0.60598  1.0000
  N   N53       1.0  0.83680  0.57230  0.13556  1.0000
  N   N54       1.0  0.16320  0.07230  0.36444  1.0000
  N   N55       1.0  0.16320  0.42770  0.86444  1.0000
  N   N56       1.0  0.83680  0.92770  0.63556  1.0000
  N   N57       1.0  0.40310  0.65720  0.13277  1.0000
  N   N58       1.0  0.59690  0.15720  0.36723  1.0000
  N   N59       1.0  0.59690  0.34280  0.86723  1.0000
  N   N60       1.0  0.40310  0.84280  0.63277  1.0000
  C   C1        1.0  0.17950  0.37120  0.08943  1.0000
  C   C2        1.0  0.82050  0.87120  0.41057  1.0000
  C   C3        1.0  0.82050  0.62880  0.91057  1.0000
  C   C4        1.0  0.17950  0.12880  0.58943  1.0000
  C   C5        1.0  0.01690  0.33130  0.10140  1.0000
  C   C6        1.0  0.98310  0.83130  0.39860  1.0000
  C   C7        1.0  0.98310  0.66870  0.89860  1.0000
  C   C8        1.0  0.01690  0.16870  0.60140  1.0000
  C   C9        1.0  0.25080  0.73780  0.01650  1.0000
  C   C10       1.0  0.74920  0.23780  0.48350  1.0000
  C   C11       1.0  0.74920  0.26220  0.98350  1.0000
  C   C12       1.0  0.25080  0.76220  0.51650  1.0000
  C   C13       1.0  0.25200  0.83220  0.02061  1.0000
  C   C14       1.0  0.74800  0.33220  0.47939  1.0000
  C   C15       1.0  0.74800  0.16780  0.97939  1.0000
  C   C16       1.0  0.25200  0.66780  0.52061  1.0000
  C   C17       1.0  0.68990  0.58240  0.10632  1.0000
  C   C18       1.0  0.31010  0.08240  0.39368  1.0000
  C   C19       1.0  0.31010  0.41760  0.89368  1.0000
  C   C20       1.0  0.68990  0.91760  0.60632  1.0000
  C   C21       1.0  0.52990  0.62130  0.12204  1.0000
  C   C22       1.0  0.47010  0.12130  0.37796  1.0000
  C   C23       1.0  0.47010  0.37870  0.87796  1.0000
  C   C24       1.0  0.52990  0.87870  0.62204  1.0000
