data_image0
_chemical_formula_structural       U2O20H2C4H4C2H4C2H4C2H4C2H4C6H4C2H4C2H4C2H4C2H4C2
_chemical_formula_sum              "U2 O20 H42 C28"
_cell_length_a       9.2194
_cell_length_b       12.1003
_cell_length_c       12.6351
_cell_angle_alpha    85.612
_cell_angle_beta     75.136
_cell_angle_gamma    78.964

_space_group_name_H-M_alt    "P 1"
_space_group_IT_number       1

loop_
  _space_group_symop_operation_xyz
  'x, y, z'

loop_
  _atom_site_type_symbol
  _atom_site_label
  _atom_site_symmetry_multiplicity
  _atom_site_fract_x
  _atom_site_fract_y
  _atom_site_fract_z
  _atom_site_occupancy
  U   U1        1.0  0.66640  0.66187  0.07405  1.0000
  U   U2        1.0  0.33360  0.33813  0.92595  1.0000
  O   O1        1.0  0.86350  0.66720  0.04620  1.0000
  O   O2        1.0  0.13650  0.33280  0.95380  1.0000
  O   O3        1.0  0.46960  0.65310  0.10540  1.0000
  O   O4        1.0  0.53040  0.34690  0.89460  1.0000
  O   O5        1.0  0.67620  0.67250  0.87670  1.0000
  O   O6        1.0  0.32380  0.32750  0.12330  1.0000
  O   O7        1.0  0.61720  0.83010  0.96170  1.0000
  O   O8        1.0  0.38280  0.16990  0.03830  1.0000
  O   O9        1.0  0.60880  0.83300  0.18280  1.0000
  O   O10       1.0  0.39120  0.16700  0.81720  1.0000
  O   O11       1.0  0.65100  0.67370  0.27190  1.0000
  O   O12       1.0  0.34900  0.32630  0.72810  1.0000
  O   O13       1.0  0.70980  0.47330  0.16600  1.0000
  O   O14       1.0  0.29020  0.52670  0.83400  1.0000
  O   O15       1.0  0.73650  0.47550  0.99020  1.0000
  O   O16       1.0  0.26350  0.52450  0.00980  1.0000
  O   O17       1.0  0.99060  0.17990  0.53570  1.0000
  O   O18       1.0  0.00940  0.82010  0.46430  1.0000
  O   O19       1.0  0.75070  0.18170  0.60570  1.0000
  O   O20       1.0  0.24930  0.81830  0.39430  1.0000
  H   H1        1.0  0.77860  0.16860  0.66270  1.0000
  H   H2        1.0  0.22140  0.83140  0.33730  1.0000
  C   C1        1.0  0.63840  0.77910  0.87440  1.0000
  C   C2        1.0  0.36160  0.22090  0.12560  1.0000
  C   C3        1.0  0.61930  0.84330  0.77080  1.0000
  C   C4        1.0  0.38070  0.15670  0.22920  1.0000
  H   H3        1.0  0.68990  0.89590  0.75350  1.0000
  H   H4        1.0  0.31010  0.10410  0.24650  1.0000
  H   H5        1.0  0.51690  0.88720  0.78480  1.0000
  H   H6        1.0  0.48310  0.11280  0.21520  1.0000
  C   C5        1.0  0.64420  0.77360  0.67120  1.0000
  C   C6        1.0  0.35580  0.22640  0.32880  1.0000
  H   H7        1.0  0.57720  0.71850  0.68880  1.0000
  H   H8        1.0  0.42280  0.28150  0.31120  1.0000
  H   H9        1.0  0.74840  0.73300  0.65380  1.0000
  H   H10       1.0  0.25160  0.26700  0.34620  1.0000
  C   C7        1.0  0.61520  0.84270  0.57130  1.0000
  C   C8        1.0  0.38480  0.15730  0.42870  1.0000
  H   H11       1.0  0.68380  0.89680  0.55290  1.0000
  H   H12       1.0  0.31620  0.10320  0.44710  1.0000
  H   H13       1.0  0.51180  0.88470  0.58940  1.0000
  H   H14       1.0  0.48820  0.11530  0.41060  1.0000
  C   C9        1.0  0.63660  0.77320  0.47140  1.0000
  C   C10       1.0  0.36340  0.22680  0.52860  1.0000
  H   H15       1.0  0.56860  0.71880  0.48980  1.0000
  H   H16       1.0  0.43140  0.28120  0.51020  1.0000
  H   H17       1.0  0.74030  0.73170  0.45280  1.0000
  H   H18       1.0  0.25970  0.26830  0.54720  1.0000
  C   C11       1.0  0.60570  0.84400  0.37120  1.0000
  C   C12       1.0  0.39430  0.15600  0.62880  1.0000
  H   H19       1.0  0.50300  0.88700  0.39160  1.0000
  H   H20       1.0  0.49700  0.11300  0.60840  1.0000
  H   H21       1.0  0.67510  0.89740  0.35320  1.0000
  H   H22       1.0  0.32490  0.10260  0.64680  1.0000
  C   C13       1.0  0.62110  0.78100  0.26980  1.0000
  C   C14       1.0  0.37890  0.21900  0.73020  1.0000
  C   C15       1.0  0.73800  0.41940  0.07900  1.0000
  C   C16       1.0  0.26200  0.58060  0.92100  1.0000
  C   C17       1.0  0.76790  0.29360  0.07790  1.0000
  C   C18       1.0  0.23210  0.70640  0.92210  1.0000
  H   H23       1.0  0.86210  0.26950  0.02340  1.0000
  H   H24       1.0  0.13790  0.73050  0.97660  1.0000
  H   H25       1.0  0.68660  0.27000  0.05440  1.0000
  H   H26       1.0  0.31340  0.73000  0.94560  1.0000
  C   C19       1.0  0.78020  0.23200  0.18610  1.0000
  C   C20       1.0  0.21980  0.76800  0.81390  1.0000
  H   H27       1.0  0.69570  0.26540  0.24420  1.0000
  H   H28       1.0  0.30430  0.73460  0.75580  1.0000
  H   H29       1.0  0.77190  0.15390  0.18150  1.0000
  H   H30       1.0  0.22810  0.84610  0.81850  1.0000
  C   C21       1.0  0.92840  0.23640  0.21520  1.0000
  C   C22       1.0  0.07160  0.76360  0.78480  1.0000
  H   H31       1.0  0.93640  0.31470  0.21890  1.0000
  H   H32       1.0  0.06360  0.68530  0.78110  1.0000
  H   H33       1.0  0.01230  0.20320  0.15660  1.0000
  H   H34       1.0  0.98770  0.79680  0.84340  1.0000
  C   C23       1.0  0.94670  0.17580  0.32390  1.0000
  C   C24       1.0  0.05330  0.82420  0.67610  1.0000
  H   H35       1.0  0.96260  0.09530  0.31380  1.0000
  H   H36       1.0  0.03740  0.90470  0.68620  1.0000
  H   H37       1.0  0.03860  0.19190  0.33880  1.0000
  H   H38       1.0  0.96140  0.80810  0.66120  1.0000
  C   C25       1.0  0.82640  0.20230  0.41710  1.0000
  C   C26       1.0  0.17360  0.79770  0.58290  1.0000
  H   H39       1.0  0.74740  0.16020  0.41570  1.0000
  H   H40       1.0  0.25260  0.83980  0.58430  1.0000
  H   H41       1.0  0.78350  0.28170  0.41190  1.0000
  H   H42       1.0  0.21650  0.71830  0.58810  1.0000
  C   C27       1.0  0.86550  0.17940  0.52580  1.0000
  C   C28       1.0  0.13450  0.82060  0.47420  1.0000
