data_image0
_chemical_formula_structural       Ru2O4H8N12C4H4C4H4C4H4C4H4C12Li2
_chemical_formula_sum              "Ru2 O4 H24 N12 C28 Li2"
_cell_length_a       6.8956
_cell_length_b       14.5781
_cell_length_c       10.5162
_cell_angle_alpha    90
_cell_angle_beta     103.531
_cell_angle_gamma    90

_space_group_name_H-M_alt    "P 1"
_space_group_IT_number       1

loop_
  _space_group_symop_operation_xyz
  'x, y, z'

loop_
  _atom_site_type_symbol
  _atom_site_label
  _atom_site_symmetry_multiplicity
  _atom_site_fract_x
  _atom_site_fract_y
  _atom_site_fract_z
  _atom_site_occupancy
  Ru  Ru1       1.0  0.25000  0.25106  0.75000  1.0000
  Ru  Ru2       1.0  0.75000  0.74894  0.25000  1.0000
  O   O1        1.0  0.59118  0.55767  0.61104  1.0000
  O   O2        1.0  0.90882  0.55767  0.88896  1.0000
  O   O3        1.0  0.40882  0.44233  0.38896  1.0000
  O   O4        1.0  0.09118  0.44233  0.11104  1.0000
  H   H1        1.0  0.62450  0.61530  0.57740  1.0000
  H   H2        1.0  0.87550  0.61530  0.92260  1.0000
  H   H3        1.0  0.37550  0.38470  0.42260  1.0000
  H   H4        1.0  0.12450  0.38470  0.07740  1.0000
  H   H5        1.0  0.44890  0.56060  0.59880  1.0000
  H   H6        1.0  0.05110  0.56060  0.90120  1.0000
  H   H7        1.0  0.55110  0.43940  0.40120  1.0000
  H   H8        1.0  0.94890  0.43940  0.09880  1.0000
  N   N1        1.0  0.05898  0.13767  0.68946  1.0000
  N   N2        1.0  0.44102  0.13767  0.81054  1.0000
  N   N3        1.0  0.94102  0.86233  0.31054  1.0000
  N   N4        1.0  0.55898  0.86233  0.18946  1.0000
  N   N5        1.0  0.15370  0.24910  0.03274  1.0000
  N   N6        1.0  0.34630  0.24910  0.46726  1.0000
  N   N7        1.0  0.84630  0.75090  0.96726  1.0000
  N   N8        1.0  0.65370  0.75090  0.53274  1.0000
  N   N9        1.0  0.94340  0.41138  0.66947  1.0000
  N   N10       1.0  0.55660  0.41138  0.83053  1.0000
  N   N11       1.0  0.05660  0.58862  0.33053  1.0000
  N   N12       1.0  0.44340  0.58862  0.16947  1.0000
  C   C1        1.0  0.86600  0.14316  0.62429  1.0000
  C   C2        1.0  0.63400  0.14316  0.87571  1.0000
  C   C3        1.0  0.13400  0.85684  0.37571  1.0000
  C   C4        1.0  0.36600  0.85684  0.12429  1.0000
  H   H9        1.0  0.80700  0.20200  0.60570  1.0000
  H   H10       1.0  0.69300  0.20200  0.89430  1.0000
  H   H11       1.0  0.19300  0.79800  0.39430  1.0000
  H   H12       1.0  0.30700  0.79800  0.10570  1.0000
  C   C5        1.0  0.75090  0.06599  0.58341  1.0000
  C   C6        1.0  0.74910  0.06599  0.91659  1.0000
  C   C7        1.0  0.24910  0.93401  0.41659  1.0000
  C   C8        1.0  0.25090  0.93401  0.08341  1.0000
  H   H13       1.0  0.61600  0.07200  0.53630  1.0000
  H   H14       1.0  0.88400  0.07200  0.96370  1.0000
  H   H15       1.0  0.38400  0.92800  0.46370  1.0000
  H   H16       1.0  0.11600  0.92800  0.03630  1.0000
  C   C9        1.0  0.83540  0.97978  0.61221  1.0000
  C   C10       1.0  0.66460  0.97978  0.88779  1.0000
  C   C11       1.0  0.16460  0.02022  0.38779  1.0000
  C   C12       1.0  0.33540  0.02022  0.11221  1.0000
  H   H17       1.0  0.75880  0.92590  0.58630  1.0000
  H   H18       1.0  0.74120  0.92590  0.91370  1.0000
  H   H19       1.0  0.24120  0.07410  0.41370  1.0000
  H   H20       1.0  0.25880  0.07410  0.08630  1.0000
  C   C13       1.0  0.03360  0.97361  0.67941  1.0000
  C   C14       1.0  0.46640  0.97361  0.82059  1.0000
  C   C15       1.0  0.96640  0.02639  0.32059  1.0000
  C   C16       1.0  0.53360  0.02639  0.17941  1.0000
  H   H21       1.0  0.09420  0.91530  0.70050  1.0000
  H   H22       1.0  0.40580  0.91530  0.79950  1.0000
  H   H23       1.0  0.90580  0.08470  0.29950  1.0000
  H   H24       1.0  0.59420  0.08470  0.20050  1.0000
  C   C17       1.0  0.14310  0.05364  0.71581  1.0000
  C   C18       1.0  0.35690  0.05364  0.78419  1.0000
  C   C19       1.0  0.85690  0.94636  0.28419  1.0000
  C   C20       1.0  0.64310  0.94636  0.21581  1.0000
  C   C21       1.0  0.18650  0.25066  0.92939  1.0000
  C   C22       1.0  0.31350  0.25066  0.57061  1.0000
  C   C23       1.0  0.81350  0.74934  0.07061  1.0000
  C   C24       1.0  0.68650  0.74934  0.42939  1.0000
  C   C25       1.0  0.05390  0.35030  0.69661  1.0000
  C   C26       1.0  0.44610  0.35030  0.80339  1.0000
  C   C27       1.0  0.94610  0.64970  0.30339  1.0000
  C   C28       1.0  0.55390  0.64970  0.19661  1.0000
  Li  Li1       1.0  0.75000  0.48580  0.75000  1.0000
  Li  Li2       1.0  0.25000  0.51420  0.25000  1.0000
