data_image0
_chemical_formula_structural       Fe4P4O16H4O12H8C4H4C4
_chemical_formula_sum              "Fe4 P4 O28 H16 C8"
_cell_length_a       8.4523
_cell_length_b       9.8196
_cell_length_c       10.9217
_cell_angle_alpha    90
_cell_angle_beta     105.95
_cell_angle_gamma    90

_space_group_name_H-M_alt    "P 1"
_space_group_IT_number       1

loop_
  _space_group_symop_operation_xyz
  'x, y, z'

loop_
  _atom_site_type_symbol
  _atom_site_label
  _atom_site_symmetry_multiplicity
  _atom_site_fract_x
  _atom_site_fract_y
  _atom_site_fract_z
  _atom_site_occupancy
  Fe  Fe1       1.0  0.05695  0.29457  0.66011  1.0000
  Fe  Fe2       1.0  0.44305  0.79457  0.83989  1.0000
  Fe  Fe3       1.0  0.94305  0.70543  0.33989  1.0000
  Fe  Fe4       1.0  0.55695  0.20543  0.16011  1.0000
  P   P1        1.0  0.92887  0.61809  0.62371  1.0000
  P   P2        1.0  0.57113  0.11809  0.87629  1.0000
  P   P3        1.0  0.07113  0.38191  0.37629  1.0000
  P   P4        1.0  0.42887  0.88191  0.12371  1.0000
  O   O1        1.0  0.86300  0.71851  0.70368  1.0000
  O   O2        1.0  0.63700  0.21851  0.79632  1.0000
  O   O3        1.0  0.13700  0.28149  0.29632  1.0000
  O   O4        1.0  0.36300  0.78149  0.20368  1.0000
  O   O5        1.0  0.92049  0.47295  0.67011  1.0000
  O   O6        1.0  0.57951  0.97295  0.82989  1.0000
  O   O7        1.0  0.07951  0.52705  0.32989  1.0000
  O   O8        1.0  0.42049  0.02705  0.17011  1.0000
  O   O9        1.0  0.84739  0.63488  0.48153  1.0000
  O   O10       1.0  0.65261  0.13488  0.01847  1.0000
  O   O11       1.0  0.15261  0.36512  0.51847  1.0000
  O   O12       1.0  0.34739  0.86512  0.98153  1.0000
  O   O13       1.0  0.24168  0.64564  0.77621  1.0000
  O   O14       1.0  0.25832  0.14564  0.72379  1.0000
  O   O15       1.0  0.75832  0.35436  0.22379  1.0000
  O   O16       1.0  0.74168  0.85436  0.27621  1.0000
  H   H1        1.0  0.24570  0.56540  0.79750  1.0000
  H   H2        1.0  0.25430  0.06540  0.70250  1.0000
  H   H3        1.0  0.75430  0.43460  0.20250  1.0000
  H   H4        1.0  0.74570  0.93460  0.29750  1.0000
  O   O17       1.0  0.26290  0.88101  0.67828  1.0000
  O   O18       1.0  0.23710  0.38101  0.82172  1.0000
  O   O19       1.0  0.73710  0.11899  0.32172  1.0000
  O   O20       1.0  0.76290  0.61899  0.17828  1.0000
  O   O21       1.0  0.10450  0.83032  0.48523  1.0000
  O   O22       1.0  0.39550  0.33032  0.01477  1.0000
  O   O23       1.0  0.89550  0.16968  0.51477  1.0000
  O   O24       1.0  0.60450  0.66968  0.98523  1.0000
  O   O25       1.0  0.94740  0.18751  0.78468  1.0000
  O   O26       1.0  0.55260  0.68751  0.71532  1.0000
  O   O27       1.0  0.05260  0.81249  0.21532  1.0000
  O   O28       1.0  0.44740  0.31249  0.28468  1.0000
  H   H5        1.0  0.98620  0.10720  0.79570  1.0000
  H   H6        1.0  0.51380  0.60720  0.70430  1.0000
  H   H7        1.0  0.01380  0.89280  0.20430  1.0000
  H   H8        1.0  0.48620  0.39280  0.29570  1.0000
  H   H9        1.0  0.96870  0.22850  0.85590  1.0000
  H   H10       1.0  0.53130  0.72850  0.64410  1.0000
  H   H11       1.0  0.03130  0.77150  0.14410  1.0000
  H   H12       1.0  0.46870  0.27150  0.35590  1.0000
  C   C1        1.0  0.14830  0.65810  0.64570  1.0000
  C   C2        1.0  0.35170  0.15810  0.85430  1.0000
  C   C3        1.0  0.85170  0.34190  0.35430  1.0000
  C   C4        1.0  0.64830  0.84190  0.14570  1.0000
  H   H13       1.0  0.19240  0.59300  0.59550  1.0000
  H   H14       1.0  0.30760  0.09300  0.90450  1.0000
  H   H15       1.0  0.80760  0.40700  0.40450  1.0000
  H   H16       1.0  0.69240  0.90700  0.09550  1.0000
  C   C5        1.0  0.17200  0.80030  0.59970  1.0000
  C   C6        1.0  0.32800  0.30030  0.90030  1.0000
  C   C7        1.0  0.82800  0.19970  0.40030  1.0000
  C   C8        1.0  0.67200  0.69970  0.09970  1.0000
