data_image0
_chemical_formula_structural       Fe4P4O16H4O12H8C4H4C4
_chemical_formula_sum              "Fe4 P4 O28 H16 C8"
_cell_length_a       8.4533
_cell_length_b       9.8257
_cell_length_c       10.9206
_cell_angle_alpha    90
_cell_angle_beta     105.936
_cell_angle_gamma    90

_space_group_name_H-M_alt    "P 1"
_space_group_IT_number       1

loop_
  _space_group_symop_operation_xyz
  'x, y, z'

loop_
  _atom_site_type_symbol
  _atom_site_label
  _atom_site_symmetry_multiplicity
  _atom_site_fract_x
  _atom_site_fract_y
  _atom_site_fract_z
  _atom_site_occupancy
  Fe  Fe1       1.0  0.05695  0.70562  0.16002  1.0000
  Fe  Fe2       1.0  0.44305  0.20562  0.33998  1.0000
  Fe  Fe3       1.0  0.94305  0.29438  0.83998  1.0000
  Fe  Fe4       1.0  0.55695  0.79438  0.66002  1.0000
  P   P1        1.0  0.07110  0.61802  0.87630  1.0000
  P   P2        1.0  0.42890  0.11802  0.62370  1.0000
  P   P3        1.0  0.92890  0.38198  0.12370  1.0000
  P   P4        1.0  0.57110  0.88198  0.37630  1.0000
  O   O1        1.0  0.15260  0.63520  0.01840  1.0000
  O   O2        1.0  0.34740  0.13520  0.48160  1.0000
  O   O3        1.0  0.84740  0.36480  0.98160  1.0000
  O   O4        1.0  0.65260  0.86480  0.51840  1.0000
  O   O5        1.0  0.07950  0.47280  0.82980  1.0000
  O   O6        1.0  0.42050  0.97280  0.67020  1.0000
  O   O7        1.0  0.92050  0.52720  0.17020  1.0000
  O   O8        1.0  0.57950  0.02720  0.32980  1.0000
  O   O9        1.0  0.13670  0.71810  0.79610  1.0000
  O   O10       1.0  0.36330  0.21810  0.70390  1.0000
  O   O11       1.0  0.86330  0.28190  0.20390  1.0000
  O   O12       1.0  0.63670  0.78190  0.29610  1.0000
  O   O13       1.0  0.75870  0.64580  0.72390  1.0000
  O   O14       1.0  0.74130  0.14580  0.77610  1.0000
  O   O15       1.0  0.24130  0.35420  0.27610  1.0000
  O   O16       1.0  0.25870  0.85420  0.22390  1.0000
  H   H1        1.0  0.75460  0.56560  0.70260  1.0000
  H   H2        1.0  0.74540  0.06560  0.79740  1.0000
  H   H3        1.0  0.24540  0.43440  0.29740  1.0000
  H   H4        1.0  0.25460  0.93440  0.20260  1.0000
  O   O17       1.0  0.73700  0.88080  0.82170  1.0000
  O   O18       1.0  0.76300  0.38080  0.67830  1.0000
  O   O19       1.0  0.26300  0.11920  0.17830  1.0000
  O   O20       1.0  0.23700  0.61920  0.32170  1.0000
  O   O21       1.0  0.89530  0.83050  0.01440  1.0000
  O   O22       1.0  0.60470  0.33050  0.48560  1.0000
  O   O23       1.0  0.10470  0.16950  0.98560  1.0000
  O   O24       1.0  0.39530  0.66950  0.51440  1.0000
  O   O25       1.0  0.94750  0.81240  0.28460  1.0000
  O   O26       1.0  0.55250  0.31240  0.21540  1.0000
  O   O27       1.0  0.05250  0.18760  0.71540  1.0000
  O   O28       1.0  0.44750  0.68760  0.78460  1.0000
  H   H5        1.0  0.98850  0.78460  0.36040  1.0000
  H   H6        1.0  0.51150  0.28460  0.13960  1.0000
  H   H7        1.0  0.01150  0.21540  0.63960  1.0000
  H   H8        1.0  0.48850  0.71540  0.86040  1.0000
  H   H9        1.0  0.96590  0.89710  0.28060  1.0000
  H   H10       1.0  0.53410  0.39710  0.21940  1.0000
  H   H11       1.0  0.03410  0.10290  0.71940  1.0000
  H   H12       1.0  0.46590  0.60290  0.78060  1.0000
  C   C1        1.0  0.85150  0.65830  0.85430  1.0000
  C   C2        1.0  0.64850  0.15830  0.64570  1.0000
  C   C3        1.0  0.14850  0.34170  0.14570  1.0000
  C   C4        1.0  0.35150  0.84170  0.35430  1.0000
  H   H13       1.0  0.80810  0.59470  0.90350  1.0000
  H   H14       1.0  0.69190  0.09470  0.59650  1.0000
  H   H15       1.0  0.19190  0.40530  0.09650  1.0000
  H   H16       1.0  0.30810  0.90530  0.40350  1.0000
  C   C5        1.0  0.82770  0.80030  0.89990  1.0000
  C   C6        1.0  0.67230  0.30030  0.60010  1.0000
  C   C7        1.0  0.17230  0.19970  0.10010  1.0000
  C   C8        1.0  0.32770  0.69970  0.39990  1.0000
