data_image0
_chemical_formula_structural       C4N20C8N4Mn4N4C4N8C8
_chemical_formula_sum              "C24 N36 Mn4"
_cell_length_a       10.015
_cell_length_b       12.173
_cell_length_c       17.282
_cell_angle_alpha    90
_cell_angle_beta     95.43
_cell_angle_gamma    90

_space_group_name_H-M_alt    "P 1"
_space_group_IT_number       1

loop_
  _space_group_symop_operation_xyz
  'x, y, z'

loop_
  _atom_site_type_symbol
  _atom_site_label
  _atom_site_symmetry_multiplicity
  _atom_site_fract_x
  _atom_site_fract_y
  _atom_site_fract_z
  _atom_site_occupancy
  C   C1        1.0  0.75660  0.67140  0.41360  1.0000
  C   C2        1.0  0.24340  0.17140  0.08640  1.0000
  C   C3        1.0  0.24340  0.32860  0.58640  1.0000
  C   C4        1.0  0.75660  0.82860  0.91360  1.0000
  N   N1        1.0  0.83470  0.08920  0.28600  1.0000
  N   N2        1.0  0.16530  0.58920  0.21400  1.0000
  N   N3        1.0  0.16530  0.91080  0.71400  1.0000
  N   N4        1.0  0.83470  0.41080  0.78600  1.0000
  N   N5        1.0  0.52390  0.75950  0.23290  1.0000
  N   N6        1.0  0.47610  0.25950  0.26710  1.0000
  N   N7        1.0  0.47610  0.24050  0.76710  1.0000
  N   N8        1.0  0.52390  0.74050  0.73290  1.0000
  N   N9        1.0  0.35520  0.85180  0.30330  1.0000
  N   N10       1.0  0.64480  0.35180  0.19670  1.0000
  N   N11       1.0  0.64480  0.14820  0.69670  1.0000
  N   N12       1.0  0.35520  0.64820  0.80330  1.0000
  N   N13       1.0  0.76010  0.69020  0.35050  1.0000
  N   N14       1.0  0.23990  0.19020  0.14950  1.0000
  N   N15       1.0  0.23990  0.30980  0.64950  1.0000
  N   N16       1.0  0.76010  0.80980  0.85050  1.0000
  N   N17       1.0  0.71800  0.73830  0.59864  1.0000
  N   N18       1.0  0.28200  0.23830  0.90136  1.0000
  N   N19       1.0  0.28200  0.26170  0.40136  1.0000
  N   N20       1.0  0.71800  0.76170  0.09864  1.0000
  C   C5        1.0  0.73420  0.69630  0.54240  1.0000
  C   C6        1.0  0.26580  0.19630  0.95760  1.0000
  C   C7        1.0  0.26580  0.30370  0.45760  1.0000
  C   C8        1.0  0.73420  0.80370  0.04240  1.0000
  C   C9        1.0  0.81450  0.98710  0.26410  1.0000
  C   C10       1.0  0.18550  0.48710  0.23590  1.0000
  C   C11       1.0  0.18550  0.01290  0.73590  1.0000
  C   C12       1.0  0.81450  0.51290  0.76410  1.0000
  N   N21       1.0  0.78640  0.89920  0.24680  1.0000
  N   N22       1.0  0.21360  0.39920  0.25320  1.0000
  N   N23       1.0  0.21360  0.10080  0.75320  1.0000
  N   N24       1.0  0.78640  0.60080  0.74680  1.0000
  Mn  Mn1       1.0  0.74046  0.72375  0.22469  1.0000
  Mn  Mn2       1.0  0.25954  0.22375  0.27531  1.0000
  Mn  Mn3       1.0  0.25954  0.27625  0.77531  1.0000
  Mn  Mn4       1.0  0.74046  0.77625  0.72469  1.0000
  N   N25       1.0  0.30530  0.04740  0.29680  1.0000
  N   N26       1.0  0.69470  0.54740  0.20320  1.0000
  N   N27       1.0  0.69470  0.95260  0.70320  1.0000
  N   N28       1.0  0.30530  0.45260  0.79680  1.0000
  C   C13       1.0  0.44750  0.80630  0.26510  1.0000
  C   C14       1.0  0.55250  0.30630  0.23490  1.0000
  C   C15       1.0  0.55250  0.19370  0.73490  1.0000
  C   C16       1.0  0.44750  0.69370  0.76510  1.0000
  N   N29       1.0  0.04450  0.18520  0.27960  1.0000
  N   N30       1.0  0.95550  0.68520  0.22040  1.0000
  N   N31       1.0  0.95550  0.81480  0.72040  1.0000
  N   N32       1.0  0.04450  0.31480  0.77960  1.0000
  N   N33       1.0  0.75830  0.63520  0.48370  1.0000
  N   N34       1.0  0.24170  0.13520  0.01630  1.0000
  N   N35       1.0  0.24170  0.36480  0.51630  1.0000
  N   N36       1.0  0.75830  0.86480  0.98370  1.0000
  C   C17       1.0  0.33300  0.95680  0.29690  1.0000
  C   C18       1.0  0.66700  0.45680  0.20310  1.0000
  C   C19       1.0  0.66700  0.04320  0.70310  1.0000
  C   C20       1.0  0.33300  0.54320  0.79690  1.0000
  C   C21       1.0  0.94920  0.13550  0.28060  1.0000
  C   C22       1.0  0.05080  0.63550  0.21940  1.0000
  C   C23       1.0  0.05080  0.86450  0.71940  1.0000
  C   C24       1.0  0.94920  0.36450  0.78060  1.0000
