data_image0
_chemical_formula_structural       FeO6C6O6NaO3C6FeNaO9
_chemical_formula_sum              "Fe2 O24 C12 Na2"
_cell_length_a       9.756
_cell_length_b       9.756
_cell_length_c       10.117
_cell_angle_alpha    90
_cell_angle_beta     90
_cell_angle_gamma    120

_space_group_name_H-M_alt    "P 1"
_space_group_IT_number       1

loop_
  _space_group_symop_operation_xyz
  'x, y, z'

loop_
  _atom_site_type_symbol
  _atom_site_label
  _atom_site_symmetry_multiplicity
  _atom_site_fract_x
  _atom_site_fract_y
  _atom_site_fract_z
  _atom_site_occupancy
  Fe  Fe1       1.0  0.33333  0.66667  0.25500  1.0000
  O   O1        1.0  0.30120  0.47820  0.36630  1.0000
  O   O2        1.0  0.52180  0.82300  0.36630  1.0000
  O   O3        1.0  0.17700  0.69880  0.36630  1.0000
  O   O4        1.0  0.16480  0.49060  0.14430  1.0000
  O   O5        1.0  0.50940  0.67420  0.14430  1.0000
  O   O6        1.0  0.32580  0.83520  0.14430  1.0000
  C   C1        1.0  0.21310  0.34530  0.30940  1.0000
  C   C2        1.0  0.65470  0.86780  0.30940  1.0000
  C   C3        1.0  0.13220  0.78690  0.30940  1.0000
  C   C4        1.0  0.12750  0.34880  0.17950  1.0000
  C   C5        1.0  0.65120  0.77870  0.17950  1.0000
  C   C6        1.0  0.22130  0.87250  0.17950  1.0000
  O   O7        1.0  0.19210  0.21220  0.34650  1.0000
  O   O8        1.0  0.78780  0.97990  0.34650  1.0000
  O   O9        1.0  0.02010  0.80790  0.34650  1.0000
  O   O10       1.0  0.03140  0.22820  0.12460  1.0000
  O   O11       1.0  0.77180  0.80320  0.12460  1.0000
  O   O12       1.0  0.19680  0.96860  0.12460  1.0000
  Na  Na1       1.0  0.00000  0.00000  0.21910  1.0000
  O   O13       1.0  0.17190  0.16150  0.83990  1.0000
  O   O14       1.0  0.83850  0.01040  0.83990  1.0000
  O   O15       1.0  0.98960  0.82810  0.83990  1.0000
  C   C7        1.0  0.31100  0.19470  0.80490  1.0000
  C   C8        1.0  0.80530  0.11630  0.80490  1.0000
  C   C9        1.0  0.88370  0.68900  0.80490  1.0000
  C   C10       1.0  0.32300  0.11300  0.67820  1.0000
  C   C11       1.0  0.88700  0.21000  0.67820  1.0000
  C   C12       1.0  0.79000  0.67700  0.67820  1.0000
  Fe  Fe2       1.0  0.00000  0.00000  0.73110  1.0000
  Na  Na2       1.0  0.66667  0.33333  0.74500  1.0000
  O   O16       1.0  0.18290  0.02090  0.62700  1.0000
  O   O17       1.0  0.97910  0.16200  0.62700  1.0000
  O   O18       1.0  0.83800  0.81710  0.62700  1.0000
  O   O19       1.0  0.43470  0.27850  0.86360  1.0000
  O   O20       1.0  0.72150  0.15620  0.86360  1.0000
  O   O21       1.0  0.84380  0.56530  0.86360  1.0000
  O   O22       1.0  0.45270  0.14340  0.63470  1.0000
  O   O23       1.0  0.85660  0.30930  0.63470  1.0000
  O   O24       1.0  0.69070  0.54730  0.63470  1.0000
