data_image0
_chemical_formula_structural       Fe3O18C18O18Na3O9C9Na3Fe3O9C9O18
_chemical_formula_sum              "Fe6 O72 C36 Na6"
_cell_length_a       9.77454
_cell_length_b       9.77454
_cell_length_c       29.794
_cell_angle_alpha    90
_cell_angle_beta     90
_cell_angle_gamma    120

_space_group_name_H-M_alt    "P 1"
_space_group_IT_number       1

loop_
  _space_group_symop_operation_xyz
  'x, y, z'

loop_
  _atom_site_type_symbol
  _atom_site_label
  _atom_site_symmetry_multiplicity
  _atom_site_fract_x
  _atom_site_fract_y
  _atom_site_fract_z
  _atom_site_occupancy
  Fe  Fe1       1.0  0.00000  0.00000  0.41242  1.0000
  Fe  Fe2       1.0  0.66667  0.33333  0.74575  1.0000
  Fe  Fe3       1.0  0.33333  0.66667  0.07909  1.0000
  O   O1        1.0  0.15870  0.18990  0.37898  1.0000
  O   O2        1.0  0.81010  0.96880  0.37898  1.0000
  O   O3        1.0  0.03120  0.84130  0.37898  1.0000
  O   O4        1.0  0.82537  0.52323  0.71231  1.0000
  O   O5        1.0  0.47677  0.30213  0.71231  1.0000
  O   O6        1.0  0.69787  0.17463  0.71231  1.0000
  O   O7        1.0  0.49203  0.85657  0.04565  1.0000
  O   O8        1.0  0.14343  0.63547  0.04565  1.0000
  O   O9        1.0  0.36453  0.50797  0.04565  1.0000
  O   O10       1.0  0.00330  0.16900  0.45258  1.0000
  O   O11       1.0  0.83100  0.83430  0.45258  1.0000
  O   O12       1.0  0.16570  0.99670  0.45258  1.0000
  O   O13       1.0  0.66997  0.50233  0.78591  1.0000
  O   O14       1.0  0.49767  0.16763  0.78591  1.0000
  O   O15       1.0  0.83237  0.33003  0.78591  1.0000
  O   O16       1.0  0.33663  0.83567  0.11925  1.0000
  O   O17       1.0  0.16433  0.50097  0.11925  1.0000
  O   O18       1.0  0.49903  0.66337  0.11925  1.0000
  C   C1        1.0  0.20030  0.32270  0.39811  1.0000
  C   C2        1.0  0.67730  0.87760  0.39811  1.0000
  C   C3        1.0  0.12240  0.79970  0.39811  1.0000
  C   C4        1.0  0.86697  0.65603  0.73144  1.0000
  C   C5        1.0  0.34397  0.21093  0.73144  1.0000
  C   C6        1.0  0.78907  0.13303  0.73144  1.0000
  C   C7        1.0  0.53363  0.98937  0.06478  1.0000
  C   C8        1.0  0.01063  0.54427  0.06478  1.0000
  C   C9        1.0  0.45573  0.46637  0.06478  1.0000
  C   C10       1.0  0.10720  0.31430  0.44125  1.0000
  C   C11       1.0  0.68570  0.79290  0.44125  1.0000
  C   C12       1.0  0.20710  0.89280  0.44125  1.0000
  C   C13       1.0  0.77387  0.64763  0.77458  1.0000
  C   C14       1.0  0.35237  0.12623  0.77458  1.0000
  C   C15       1.0  0.87377  0.22613  0.77458  1.0000
  C   C16       1.0  0.44053  0.98097  0.10792  1.0000
  C   C17       1.0  0.01903  0.45957  0.10792  1.0000
  C   C18       1.0  0.54043  0.55947  0.10792  1.0000
  O   O19       1.0  0.30640  0.45350  0.38515  1.0000
  O   O20       1.0  0.54650  0.85290  0.38515  1.0000
  O   O21       1.0  0.14710  0.69360  0.38515  1.0000
  O   O22       1.0  0.97307  0.78683  0.71848  1.0000
  O   O23       1.0  0.21317  0.18623  0.71848  1.0000
  O   O24       1.0  0.81377  0.02693  0.71848  1.0000
  O   O25       1.0  0.63973  0.12017  0.05182  1.0000
  O   O26       1.0  0.87983  0.51957  0.05182  1.0000
  O   O27       1.0  0.48043  0.36027  0.05182  1.0000
  O   O28       1.0  0.13090  0.43170  0.46126  1.0000
  O   O29       1.0  0.56830  0.69920  0.46126  1.0000
  O   O30       1.0  0.30080  0.86910  0.46126  1.0000
  O   O31       1.0  0.79757  0.76503  0.79459  1.0000
  O   O32       1.0  0.23497  0.03253  0.79459  1.0000
  O   O33       1.0  0.96747  0.20243  0.79459  1.0000
  O   O34       1.0  0.46423  0.09837  0.12793  1.0000
  O   O35       1.0  0.90163  0.36587  0.12793  1.0000
  O   O36       1.0  0.63413  0.53577  0.12793  1.0000
  Na  Na1       1.0  0.33333  0.66667  0.43316  1.0000
  Na  Na2       1.0  1.00000  0.00000  0.76649  1.0000
  Na  Na3       1.0  0.66666  0.33334  0.09983  1.0000
  O   O37       1.0  0.34490  0.49860  0.55196  1.0000
  O   O38       1.0  0.50140  0.84630  0.55196  1.0000
  O   O39       1.0  0.15370  0.65510  0.55196  1.0000
  O   O40       1.0  0.01157  0.83193  0.88529  1.0000
  O   O41       1.0  0.16807  0.17963  0.88529  1.0000
  O   O42       1.0  0.82037  0.98843  0.88529  1.0000
  O   O43       1.0  0.67823  0.16527  0.21863  1.0000
  O   O44       1.0  0.83473  0.51297  0.21863  1.0000
  O   O45       1.0  0.48703  0.32177  0.21863  1.0000
  C   C19       1.0  0.45170  0.46780  0.56489  1.0000
  C   C20       1.0  0.53220  0.98390  0.56489  1.0000
  C   C21       1.0  0.01610  0.54830  0.56489  1.0000
  C   C22       1.0  0.11837  0.80113  0.89822  1.0000
  C   C23       1.0  0.19887  0.31723  0.89822  1.0000
  C   C24       1.0  0.68277  0.88163  0.89822  1.0000
  C   C25       1.0  0.78503  0.13447  0.23156  1.0000
  C   C26       1.0  0.86553  0.65057  0.23156  1.0000
  C   C27       1.0  0.34943  0.21497  0.23156  1.0000
  Na  Na4       1.0  0.66667  0.33333  0.58851  1.0000
  Na  Na5       1.0  0.33334  0.66666  0.92184  1.0000
  Na  Na6       1.0  0.00000  1.00000  0.25518  1.0000
  Fe  Fe4       1.0  0.33333  0.66667  0.58757  1.0000
  Fe  Fe5       1.0  1.00000  0.00000  0.92090  1.0000
  Fe  Fe6       1.0  0.66666  0.33334  0.25424  1.0000
  O   O46       1.0  0.49160  0.64390  0.62564  1.0000
  O   O47       1.0  0.35610  0.84770  0.62564  1.0000
  O   O48       1.0  0.15230  0.50840  0.62564  1.0000
  O   O49       1.0  0.15827  0.97723  0.95897  1.0000
  O   O50       1.0  0.02277  0.18103  0.95897  1.0000
  O   O51       1.0  0.81897  0.84173  0.95897  1.0000
  O   O52       1.0  0.82493  0.31057  0.29231  1.0000
  O   O53       1.0  0.68943  0.51437  0.29231  1.0000
  O   O54       1.0  0.48563  0.17507  0.29231  1.0000
  C   C28       1.0  0.54050  0.55610  0.60811  1.0000
  C   C29       1.0  0.44390  0.98440  0.60811  1.0000
  C   C30       1.0  0.01560  0.45950  0.60811  1.0000
  C   C31       1.0  0.20717  0.88943  0.94144  1.0000
  C   C32       1.0  0.11057  0.31773  0.94144  1.0000
  C   C33       1.0  0.68227  0.79283  0.94144  1.0000
  C   C34       1.0  0.87383  0.22277  0.27478  1.0000
  C   C35       1.0  0.77723  0.65107  0.27478  1.0000
  C   C36       1.0  0.34893  0.12617  0.27478  1.0000
  O   O55       1.0  0.48760  0.37720  0.54645  1.0000
  O   O56       1.0  0.62280  0.11040  0.54645  1.0000
  O   O57       1.0  0.88960  0.51240  0.54645  1.0000
  O   O58       1.0  0.15427  0.71053  0.87978  1.0000
  O   O59       1.0  0.28947  0.44373  0.87978  1.0000
  O   O60       1.0  0.55627  0.84573  0.87978  1.0000
  O   O61       1.0  0.82093  0.04387  0.21312  1.0000
  O   O62       1.0  0.95613  0.77707  0.21312  1.0000
  O   O63       1.0  0.22293  0.17907  0.21312  1.0000
  O   O64       1.0  0.64950  0.53960  0.62241  1.0000
  O   O65       1.0  0.46040  0.10990  0.62241  1.0000
  O   O66       1.0  0.89010  0.35050  0.62241  1.0000
  O   O67       1.0  0.31617  0.87293  0.95574  1.0000
  O   O68       1.0  0.12707  0.44323  0.95574  1.0000
  O   O69       1.0  0.55677  0.68383  0.95574  1.0000
  O   O70       1.0  0.98283  0.20627  0.28908  1.0000
  O   O71       1.0  0.79373  0.77657  0.28908  1.0000
  O   O72       1.0  0.22343  0.01717  0.28908  1.0000
