data_image0
_chemical_formula_structural       F32N32C96Li8
_chemical_formula_sum              "F32 N32 C96 Li8"
_cell_length_a       12.137
_cell_length_b       15.415
_cell_length_c       19.82
_cell_angle_alpha    90
_cell_angle_beta     90
_cell_angle_gamma    90

_space_group_name_H-M_alt    "P 1"
_space_group_IT_number       1

loop_
  _space_group_symop_operation_xyz
  'x, y, z'

loop_
  _atom_site_type_symbol
  _atom_site_label
  _atom_site_symmetry_multiplicity
  _atom_site_fract_x
  _atom_site_fract_y
  _atom_site_fract_z
  _atom_site_occupancy
  F   F1        1.0  0.30504  0.09500  0.96321  1.0000
  F   F2        1.0  0.69496  0.40500  0.46321  1.0000
  F   F3        1.0  0.30504  0.90500  0.03679  1.0000
  F   F4        1.0  0.69496  0.59500  0.53679  1.0000
  F   F5        1.0  0.80504  0.59500  0.96321  1.0000
  F   F6        1.0  0.19496  0.90500  0.46321  1.0000
  F   F7        1.0  0.80504  0.40500  0.03679  1.0000
  F   F8        1.0  0.19496  0.09500  0.53679  1.0000
  F   F9        1.0  0.69496  0.90500  0.03679  1.0000
  F   F10       1.0  0.30504  0.59500  0.53679  1.0000
  F   F11       1.0  0.69496  0.09500  0.96321  1.0000
  F   F12       1.0  0.30504  0.40500  0.46321  1.0000
  F   F13       1.0  0.19496  0.40500  0.03679  1.0000
  F   F14       1.0  0.80504  0.09500  0.53679  1.0000
  F   F15       1.0  0.19496  0.59500  0.96321  1.0000
  F   F16       1.0  0.80504  0.90500  0.46321  1.0000
  F   F17       1.0  0.30510  0.19637  0.06917  1.0000
  F   F18       1.0  0.69490  0.30363  0.56917  1.0000
  F   F19       1.0  0.30510  0.80363  0.93083  1.0000
  F   F20       1.0  0.69490  0.69637  0.43083  1.0000
  F   F21       1.0  0.80510  0.69637  0.06917  1.0000
  F   F22       1.0  0.19490  0.80363  0.56917  1.0000
  F   F23       1.0  0.80510  0.30363  0.93083  1.0000
  F   F24       1.0  0.19490  0.19637  0.43083  1.0000
  F   F25       1.0  0.69490  0.80363  0.93083  1.0000
  F   F26       1.0  0.30510  0.69637  0.43083  1.0000
  F   F27       1.0  0.69490  0.19637  0.06917  1.0000
  F   F28       1.0  0.30510  0.30363  0.56917  1.0000
  F   F29       1.0  0.19490  0.30363  0.93083  1.0000
  F   F30       1.0  0.80510  0.19637  0.43083  1.0000
  F   F31       1.0  0.19490  0.69637  0.06917  1.0000
  F   F32       1.0  0.80510  0.80363  0.56917  1.0000
  N   N1        1.0  0.66463  0.33674  0.18824  1.0000
  N   N2        1.0  0.33537  0.16326  0.68824  1.0000
  N   N3        1.0  0.66463  0.66326  0.81176  1.0000
  N   N4        1.0  0.33537  0.83674  0.31176  1.0000
  N   N5        1.0  0.16463  0.83674  0.18824  1.0000
  N   N6        1.0  0.83537  0.66326  0.68824  1.0000
  N   N7        1.0  0.16463  0.16326  0.81176  1.0000
  N   N8        1.0  0.83537  0.33674  0.31176  1.0000
  N   N9        1.0  0.33537  0.66326  0.81176  1.0000
  N   N10       1.0  0.66463  0.83674  0.31176  1.0000
  N   N11       1.0  0.33537  0.33674  0.18824  1.0000
  N   N12       1.0  0.66463  0.16326  0.68824  1.0000
  N   N13       1.0  0.83537  0.16326  0.81176  1.0000
  N   N14       1.0  0.16463  0.33674  0.31176  1.0000
  N   N15       1.0  0.83537  0.83674  0.18824  1.0000
  N   N16       1.0  0.16463  0.66326  0.68824  1.0000
  N   N17       1.0  0.33099  0.00706  0.82040  1.0000
  N   N18       1.0  0.66901  0.49294  0.32040  1.0000
  N   N19       1.0  0.33099  0.99294  0.17960  1.0000
  N   N20       1.0  0.66901  0.50706  0.67960  1.0000
  N   N21       1.0  0.83099  0.50706  0.82040  1.0000
  N   N22       1.0  0.16901  0.99294  0.32040  1.0000
  N   N23       1.0  0.83099  0.49294  0.17960  1.0000
  N   N24       1.0  0.16901  0.00706  0.67960  1.0000
  N   N25       1.0  0.66901  0.99294  0.17960  1.0000
  N   N26       1.0  0.33099  0.50706  0.67960  1.0000
  N   N27       1.0  0.66901  0.00706  0.82040  1.0000
  N   N28       1.0  0.33099  0.49294  0.32040  1.0000
  N   N29       1.0  0.16901  0.49294  0.17960  1.0000
  N   N30       1.0  0.83099  0.00706  0.67960  1.0000
  N   N31       1.0  0.16901  0.50706  0.82040  1.0000
  N   N32       1.0  0.83099  0.99294  0.32040  1.0000
  C   C1        1.0  0.40448  0.11900  0.98820  1.0000
  C   C2        1.0  0.59552  0.38100  0.48820  1.0000
  C   C3        1.0  0.40448  0.88100  0.01180  1.0000
  C   C4        1.0  0.59552  0.61900  0.51180  1.0000
  C   C5        1.0  0.90448  0.61900  0.98820  1.0000
  C   C6        1.0  0.09552  0.88100  0.48820  1.0000
  C   C7        1.0  0.90448  0.38100  0.01180  1.0000
  C   C8        1.0  0.09552  0.11900  0.51180  1.0000
  C   C9        1.0  0.59552  0.88100  0.01180  1.0000
  C   C10       1.0  0.40448  0.61900  0.51180  1.0000
  C   C11       1.0  0.59552  0.11900  0.98820  1.0000
  C   C12       1.0  0.40448  0.38100  0.48820  1.0000
  C   C13       1.0  0.09552  0.38100  0.01180  1.0000
  C   C14       1.0  0.90448  0.11900  0.51180  1.0000
  C   C15       1.0  0.09552  0.61900  0.98820  1.0000
  C   C16       1.0  0.90448  0.88100  0.48820  1.0000
  C   C17       1.0  0.40451  0.17225  0.04409  1.0000
  C   C18       1.0  0.59549  0.32775  0.54409  1.0000
  C   C19       1.0  0.40451  0.82775  0.95591  1.0000
  C   C20       1.0  0.59549  0.67225  0.45591  1.0000
  C   C21       1.0  0.90451  0.67225  0.04409  1.0000
  C   C22       1.0  0.09549  0.82775  0.54409  1.0000
  C   C23       1.0  0.90451  0.32775  0.95591  1.0000
  C   C24       1.0  0.09549  0.17225  0.45591  1.0000
  C   C25       1.0  0.59549  0.82775  0.95591  1.0000
  C   C26       1.0  0.40451  0.67225  0.45591  1.0000
  C   C27       1.0  0.59549  0.17225  0.04409  1.0000
  C   C28       1.0  0.40451  0.32775  0.54409  1.0000
  C   C29       1.0  0.09549  0.32775  0.95591  1.0000
  C   C30       1.0  0.90451  0.17225  0.45591  1.0000
  C   C31       1.0  0.09549  0.67225  0.04409  1.0000
  C   C32       1.0  0.90451  0.82775  0.54409  1.0000
  C   C33       1.0  0.50000  0.20363  0.07450  1.0000
  C   C34       1.0  0.50000  0.29637  0.57450  1.0000
  C   C35       1.0  0.50000  0.79637  0.92550  1.0000
  C   C36       1.0  0.50000  0.70363  0.42550  1.0000
  C   C37       1.0  0.00000  0.70363  0.07450  1.0000
  C   C38       1.0  0.00000  0.79637  0.57450  1.0000
  C   C39       1.0  0.00000  0.29637  0.92550  1.0000
  C   C40       1.0  0.00000  0.20363  0.42550  1.0000
  C   C41       1.0  0.50000  0.26480  0.13037  1.0000
  C   C42       1.0  0.50000  0.23520  0.63037  1.0000
  C   C43       1.0  0.50000  0.73520  0.86963  1.0000
  C   C44       1.0  0.50000  0.76480  0.36963  1.0000
  C   C45       1.0  0.00000  0.76480  0.13037  1.0000
  C   C46       1.0  0.00000  0.73520  0.63037  1.0000
  C   C47       1.0  0.00000  0.23520  0.86963  1.0000
  C   C48       1.0  0.00000  0.26480  0.36963  1.0000
  C   C49       1.0  0.59502  0.30104  0.15960  1.0000
  C   C50       1.0  0.40498  0.19896  0.65960  1.0000
  C   C51       1.0  0.59502  0.69896  0.84040  1.0000
  C   C52       1.0  0.40498  0.80104  0.34040  1.0000
  C   C53       1.0  0.09502  0.80104  0.15960  1.0000
  C   C54       1.0  0.90498  0.69896  0.65960  1.0000
  C   C55       1.0  0.09502  0.19896  0.84040  1.0000
  C   C56       1.0  0.90498  0.30104  0.34040  1.0000
  C   C57       1.0  0.40498  0.69896  0.84040  1.0000
  C   C58       1.0  0.59502  0.80104  0.34040  1.0000
  C   C59       1.0  0.40498  0.30104  0.15960  1.0000
  C   C60       1.0  0.59502  0.19896  0.65960  1.0000
  C   C61       1.0  0.90498  0.19896  0.84040  1.0000
  C   C62       1.0  0.09502  0.30104  0.34040  1.0000
  C   C63       1.0  0.90498  0.80104  0.15960  1.0000
  C   C64       1.0  0.09502  0.69896  0.65960  1.0000
  C   C65       1.0  0.50000  0.09095  0.95584  1.0000
  C   C66       1.0  0.50000  0.40905  0.45584  1.0000
  C   C67       1.0  0.50000  0.90905  0.04416  1.0000
  C   C68       1.0  0.50000  0.59095  0.54416  1.0000
  C   C69       1.0  0.00000  0.59095  0.95584  1.0000
  C   C70       1.0  0.00000  0.90905  0.45584  1.0000
  C   C71       1.0  0.00000  0.40905  0.04416  1.0000
  C   C72       1.0  0.00000  0.09095  0.54416  1.0000
  C   C73       1.0  0.50000  0.04104  0.89323  1.0000
  C   C74       1.0  0.50000  0.45896  0.39323  1.0000
  C   C75       1.0  0.50000  0.95896  0.10677  1.0000
  C   C76       1.0  0.50000  0.54104  0.60677  1.0000
  C   C77       1.0  0.00000  0.54104  0.89323  1.0000
  C   C78       1.0  0.00000  0.95896  0.39323  1.0000
  C   C79       1.0  0.00000  0.45896  0.10677  1.0000
  C   C80       1.0  0.00000  0.04104  0.60677  1.0000
  C   C81       1.0  0.40436  0.02267  0.85586  1.0000
  C   C82       1.0  0.59564  0.47733  0.35586  1.0000
  C   C83       1.0  0.40436  0.97733  0.14414  1.0000
  C   C84       1.0  0.59564  0.52267  0.64414  1.0000
  C   C85       1.0  0.90436  0.52267  0.85586  1.0000
  C   C86       1.0  0.09564  0.97733  0.35586  1.0000
  C   C87       1.0  0.90436  0.47733  0.14414  1.0000
  C   C88       1.0  0.09564  0.02267  0.64414  1.0000
  C   C89       1.0  0.59564  0.97733  0.14414  1.0000
  C   C90       1.0  0.40436  0.52267  0.64414  1.0000
  C   C91       1.0  0.59564  0.02267  0.85586  1.0000
  C   C92       1.0  0.40436  0.47733  0.35586  1.0000
  C   C93       1.0  0.09564  0.47733  0.14414  1.0000
  C   C94       1.0  0.90436  0.02267  0.64414  1.0000
  C   C95       1.0  0.09564  0.52267  0.85586  1.0000
  C   C96       1.0  0.90436  0.97733  0.35586  1.0000
  Li  Li1       1.0  0.25000  0.41700  0.25000  1.0000
  Li  Li2       1.0  0.75000  0.08300  0.75000  1.0000
  Li  Li3       1.0  0.25000  0.58300  0.75000  1.0000
  Li  Li4       1.0  0.75000  0.91700  0.25000  1.0000
  Li  Li5       1.0  0.75000  0.58300  0.75000  1.0000
  Li  Li6       1.0  0.25000  0.91700  0.25000  1.0000
  Li  Li7       1.0  0.75000  0.41700  0.25000  1.0000
  Li  Li8       1.0  0.25000  0.08300  0.75000  1.0000
