data_image0
_chemical_formula_structural       Cu2V4F16O4N8H4N8H4C4H4C4H4C4H4C4H4C4H4C4H4
_chemical_formula_sum              "Cu2 V4 F16 O4 N16 H32 C24"
_cell_length_a       11.024
_cell_length_b       10.0946
_cell_length_c       12.635
_cell_angle_alpha    90
_cell_angle_beta     103.155
_cell_angle_gamma    90

_space_group_name_H-M_alt    "P 1"
_space_group_IT_number       1

loop_
  _space_group_symop_operation_xyz
  'x, y, z'

loop_
  _atom_site_type_symbol
  _atom_site_label
  _atom_site_symmetry_multiplicity
  _atom_site_fract_x
  _atom_site_fract_y
  _atom_site_fract_z
  _atom_site_occupancy
  Cu  Cu1       1.0  0.00000  0.00000  0.00000  1.0000
  Cu  Cu2       1.0  0.50000  0.50000  0.50000  1.0000
  V   V1        1.0  0.65205  0.03209  0.04208  1.0000
  V   V2        1.0  0.84795  0.53209  0.45792  1.0000
  V   V3        1.0  0.34795  0.96791  0.95792  1.0000
  V   V4        1.0  0.15205  0.46791  0.54208  1.0000
  F   F1        1.0  0.65486  0.89727  0.14962  1.0000
  F   F2        1.0  0.84514  0.39727  0.35038  1.0000
  F   F3        1.0  0.34514  0.10273  0.85038  1.0000
  F   F4        1.0  0.15486  0.60273  0.64962  1.0000
  F   F5        1.0  0.69915  0.15673  0.16088  1.0000
  F   F6        1.0  0.80085  0.65673  0.33912  1.0000
  F   F7        1.0  0.30085  0.84327  0.83912  1.0000
  F   F8        1.0  0.19915  0.34327  0.66088  1.0000
  F   F9        1.0  0.61228  0.18309  0.94544  1.0000
  F   F10       1.0  0.88772  0.68309  0.55456  1.0000
  F   F11       1.0  0.38772  0.81691  0.05456  1.0000
  F   F12       1.0  0.11228  0.31691  0.44544  1.0000
  F   F13       1.0  0.46427  0.07247  0.06707  1.0000
  F   F14       1.0  0.03573  0.57247  0.43293  1.0000
  F   F15       1.0  0.53573  0.92753  0.93293  1.0000
  F   F16       1.0  0.96427  0.42753  0.56707  1.0000
  O   O1        1.0  0.78120  0.99340  0.01166  1.0000
  O   O2        1.0  0.71880  0.49340  0.48834  1.0000
  O   O3        1.0  0.21880  0.00660  0.98834  1.0000
  O   O4        1.0  0.28120  0.50660  0.51166  1.0000
  N   N1        1.0  0.01900  0.16860  0.09000  1.0000
  N   N2        1.0  0.48100  0.66860  0.41000  1.0000
  N   N3        1.0  0.98100  0.83140  0.91000  1.0000
  N   N4        1.0  0.51900  0.33140  0.59000  1.0000
  N   N5        1.0  0.00650  0.30820  0.22060  1.0000
  N   N6        1.0  0.49350  0.80820  0.27940  1.0000
  N   N7        1.0  0.99350  0.69180  0.77940  1.0000
  N   N8        1.0  0.50650  0.19180  0.72060  1.0000
  H   H1        1.0  0.99480  0.33770  0.28140  1.0000
  H   H2        1.0  0.50520  0.83770  0.21860  1.0000
  H   H3        1.0  0.00520  0.66230  0.71860  1.0000
  H   H4        1.0  0.49480  0.16230  0.78140  1.0000
  N   N9        1.0  0.96140  0.11460  0.86580  1.0000
  N   N10       1.0  0.53860  0.61460  0.63420  1.0000
  N   N11       1.0  0.03860  0.88540  0.13420  1.0000
  N   N12       1.0  0.46140  0.38540  0.36580  1.0000
  N   N13       1.0  0.98310  0.25580  0.73960  1.0000
  N   N14       1.0  0.51690  0.75580  0.76040  1.0000
  N   N15       1.0  0.01690  0.74420  0.26040  1.0000
  N   N16       1.0  0.48310  0.24420  0.23960  1.0000
  H   H5        1.0  0.01740  0.30150  0.69690  1.0000
  H   H6        1.0  0.48260  0.80150  0.80310  1.0000
  H   H7        1.0  0.98260  0.69850  0.30310  1.0000
  H   H8        1.0  0.51740  0.19850  0.19690  1.0000
  C   C1        1.0  0.99400  0.18270  0.18650  1.0000
  C   C2        1.0  0.50600  0.68270  0.31350  1.0000
  C   C3        1.0  0.00600  0.81730  0.81350  1.0000
  C   C4        1.0  0.49400  0.31730  0.68650  1.0000
  H   H9        1.0  0.97050  0.11360  0.22610  1.0000
  H   H10       1.0  0.52950  0.61360  0.27390  1.0000
  H   H11       1.0  0.02950  0.88640  0.77390  1.0000
  H   H12       1.0  0.47050  0.38640  0.72610  1.0000
  C   C5        1.0  0.04100  0.38080  0.14200  1.0000
  C   C6        1.0  0.45900  0.88080  0.35800  1.0000
  C   C7        1.0  0.95900  0.61920  0.85800  1.0000
  C   C8        1.0  0.54100  0.11920  0.64200  1.0000
  H   H13       1.0  0.05600  0.47150  0.14310  1.0000
  H   H14       1.0  0.44400  0.97150  0.35690  1.0000
  H   H15       1.0  0.94400  0.52850  0.85690  1.0000
  H   H16       1.0  0.55600  0.02850  0.64310  1.0000
  C   C9        1.0  0.04910  0.29500  0.06200  1.0000
  C   C10       1.0  0.45090  0.79500  0.43800  1.0000
  C   C11       1.0  0.95090  0.70500  0.93800  1.0000
  C   C12       1.0  0.54910  0.20500  0.56200  1.0000
  H   H17       1.0  0.07150  0.31750  0.99770  1.0000
  H   H18       1.0  0.42850  0.81750  0.50230  1.0000
  H   H19       1.0  0.92850  0.68250  0.00230  1.0000
  H   H20       1.0  0.57150  0.18250  0.49770  1.0000
  C   C13       1.0  0.04090  0.16630  0.81250  1.0000
  C   C14       1.0  0.45910  0.66630  0.68750  1.0000
  C   C15       1.0  0.95910  0.83370  0.18750  1.0000
  C   C16       1.0  0.54090  0.33370  0.31250  1.0000
  H   H21       1.0  0.12470  0.14370  0.82400  1.0000
  H   H22       1.0  0.37530  0.64370  0.67600  1.0000
  H   H23       1.0  0.87530  0.85630  0.17600  1.0000
  H   H24       1.0  0.62470  0.35630  0.32400  1.0000
  C   C17       1.0  0.85960  0.26220  0.74490  1.0000
  C   C18       1.0  0.64040  0.76220  0.75510  1.0000
  C   C19       1.0  0.14040  0.73780  0.25510  1.0000
  C   C20       1.0  0.35960  0.23780  0.24490  1.0000
  H   H25       1.0  0.79780  0.31540  0.70330  1.0000
  H   H26       1.0  0.70220  0.81540  0.79670  1.0000
  H   H27       1.0  0.20220  0.68460  0.29670  1.0000
  H   H28       1.0  0.29780  0.18460  0.20330  1.0000
  C   C21       1.0  0.84670  0.17430  0.82350  1.0000
  C   C22       1.0  0.65330  0.67430  0.67650  1.0000
  C   C23       1.0  0.15330  0.82570  0.17650  1.0000
  C   C24       1.0  0.34670  0.32570  0.32350  1.0000
  H   H29       1.0  0.77320  0.15710  0.84540  1.0000
  H   H30       1.0  0.72680  0.65710  0.65460  1.0000
  H   H31       1.0  0.22680  0.84290  0.15460  1.0000
  H   H32       1.0  0.27320  0.34290  0.34540  1.0000
