data_image0
_chemical_formula_structural       Ag4O16N4C12O16N4C12
_chemical_formula_sum              "Ag4 O32 N8 C24"
_cell_length_a       6.8003
_cell_length_b       11.3128
_cell_length_c       15.4766
_cell_angle_alpha    108.407
_cell_angle_beta     91.535
_cell_angle_gamma    99.86

_space_group_name_H-M_alt    "P 1"
_space_group_IT_number       1

loop_
  _space_group_symop_operation_xyz
  'x, y, z'

loop_
  _atom_site_type_symbol
  _atom_site_label
  _atom_site_symmetry_multiplicity
  _atom_site_fract_x
  _atom_site_fract_y
  _atom_site_fract_z
  _atom_site_occupancy
  Ag  Ag1       1.0  0.53906  0.56677  0.26659  1.0000
  Ag  Ag2       1.0  0.46094  0.43323  0.73341  1.0000
  Ag  Ag3       1.0  0.99010  0.50714  0.74647  1.0000
  Ag  Ag4       1.0  0.00990  0.49286  0.25353  1.0000
  O   O1        1.0  0.37560  0.41520  0.33612  1.0000
  O   O2        1.0  0.62440  0.58480  0.66388  1.0000
  O   O3        1.0  0.35040  0.65990  0.38719  1.0000
  O   O4        1.0  0.64960  0.34010  0.61281  1.0000
  O   O5        1.0  0.17780  0.63880  0.67593  1.0000
  O   O6        1.0  0.82220  0.36120  0.32407  1.0000
  O   O7        1.0  0.12380  0.38770  0.61125  1.0000
  O   O8        1.0  0.87620  0.61230  0.38875  1.0000
  O   O9        1.0  0.22730  0.85100  0.52070  1.0000
  O   O10       1.0  0.77270  0.14900  0.47930  1.0000
  O   O11       1.0  0.37020  0.85610  0.64966  1.0000
  O   O12       1.0  0.62980  0.14390  0.35034  1.0000
  O   O13       1.0  0.13850  0.19790  0.35510  1.0000
  O   O14       1.0  0.86150  0.80210  0.64490  1.0000
  O   O15       1.0  0.27580  0.19760  0.48379  1.0000
  O   O16       1.0  0.72420  0.80240  0.51621  1.0000
  N   N1        1.0  0.29250  0.79860  0.57150  1.0000
  N   N2        1.0  0.70750  0.20140  0.42850  1.0000
  N   N3        1.0  0.21690  0.25180  0.43300  1.0000
  N   N4        1.0  0.78310  0.74820  0.56700  1.0000
  C   C1        1.0  0.31230  0.45970  0.41100  1.0000
  C   C2        1.0  0.68770  0.54030  0.58900  1.0000
  C   C3        1.0  0.31370  0.60470  0.44460  1.0000
  C   C4        1.0  0.68630  0.39530  0.55540  1.0000
  C   C5        1.0  0.27670  0.66170  0.53620  1.0000
  C   C6        1.0  0.72330  0.33830  0.46380  1.0000
  C   C7        1.0  0.21840  0.59270  0.59600  1.0000
  C   C8        1.0  0.78160  0.40730  0.40400  1.0000
  C   C9        1.0  0.19070  0.44590  0.55830  1.0000
  C   C10       1.0  0.80930  0.55410  0.44170  1.0000
  C   C11       1.0  0.24080  0.38990  0.46950  1.0000
  C   C12       1.0  0.75920  0.61010  0.53050  1.0000
  O   O17       1.0  0.78940  0.64210  0.18686  1.0000
  O   O18       1.0  0.21060  0.35790  0.81314  1.0000
  O   O19       1.0  0.57630  0.40840  0.11798  1.0000
  O   O20       1.0  0.42370  0.59160  0.88202  1.0000
  O   O21       1.0  0.76530  0.39390  0.82326  1.0000
  O   O22       1.0  0.23470  0.60610  0.17674  1.0000
  O   O23       1.0  0.94510  0.63630  0.89174  1.0000
  O   O24       1.0  0.05490  0.36370  0.10826  1.0000
  O   O25       1.0  0.60070  0.18850  0.98316  1.0000
  O   O26       1.0  0.39930  0.81150  0.01684  1.0000
  O   O27       1.0  0.49390  0.20920  0.85663  1.0000
  O   O28       1.0  0.50610  0.79080  0.14337  1.0000
  O   O29       1.0  0.89970  0.85430  0.02883  1.0000
  O   O30       1.0  0.10030  0.14570  0.97117  1.0000
  O   O31       1.0  0.04730  0.82940  0.14617  1.0000
  O   O32       1.0  0.95270  0.17060  0.85383  1.0000
  N   N5        1.0  0.58120  0.25280  0.93330  1.0000
  N   N6        1.0  0.41880  0.74720  0.06670  1.0000
  N   N7        1.0  0.93950  0.78820  0.07390  1.0000
  N   N8        1.0  0.06050  0.21180  0.92610  1.0000
  C   C13       1.0  0.77650  0.59300  0.10190  1.0000
  C   C14       1.0  0.22350  0.40700  0.89810  1.0000
  C   C15       1.0  0.66570  0.45340  0.06240  1.0000
  C   C16       1.0  0.33430  0.54660  0.93760  1.0000
  C   C17       1.0  0.67030  0.38730  0.96820  1.0000
  C   C18       1.0  0.32970  0.61270  0.03180  1.0000
  C   C19       1.0  0.75750  0.44630  0.90670  1.0000
  C   C20       1.0  0.24250  0.55370  0.09330  1.0000
  C   C21       1.0  0.85720  0.58880  0.94540  1.0000
  C   C22       1.0  0.14280  0.41120  0.05460  1.0000
  C   C23       1.0  0.85050  0.65330  0.03910  1.0000
  C   C24       1.0  0.14950  0.34670  0.96090  1.0000
