data_image0
_chemical_formula_structural       Cd8Na4O48N4H4N4H4N4H4C28H12C4H12C4H12C4H8C8H4C8H4C8H4C12H8C8H4C8H4C8H4C12H8C8H4C8H4C8H4C8O4N4C4H4C4H12C4H12O4N4C4H4C4H12C4H12O4N4C4H4C4H12C4H12
_chemical_formula_sum              "Cd8 Na4 O60 N24 H192 C180"
_cell_length_a       16.836
_cell_length_b       24.094
_cell_length_c       17.7653
_cell_angle_alpha    90
_cell_angle_beta     117.791
_cell_angle_gamma    90

_space_group_name_H-M_alt    "P 1"
_space_group_IT_number       1

loop_
  _space_group_symop_operation_xyz
  'x, y, z'

loop_
  _atom_site_type_symbol
  _atom_site_label
  _atom_site_symmetry_multiplicity
  _atom_site_fract_x
  _atom_site_fract_y
  _atom_site_fract_z
  _atom_site_occupancy
  Cd  Cd1       1.0  0.29425  0.94347  0.13676  1.0000
  Cd  Cd2       1.0  0.70575  0.44347  0.36324  1.0000
  Cd  Cd3       1.0  0.70575  0.05653  0.86324  1.0000
  Cd  Cd4       1.0  0.29425  0.55653  0.63676  1.0000
  Cd  Cd5       1.0  0.15036  0.60436  0.93701  1.0000
  Cd  Cd6       1.0  0.84964  0.10436  0.56299  1.0000
  Cd  Cd7       1.0  0.84964  0.39564  0.06299  1.0000
  Cd  Cd8       1.0  0.15036  0.89564  0.43701  1.0000
  Na  Na1       1.0  0.78909  0.08156  0.71883  1.0000
  Na  Na2       1.0  0.21091  0.58156  0.78117  1.0000
  Na  Na3       1.0  0.21091  0.91844  0.28117  1.0000
  Na  Na4       1.0  0.78909  0.41844  0.21883  1.0000
  O   O1        1.0  0.22550  0.65770  0.87320  1.0000
  O   O2        1.0  0.77450  0.15770  0.62680  1.0000
  O   O3        1.0  0.77450  0.34230  0.12680  1.0000
  O   O4        1.0  0.22550  0.84230  0.37320  1.0000
  O   O5        1.0  0.20450  0.69360  0.97620  1.0000
  O   O6        1.0  0.79550  0.19360  0.52380  1.0000
  O   O7        1.0  0.79550  0.30640  0.02380  1.0000
  O   O8        1.0  0.20450  0.80640  0.47620  1.0000
  O   O9        1.0  0.35930  0.87300  0.10470  1.0000
  O   O10       1.0  0.64070  0.37300  0.39530  1.0000
  O   O11       1.0  0.64070  0.12700  0.89530  1.0000
  O   O12       1.0  0.35930  0.62700  0.60470  1.0000
  O   O13       1.0  0.47750  0.89870  0.08740  1.0000
  O   O14       1.0  0.52250  0.39870  0.41260  1.0000
  O   O15       1.0  0.52250  0.10130  0.91260  1.0000
  O   O16       1.0  0.47750  0.60130  0.58740  1.0000
  O   O17       1.0  0.35610  0.92140  0.28510  1.0000
  O   O18       1.0  0.64390  0.42140  0.21490  1.0000
  O   O19       1.0  0.64390  0.07860  0.71490  1.0000
  O   O20       1.0  0.35610  0.57860  0.78510  1.0000
  O   O21       1.0  0.42280  0.98580  0.24590  1.0000
  O   O22       1.0  0.57720  0.48580  0.25410  1.0000
  O   O23       1.0  0.57720  0.01420  0.75410  1.0000
  O   O24       1.0  0.42280  0.51420  0.74590  1.0000
  O   O25       1.0  0.71620  0.06240  0.46270  1.0000
  O   O26       1.0  0.28380  0.56240  0.03730  1.0000
  O   O27       1.0  0.28380  0.93760  0.53730  1.0000
  O   O28       1.0  0.71620  0.43760  0.96270  1.0000
  O   O29       1.0  0.77420  0.03290  0.59480  1.0000
  O   O30       1.0  0.22580  0.53290  0.90520  1.0000
  O   O31       1.0  0.22580  0.96710  0.40520  1.0000
  O   O32       1.0  0.77420  0.46710  0.09480  1.0000
  O   O33       1.0  0.66770  0.50730  0.44980  1.0000
  O   O34       1.0  0.33230  0.00730  0.05020  1.0000
  O   O35       1.0  0.33230  0.49270  0.55020  1.0000
  O   O36       1.0  0.66770  0.99270  0.94980  1.0000
  O   O37       1.0  0.80510  0.47970  0.49310  1.0000
  O   O38       1.0  0.19490  0.97970  0.00690  1.0000
  O   O39       1.0  0.19490  0.52030  0.50690  1.0000
  O   O40       1.0  0.80510  0.02030  0.99310  1.0000
  O   O41       1.0  0.05130  0.57770  0.74910  1.0000
  O   O42       1.0  0.94870  0.07770  0.75090  1.0000
  O   O43       1.0  0.94870  0.42230  0.25090  1.0000
  O   O44       1.0  0.05130  0.92230  0.24910  1.0000
  O   O45       1.0  0.01050  0.60240  0.84620  1.0000
  O   O46       1.0  0.98950  0.10240  0.65380  1.0000
  O   O47       1.0  0.98950  0.39760  0.15380  1.0000
  O   O48       1.0  0.01050  0.89760  0.34620  1.0000
  N   N1        1.0  0.46810  0.77090  0.85840  1.0000
  N   N2        1.0  0.53190  0.27090  0.64160  1.0000
  N   N3        1.0  0.53190  0.22910  0.14160  1.0000
  N   N4        1.0  0.46810  0.72910  0.35840  1.0000
  H   H1        1.0  0.51855  0.78803  0.87707  1.0000
  H   H2        1.0  0.48145  0.28803  0.62293  1.0000
  H   H3        1.0  0.48145  0.21197  0.12293  1.0000
  H   H4        1.0  0.51855  0.71197  0.37707  1.0000
  N   N5        1.0  0.56320  0.88440  0.59530  1.0000
  N   N6        1.0  0.43680  0.38440  0.90470  1.0000
  N   N7        1.0  0.43680  0.11560  0.40470  1.0000
  N   N8        1.0  0.56320  0.61560  0.09530  1.0000
  H   H5        1.0  0.60008  0.88909  0.64830  1.0000
  H   H6        1.0  0.39992  0.38909  0.85170  1.0000
  H   H7        1.0  0.39992  0.11091  0.35170  1.0000
  H   H8        1.0  0.60008  0.61091  0.14830  1.0000
  N   N9        1.0  0.67720  0.63820  0.67450  1.0000
  N   N10       1.0  0.32280  0.13820  0.82550  1.0000
  N   N11       1.0  0.32280  0.36180  0.32550  1.0000
  N   N12       1.0  0.67720  0.86180  0.17450  1.0000
  H   H9        1.0  0.62153  0.62940  0.64519  1.0000
  H   H10       1.0  0.37847  0.12940  0.85481  1.0000
  H   H11       1.0  0.37847  0.37060  0.35481  1.0000
  H   H12       1.0  0.62153  0.87060  0.14519  1.0000
  C   C1        1.0  0.49560  0.74610  0.73970  1.0000
  C   C2        1.0  0.50440  0.24610  0.76030  1.0000
  C   C3        1.0  0.50440  0.25390  0.26030  1.0000
  C   C4        1.0  0.49560  0.75390  0.23970  1.0000
  C   C5        1.0  0.47560  0.79090  0.68290  1.0000
  C   C6        1.0  0.52440  0.29090  0.81710  1.0000
  C   C7        1.0  0.52440  0.20910  0.31710  1.0000
  C   C8        1.0  0.47560  0.70910  0.18290  1.0000
  C   C9        1.0  0.52640  0.79600  0.63850  1.0000
  C   C10       1.0  0.47360  0.29600  0.86150  1.0000
  C   C11       1.0  0.47360  0.20400  0.36150  1.0000
  C   C12       1.0  0.52640  0.70400  0.13850  1.0000
  C   C13       1.0  0.59750  0.76000  0.65410  1.0000
  C   C14       1.0  0.40250  0.26000  0.84590  1.0000
  C   C15       1.0  0.40250  0.24000  0.34590  1.0000
  C   C16       1.0  0.59750  0.74000  0.15410  1.0000
  C   C17       1.0  0.62040  0.71870  0.71660  1.0000
  C   C18       1.0  0.37960  0.21870  0.78340  1.0000
  C   C19       1.0  0.37960  0.28130  0.28340  1.0000
  C   C20       1.0  0.62040  0.78130  0.21660  1.0000
  C   C21       1.0  0.56820  0.71020  0.75800  1.0000
  C   C22       1.0  0.43180  0.21020  0.74200  1.0000
  C   C23       1.0  0.43180  0.28980  0.24200  1.0000
  C   C24       1.0  0.56820  0.78980  0.25800  1.0000
  C   C25       1.0  0.40220  0.83070  0.66890  1.0000
  C   C26       1.0  0.59780  0.33070  0.83110  1.0000
  C   C27       1.0  0.59780  0.16930  0.33110  1.0000
  C   C28       1.0  0.40220  0.66930  0.16890  1.0000
  H   H13       1.0  0.39374  0.83182  0.71871  1.0000
  H   H14       1.0  0.60626  0.33182  0.78129  1.0000
  H   H15       1.0  0.60626  0.16818  0.28129  1.0000
  H   H16       1.0  0.39374  0.66818  0.21871  1.0000
  H   H17       1.0  0.34761  0.81878  0.62101  1.0000
  H   H18       1.0  0.65239  0.31878  0.87899  1.0000
  H   H19       1.0  0.65239  0.18122  0.37899  1.0000
  H   H20       1.0  0.34761  0.68122  0.12101  1.0000
  H   H21       1.0  0.41796  0.86697  0.65799  1.0000
  H   H22       1.0  0.58204  0.36697  0.84201  1.0000
  H   H23       1.0  0.58204  0.13303  0.34201  1.0000
  H   H24       1.0  0.41796  0.63303  0.15799  1.0000
  C   C29       1.0  0.64890  0.76550  0.60370  1.0000
  C   C30       1.0  0.35110  0.26550  0.89630  1.0000
  C   C31       1.0  0.35110  0.23450  0.39630  1.0000
  C   C32       1.0  0.64890  0.73450  0.10370  1.0000
  H   H25       1.0  0.67839  0.73100  0.60560  1.0000
  H   H26       1.0  0.32161  0.23100  0.89440  1.0000
  H   H27       1.0  0.32161  0.26900  0.39440  1.0000
  H   H28       1.0  0.67839  0.76900  0.10560  1.0000
  H   H29       1.0  0.69287  0.79437  0.62791  1.0000
  H   H30       1.0  0.30713  0.29437  0.87209  1.0000
  H   H31       1.0  0.30713  0.20563  0.37209  1.0000
  H   H32       1.0  0.69287  0.70563  0.12791  1.0000
  H   H33       1.0  0.60800  0.77448  0.54572  1.0000
  H   H34       1.0  0.39200  0.27448  0.95428  1.0000
  H   H35       1.0  0.39200  0.22552  0.45428  1.0000
  H   H36       1.0  0.60800  0.72552  0.04572  1.0000
  C   C33       1.0  0.58540  0.66330  0.81850  1.0000
  C   C34       1.0  0.41460  0.16330  0.68150  1.0000
  C   C35       1.0  0.41460  0.33670  0.18150  1.0000
  C   C36       1.0  0.58540  0.83670  0.31850  1.0000
  H   H37       1.0  0.53082  0.64292  0.80209  1.0000
  H   H38       1.0  0.46918  0.14292  0.69791  1.0000
  H   H39       1.0  0.46918  0.35708  0.19791  1.0000
  H   H40       1.0  0.53082  0.85708  0.30209  1.0000
  H   H41       1.0  0.60619  0.67773  0.87495  1.0000
  H   H42       1.0  0.39381  0.17773  0.62505  1.0000
  H   H43       1.0  0.39381  0.32227  0.12505  1.0000
  H   H44       1.0  0.60619  0.82227  0.37495  1.0000
  H   H45       1.0  0.63018  0.63922  0.81732  1.0000
  H   H46       1.0  0.36982  0.13922  0.68268  1.0000
  H   H47       1.0  0.36982  0.36078  0.18268  1.0000
  H   H48       1.0  0.63018  0.86078  0.31732  1.0000
  C   C37       1.0  0.43630  0.73770  0.78230  1.0000
  C   C38       1.0  0.56370  0.23770  0.71770  1.0000
  C   C39       1.0  0.56370  0.26230  0.21770  1.0000
  C   C40       1.0  0.43630  0.76230  0.28230  1.0000
  H   H49       1.0  0.37507  0.74808  0.74320  1.0000
  H   H50       1.0  0.62493  0.24808  0.75680  1.0000
  H   H51       1.0  0.62493  0.25192  0.25680  1.0000
  H   H52       1.0  0.37507  0.75192  0.24320  1.0000
  H   H53       1.0  0.43666  0.69886  0.79671  1.0000
  H   H54       1.0  0.56334  0.19886  0.70329  1.0000
  H   H55       1.0  0.56334  0.30114  0.20329  1.0000
  H   H56       1.0  0.43666  0.80114  0.29671  1.0000
  C   C41       1.0  0.41820  0.77560  0.90180  1.0000
  C   C42       1.0  0.58180  0.27560  0.59820  1.0000
  C   C43       1.0  0.58180  0.22440  0.09820  1.0000
  C   C44       1.0  0.41820  0.72440  0.40180  1.0000
  C   C45       1.0  0.35090  0.73750  0.88970  1.0000
  C   C46       1.0  0.64910  0.23750  0.61030  1.0000
  C   C47       1.0  0.64910  0.26250  0.11030  1.0000
  C   C48       1.0  0.35090  0.76250  0.38970  1.0000
  H   H57       1.0  0.33639  0.70985  0.84888  1.0000
  H   H58       1.0  0.66361  0.20985  0.65112  1.0000
  H   H59       1.0  0.66361  0.29015  0.15112  1.0000
  H   H60       1.0  0.33639  0.79015  0.34888  1.0000
  C   C49       1.0  0.30610  0.74020  0.93650  1.0000
  C   C50       1.0  0.69390  0.24020  0.56350  1.0000
  C   C51       1.0  0.69390  0.25980  0.06350  1.0000
  C   C52       1.0  0.30610  0.75980  0.43650  1.0000
  C   C53       1.0  0.32590  0.78240  0.99620  1.0000
  C   C54       1.0  0.67410  0.28240  0.50380  1.0000
  C   C55       1.0  0.67410  0.21760  0.00380  1.0000
  C   C56       1.0  0.32590  0.71760  0.49620  1.0000
  H   H61       1.0  0.29480  0.78462  0.02772  1.0000
  H   H62       1.0  0.70520  0.28462  0.47228  1.0000
  H   H63       1.0  0.70520  0.21538  0.97228  1.0000
  H   H64       1.0  0.29480  0.71538  0.52772  1.0000
  C   C57       1.0  0.39080  0.82060  0.00860  1.0000
  C   C58       1.0  0.60920  0.32060  0.49140  1.0000
  C   C59       1.0  0.60920  0.17940  0.99140  1.0000
  C   C60       1.0  0.39080  0.67940  0.50860  1.0000
  C   C61       1.0  0.43680  0.81710  0.96220  1.0000
  C   C62       1.0  0.56320  0.31710  0.53780  1.0000
  C   C63       1.0  0.56320  0.18290  0.03780  1.0000
  C   C64       1.0  0.43680  0.68290  0.46220  1.0000
  H   H65       1.0  0.48138  0.84294  0.97133  1.0000
  H   H66       1.0  0.51862  0.34294  0.52867  1.0000
  H   H67       1.0  0.51862  0.15706  0.02867  1.0000
  H   H68       1.0  0.48138  0.65706  0.47133  1.0000
  C   C65       1.0  0.24040  0.69500  0.92640  1.0000
  C   C66       1.0  0.75960  0.19500  0.57360  1.0000
  C   C67       1.0  0.75960  0.30500  0.07360  1.0000
  C   C68       1.0  0.24040  0.80500  0.42640  1.0000
  C   C69       1.0  0.41030  0.86800  0.07260  1.0000
  C   C70       1.0  0.58970  0.36800  0.42740  1.0000
  C   C71       1.0  0.58970  0.13200  0.92740  1.0000
  C   C72       1.0  0.41030  0.63200  0.57260  1.0000
  C   C73       1.0  0.49990  0.83920  0.56810  1.0000
  C   C74       1.0  0.50010  0.33920  0.93190  1.0000
  C   C75       1.0  0.50010  0.16080  0.43190  1.0000
  C   C76       1.0  0.49990  0.66080  0.06810  1.0000
  H   H69       1.0  0.49789  0.82197  0.51794  1.0000
  H   H70       1.0  0.50211  0.32197  0.98206  1.0000
  H   H71       1.0  0.50211  0.17803  0.48206  1.0000
  H   H72       1.0  0.49789  0.67803  0.01794  1.0000
  H   H73       1.0  0.44039  0.85330  0.55323  1.0000
  H   H74       1.0  0.55961  0.35330  0.94677  1.0000
  H   H75       1.0  0.55961  0.14670  0.44677  1.0000
  H   H76       1.0  0.44039  0.64670  0.05323  1.0000
  C   C77       1.0  0.56330  0.92020  0.53440  1.0000
  C   C78       1.0  0.43670  0.42020  0.96560  1.0000
  C   C79       1.0  0.43670  0.07980  0.46560  1.0000
  C   C80       1.0  0.56330  0.57980  0.03440  1.0000
  C   C81       1.0  0.49410  0.92030  0.44960  1.0000
  C   C82       1.0  0.50590  0.42030  0.05040  1.0000
  C   C83       1.0  0.50590  0.07970  0.55040  1.0000
  C   C84       1.0  0.49410  0.57970  0.94960  1.0000
  H   H77       1.0  0.44687  0.89533  0.43367  1.0000
  H   H78       1.0  0.55313  0.39533  0.06633  1.0000
  H   H79       1.0  0.55313  0.10467  0.56633  1.0000
  H   H80       1.0  0.44687  0.60467  0.93367  1.0000
  C   C85       1.0  0.49480  0.95630  0.39030  1.0000
  C   C86       1.0  0.50520  0.45630  0.10970  1.0000
  C   C87       1.0  0.50520  0.04370  0.60970  1.0000
  C   C88       1.0  0.49480  0.54370  0.89030  1.0000
  C   C89       1.0  0.56630  0.99320  0.41220  1.0000
  C   C90       1.0  0.43370  0.49320  0.08780  1.0000
  C   C91       1.0  0.43370  0.00680  0.58780  1.0000
  C   C92       1.0  0.56630  0.50680  0.91220  1.0000
  H   H81       1.0  0.56766  0.01712  0.37174  1.0000
  H   H82       1.0  0.43234  0.51712  0.12826  1.0000
  H   H83       1.0  0.43234  0.98288  0.62826  1.0000
  H   H84       1.0  0.56766  0.48288  0.87174  1.0000
  C   C93       1.0  0.63510  0.99350  0.49510  1.0000
  C   C94       1.0  0.36490  0.49350  0.00490  1.0000
  C   C95       1.0  0.36490  0.00650  0.50490  1.0000
  C   C96       1.0  0.63510  0.50650  0.99510  1.0000
  C   C97       1.0  0.63230  0.95740  0.55440  1.0000
  C   C98       1.0  0.36770  0.45740  0.94560  1.0000
  C   C99       1.0  0.36770  0.04260  0.44560  1.0000
  C   C100      1.0  0.63230  0.54260  0.05440  1.0000
  H   H85       1.0  0.67872  0.95841  0.60985  1.0000
  H   H86       1.0  0.32128  0.45841  0.89015  1.0000
  H   H87       1.0  0.32128  0.04159  0.39015  1.0000
  H   H88       1.0  0.67872  0.54159  0.10985  1.0000
  C   C101      1.0  0.41980  0.95460  0.30210  1.0000
  C   C102      1.0  0.58020  0.45460  0.19790  1.0000
  C   C103      1.0  0.58020  0.04540  0.69790  1.0000
  C   C104      1.0  0.41980  0.54540  0.80210  1.0000
  C   C105      1.0  0.71320  0.03150  0.51930  1.0000
  C   C106      1.0  0.28680  0.53150  0.98070  1.0000
  C   C107      1.0  0.28680  0.96850  0.48070  1.0000
  C   C108      1.0  0.71320  0.46850  0.01930  1.0000
  C   C109      1.0  0.70200  0.68330  0.73530  1.0000
  C   C110      1.0  0.29800  0.18330  0.76470  1.0000
  C   C111      1.0  0.29800  0.31670  0.26470  1.0000
  C   C112      1.0  0.70200  0.81670  0.23530  1.0000
  H   H89       1.0  0.74789  0.70597  0.73188  1.0000
  H   H90       1.0  0.25211  0.20597  0.76812  1.0000
  H   H91       1.0  0.25211  0.29403  0.26812  1.0000
  H   H92       1.0  0.74789  0.79403  0.23188  1.0000
  H   H93       1.0  0.72648  0.66846  0.79251  1.0000
  H   H94       1.0  0.27352  0.16846  0.70749  1.0000
  H   H95       1.0  0.27352  0.33154  0.20749  1.0000
  H   H96       1.0  0.72648  0.83154  0.29251  1.0000
  C   C113      1.0  0.74090  0.60910  0.66290  1.0000
  C   C114      1.0  0.25910  0.10910  0.83710  1.0000
  C   C115      1.0  0.25910  0.39090  0.33710  1.0000
  C   C116      1.0  0.74090  0.89090  0.16290  1.0000
  C   C117      1.0  0.71640  0.57370  0.59350  1.0000
  C   C118      1.0  0.28360  0.07370  0.90650  1.0000
  C   C119      1.0  0.28360  0.42630  0.40650  1.0000
  C   C120      1.0  0.71640  0.92630  0.09350  1.0000
  H   H97       1.0  0.65583  0.56969  0.55525  1.0000
  H   H98       1.0  0.34417  0.06969  0.94475  1.0000
  H   H99       1.0  0.34417  0.43031  0.44475  1.0000
  H   H100      1.0  0.65583  0.93031  0.05525  1.0000
  C   C121      1.0  0.77900  0.54430  0.57930  1.0000
  C   C122      1.0  0.22100  0.04430  0.92070  1.0000
  C   C123      1.0  0.22100  0.45570  0.42070  1.0000
  C   C124      1.0  0.77900  0.95570  0.07930  1.0000
  C   C125      1.0  0.86910  0.54950  0.63600  1.0000
  C   C126      1.0  0.13090  0.04950  0.86400  1.0000
  C   C127      1.0  0.13090  0.45050  0.36400  1.0000
  C   C128      1.0  0.86910  0.95050  0.13600  1.0000
  H   H101      1.0  0.91176  0.53042  0.62669  1.0000
  H   H102      1.0  0.08824  0.03042  0.87331  1.0000
  H   H103      1.0  0.08824  0.46958  0.37331  1.0000
  H   H104      1.0  0.91176  0.96958  0.12669  1.0000
  C   C129      1.0  0.89580  0.58330  0.70650  1.0000
  C   C130      1.0  0.10420  0.08330  0.79350  1.0000
  C   C131      1.0  0.10420  0.41670  0.29350  1.0000
  C   C132      1.0  0.89580  0.91670  0.20650  1.0000
  C   C133      1.0  0.83300  0.61210  0.72100  1.0000
  C   C134      1.0  0.16700  0.11210  0.77900  1.0000
  C   C135      1.0  0.16700  0.38790  0.27900  1.0000
  C   C136      1.0  0.83300  0.88790  0.22100  1.0000
  H   H105      1.0  0.85190  0.63370  0.76972  1.0000
  H   H106      1.0  0.14810  0.13370  0.73028  1.0000
  H   H107      1.0  0.14810  0.36630  0.23028  1.0000
  H   H108      1.0  0.85190  0.86630  0.26972  1.0000
  C   C137      1.0  0.74750  0.50800  0.50260  1.0000
  C   C138      1.0  0.25250  0.00800  0.99740  1.0000
  C   C139      1.0  0.25250  0.49200  0.49740  1.0000
  C   C140      1.0  0.74750  0.99200  0.00260  1.0000
  C   C141      1.0  0.99480  0.58860  0.77160  1.0000
  C   C142      1.0  0.00520  0.08860  0.72840  1.0000
  C   C143      1.0  0.00520  0.41140  0.22840  1.0000
  C   C144      1.0  0.99480  0.91140  0.27160  1.0000
  O   O49       1.0  0.18850  0.87960  0.13810  1.0000
  O   O50       1.0  0.81150  0.37960  0.36190  1.0000
  O   O51       1.0  0.81150  0.12040  0.86190  1.0000
  O   O52       1.0  0.18850  0.62040  0.63810  1.0000
  N   N13       1.0  0.13030  0.79570  0.12850  1.0000
  N   N14       1.0  0.86970  0.29570  0.37150  1.0000
  N   N15       1.0  0.86970  0.20430  0.87150  1.0000
  N   N16       1.0  0.13030  0.70430  0.62850  1.0000
  C   C145      1.0  0.18830  0.83350  0.12540  1.0000
  C   C146      1.0  0.81170  0.33350  0.37460  1.0000
  C   C147      1.0  0.81170  0.16650  0.87460  1.0000
  C   C148      1.0  0.18830  0.66650  0.62540  1.0000
  H   H109      1.0  0.23183  0.82038  0.11166  1.0000
  H   H110      1.0  0.76817  0.32038  0.38834  1.0000
  H   H111      1.0  0.76817  0.17962  0.88834  1.0000
  H   H112      1.0  0.23183  0.67962  0.61166  1.0000
  C   C149      1.0  0.16150  0.74670  0.11190  1.0000
  C   C150      1.0  0.83850  0.24670  0.38810  1.0000
  C   C151      1.0  0.83850  0.25330  0.88810  1.0000
  C   C152      1.0  0.16150  0.75330  0.61190  1.0000
  H   H113      1.0  0.12525  0.71641  0.11346  1.0000
  H   H114      1.0  0.87475  0.21641  0.38654  1.0000
  H   H115      1.0  0.87475  0.28359  0.88654  1.0000
  H   H116      1.0  0.12525  0.78359  0.61346  1.0000
  H   H117      1.0  0.22269  0.74095  0.15415  1.0000
  H   H118      1.0  0.77731  0.24095  0.34585  1.0000
  H   H119      1.0  0.77731  0.25905  0.84585  1.0000
  H   H120      1.0  0.22269  0.75905  0.65415  1.0000
  H   H121      1.0  0.15842  0.74859  0.05665  1.0000
  H   H122      1.0  0.84158  0.24859  0.44335  1.0000
  H   H123      1.0  0.84158  0.25141  0.94335  1.0000
  H   H124      1.0  0.15842  0.75141  0.55665  1.0000
  C   C153      1.0  0.05080  0.81080  0.13390  1.0000
  C   C154      1.0  0.94920  0.31080  0.36610  1.0000
  C   C155      1.0  0.94920  0.18920  0.86610  1.0000
  C   C156      1.0  0.05080  0.68920  0.63390  1.0000
  H   H125      1.0  0.00256  0.78646  0.09846  1.0000
  H   H126      1.0  0.99744  0.28646  0.40154  1.0000
  H   H127      1.0  0.99744  0.21354  0.90154  1.0000
  H   H128      1.0  0.00256  0.71354  0.59846  1.0000
  H   H129      1.0  0.03485  0.84836  0.11492  1.0000
  H   H130      1.0  0.96515  0.34836  0.38508  1.0000
  H   H131      1.0  0.96515  0.15164  0.88508  1.0000
  H   H132      1.0  0.03485  0.65164  0.61492  1.0000
  H   H133      1.0  0.06166  0.80758  0.19174  1.0000
  H   H134      1.0  0.93834  0.30758  0.30826  1.0000
  H   H135      1.0  0.93834  0.19242  0.80826  1.0000
  H   H136      1.0  0.06166  0.69242  0.69174  1.0000
  O   O53       1.0  0.11110  0.59410  0.04520  1.0000
  O   O54       1.0  0.88890  0.09410  0.45480  1.0000
  O   O55       1.0  0.88890  0.40590  0.95480  1.0000
  O   O56       1.0  0.11110  0.90590  0.54520  1.0000
  N   N17       1.0  0.16060  0.59130  0.18840  1.0000
  N   N18       1.0  0.83940  0.09130  0.31160  1.0000
  N   N19       1.0  0.83940  0.40870  0.81160  1.0000
  N   N20       1.0  0.16060  0.90870  0.68840  1.0000
  C   C157      1.0  0.16850  0.60360  0.11860  1.0000
  C   C158      1.0  0.83150  0.10360  0.38140  1.0000
  C   C159      1.0  0.83150  0.39640  0.88140  1.0000
  C   C160      1.0  0.16850  0.89640  0.61860  1.0000
  H   H137      1.0  0.22138  0.62049  0.12632  1.0000
  H   H138      1.0  0.77862  0.12049  0.37368  1.0000
  H   H139      1.0  0.77862  0.37951  0.87368  1.0000
  H   H140      1.0  0.22138  0.87951  0.62632  1.0000
  C   C161      1.0  0.22520  0.60470  0.27240  1.0000
  C   C162      1.0  0.77480  0.10470  0.22760  1.0000
  C   C163      1.0  0.77480  0.39530  0.72760  1.0000
  C   C164      1.0  0.22520  0.89530  0.77240  1.0000
  H   H141      1.0  0.28398  0.60430  0.27620  1.0000
  H   H142      1.0  0.71602  0.10430  0.22380  1.0000
  H   H143      1.0  0.71602  0.39570  0.72380  1.0000
  H   H144      1.0  0.28398  0.89570  0.77620  1.0000
  H   H145      1.0  0.22256  0.57787  0.31111  1.0000
  H   H146      1.0  0.77744  0.07787  0.18889  1.0000
  H   H147      1.0  0.77744  0.42213  0.68889  1.0000
  H   H148      1.0  0.22256  0.92213  0.81111  1.0000
  H   H149      1.0  0.21287  0.64095  0.28676  1.0000
  H   H150      1.0  0.78713  0.14095  0.21324  1.0000
  H   H151      1.0  0.78713  0.35905  0.71324  1.0000
  H   H152      1.0  0.21287  0.85905  0.78676  1.0000
  C   C165      1.0  0.08170  0.56260  0.17930  1.0000
  C   C166      1.0  0.91830  0.06260  0.32070  1.0000
  C   C167      1.0  0.91830  0.43740  0.82070  1.0000
  C   C168      1.0  0.08170  0.93740  0.67930  1.0000
  H   H153      1.0  0.05000  0.58547  0.20067  1.0000
  H   H154      1.0  0.95000  0.08547  0.29933  1.0000
  H   H155      1.0  0.95000  0.41453  0.79933  1.0000
  H   H156      1.0  0.05000  0.91453  0.70067  1.0000
  H   H157      1.0  0.09892  0.52848  0.21078  1.0000
  H   H158      1.0  0.90108  0.02848  0.28922  1.0000
  H   H159      1.0  0.90108  0.47152  0.78922  1.0000
  H   H160      1.0  0.09892  0.97152  0.71078  1.0000
  H   H161      1.0  0.04339  0.55466  0.12022  1.0000
  H   H162      1.0  0.95661  0.05466  0.37978  1.0000
  H   H163      1.0  0.95661  0.44534  0.87978  1.0000
  H   H164      1.0  0.04339  0.94534  0.62022  1.0000
  O   O57       1.0  0.80260  0.00320  0.81610  1.0000
  O   O58       1.0  0.19740  0.50320  0.68390  1.0000
  O   O59       1.0  0.19740  0.99680  0.18390  1.0000
  O   O60       1.0  0.80260  0.49680  0.31610  1.0000
  N   N21       1.0  0.92300  0.94760  0.84670  1.0000
  N   N22       1.0  0.07700  0.44760  0.65330  1.0000
  N   N23       1.0  0.07700  0.05240  0.15330  1.0000
  N   N24       1.0  0.92300  0.55240  0.34670  1.0000
  C   C169      1.0  0.87040  0.98000  0.86790  1.0000
  C   C170      1.0  0.12960  0.48000  0.63210  1.0000
  C   C171      1.0  0.12960  0.02000  0.13210  1.0000
  C   C172      1.0  0.87040  0.52000  0.36790  1.0000
  H   H165      1.0  0.88706  0.98473  0.92531  1.0000
  H   H166      1.0  0.11294  0.48473  0.57469  1.0000
  H   H167      1.0  0.11294  0.01527  0.07469  1.0000
  H   H168      1.0  0.88706  0.51527  0.42531  1.0000
  C   C173      1.0  0.89930  0.93830  0.75940  1.0000
  C   C174      1.0  0.10070  0.43830  0.74060  1.0000
  C   C175      1.0  0.10070  0.06170  0.24060  1.0000
  C   C176      1.0  0.89930  0.56170  0.25940  1.0000
  H   H169      1.0  0.94966  0.94685  0.74998  1.0000
  H   H170      1.0  0.05034  0.44685  0.75002  1.0000
  H   H171      1.0  0.05034  0.05315  0.25002  1.0000
  H   H172      1.0  0.94966  0.55315  0.24998  1.0000
  H   H173      1.0  0.84958  0.96171  0.72418  1.0000
  H   H174      1.0  0.15042  0.46171  0.77582  1.0000
  H   H175      1.0  0.15042  0.03829  0.27582  1.0000
  H   H176      1.0  0.84958  0.53829  0.22418  1.0000
  H   H177      1.0  0.88270  0.90014  0.74533  1.0000
  H   H178      1.0  0.11730  0.40014  0.75467  1.0000
  H   H179      1.0  0.11730  0.09986  0.25467  1.0000
  H   H180      1.0  0.88270  0.59986  0.24533  1.0000
  C   C177      1.0  0.00050  0.92100  0.91190  1.0000
  C   C178      1.0  0.99950  0.42100  0.58810  1.0000
  C   C179      1.0  0.99950  0.07900  0.08810  1.0000
  C   C180      1.0  0.00050  0.57900  0.41190  1.0000
  H   H181      1.0  0.04910  0.92312  0.89801  1.0000
  H   H182      1.0  0.95090  0.42312  0.60199  1.0000
  H   H183      1.0  0.95090  0.07688  0.10199  1.0000
  H   H184      1.0  0.04910  0.57688  0.39801  1.0000
  H   H185      1.0  0.98690  0.88277  0.91606  1.0000
  H   H186      1.0  0.01310  0.38277  0.58394  1.0000
  H   H187      1.0  0.01310  0.11723  0.08394  1.0000
  H   H188      1.0  0.98690  0.61723  0.41606  1.0000
  H   H189      1.0  0.01736  0.93920  0.96525  1.0000
  H   H190      1.0  0.98264  0.43920  0.53475  1.0000
  H   H191      1.0  0.98264  0.06080  0.03475  1.0000
  H   H192      1.0  0.01736  0.56080  0.46525  1.0000
