data_image0
_chemical_formula_structural       Na2S4O14H4C4H2C2H2C4H6C2H2C2H2C4H2C2H2C4H2C2H2C2H6
_chemical_formula_sum              "Na2 S4 O14 H32 C28"
_cell_length_a       10.8796
_cell_length_b       7.2167
_cell_length_c       13.0998
_cell_angle_alpha    90
_cell_angle_beta     107.289
_cell_angle_gamma    90

_space_group_name_H-M_alt    "P 1"
_space_group_IT_number       1

loop_
  _space_group_symop_operation_xyz
  'x, y, z'

loop_
  _atom_site_type_symbol
  _atom_site_label
  _atom_site_symmetry_multiplicity
  _atom_site_fract_x
  _atom_site_fract_y
  _atom_site_fract_z
  _atom_site_occupancy
  Na  Na1       1.0  0.00092  0.50924  0.49851  1.0000
  Na  Na2       1.0  0.99908  0.00924  0.50149  1.0000
  S   S1        1.0  0.07991  0.76267  0.30814  1.0000
  S   S2        1.0  0.92009  0.26267  0.69186  1.0000
  S   S3        1.0  0.28383  0.76286  0.62716  1.0000
  S   S4        1.0  0.71617  0.26286  0.37284  1.0000
  O   O1        1.0  0.15765  0.59400  0.32103  1.0000
  O   O2        1.0  0.84235  0.09400  0.67897  1.0000
  O   O3        1.0  0.16026  0.92930  0.32337  1.0000
  O   O4        1.0  0.83974  0.42930  0.67663  1.0000
  O   O5        1.0  0.99236  0.76140  0.37354  1.0000
  O   O6        1.0  0.00764  0.26140  0.62646  1.0000
  O   O7        1.0  0.21115  0.59450  0.58788  1.0000
  O   O8        1.0  0.78885  0.09450  0.41212  1.0000
  O   O9        1.0  0.21237  0.93230  0.58783  1.0000
  O   O10       1.0  0.78763  0.43230  0.41217  1.0000
  O   O11       1.0  0.41007  0.76350  0.60899  1.0000
  O   O12       1.0  0.58993  0.26350  0.39101  1.0000
  O   O13       1.0  0.08388  0.26170  0.40070  1.0000
  O   O14       1.0  0.91612  0.76170  0.59930  1.0000
  H   H1        1.0  0.11600  0.34800  0.37400  1.0000
  H   H2        1.0  0.88400  0.84800  0.62600  1.0000
  H   H3        1.0  0.10000  0.16300  0.37300  1.0000
  H   H4        1.0  0.90000  0.66300  0.62700  1.0000
  C   C1        1.0  0.98389  0.76710  0.17317  1.0000
  C   C2        1.0  0.01611  0.26710  0.82683  1.0000
  C   C3        1.0  0.03697  0.83730  0.09631  1.0000
  C   C4        1.0  0.96303  0.33730  0.90369  1.0000
  H   H5        1.0  0.12223  0.88483  0.11722  1.0000
  H   H6        1.0  0.87777  0.38483  0.88278  1.0000
  C   C5        1.0  0.96507  0.83740  0.98951  1.0000
  C   C6        1.0  0.03493  0.33740  0.01049  1.0000
  H   H7        1.0  0.00176  0.88468  0.93746  1.0000
  H   H8        1.0  0.99824  0.38468  0.06254  1.0000
  C   C7        1.0  0.83963  0.76890  0.95740  1.0000
  C   C8        1.0  0.16037  0.26890  0.04260  1.0000
  C   C9        1.0  0.76259  0.77110  0.84088  1.0000
  C   C10       1.0  0.23741  0.27110  0.15912  1.0000
  H   H9        1.0  0.76648  0.64867  0.80965  1.0000
  H   H10       1.0  0.23352  0.14867  0.19035  1.0000
  H   H11       1.0  0.79840  0.86403  0.80313  1.0000
  H   H12       1.0  0.20160  0.36403  0.19687  1.0000
  H   H13       1.0  0.67281  0.80210  0.83411  1.0000
  H   H14       1.0  0.32719  0.30210  0.16589  1.0000
  C   C11       1.0  0.78786  0.70060  0.03539  1.0000
  C   C12       1.0  0.21214  0.20060  0.96461  1.0000
  H   H15       1.0  0.70225  0.65427  0.01454  1.0000
  H   H16       1.0  0.29775  0.15427  0.98546  1.0000
  C   C13       1.0  0.85888  0.69860  0.14325  1.0000
  C   C14       1.0  0.14112  0.19860  0.85675  1.0000
  H   H17       1.0  0.82239  0.65126  0.19541  1.0000
  H   H18       1.0  0.17761  0.15126  0.80459  1.0000
  C   C15       1.0  0.31460  0.76430  0.76720  1.0000
  C   C16       1.0  0.68540  0.26430  0.23280  1.0000
  C   C17       1.0  0.23097  0.67660  0.81392  1.0000
  C   C18       1.0  0.76903  0.17660  0.18608  1.0000
  H   H19       1.0  0.15746  0.61269  0.77086  1.0000
  H   H20       1.0  0.84254  0.11269  0.22914  1.0000
  C   C19       1.0  0.25612  0.68350  0.92449  1.0000
  C   C20       1.0  0.74388  0.18350  0.07551  1.0000
  H   H21       1.0  0.19862  0.62494  0.95654  1.0000
  H   H22       1.0  0.80138  0.12494  0.04346  1.0000
  C   C21       1.0  0.36429  0.77500  0.98884  1.0000
  C   C22       1.0  0.63571  0.27500  0.01116  1.0000
  C   C23       1.0  0.44723  0.86160  0.94050  1.0000
  C   C24       1.0  0.55277  0.36160  0.05950  1.0000
  H   H23       1.0  0.52146  0.92420  0.98338  1.0000
  H   H24       1.0  0.47854  0.42420  0.01662  1.0000
  C   C25       1.0  0.42223  0.85690  0.83018  1.0000
  C   C26       1.0  0.57777  0.35690  0.16982  1.0000
  H   H25       1.0  0.47884  0.91722  0.79787  1.0000
  H   H26       1.0  0.52116  0.41722  0.20213  1.0000
  C   C27       1.0  0.39260  0.78390  0.10848  1.0000
  C   C28       1.0  0.60740  0.28390  0.89152  1.0000
  H   H27       1.0  0.36912  0.90655  0.12889  1.0000
  H   H28       1.0  0.63088  0.40655  0.87111  1.0000
  H   H29       1.0  0.48455  0.76215  0.14264  1.0000
  H   H30       1.0  0.51545  0.26215  0.85736  1.0000
  H   H31       1.0  0.34240  0.68883  0.13175  1.0000
  H   H32       1.0  0.65760  0.18883  0.86825  1.0000
