data_image0
_chemical_formula_structural       Cd2S4O10H4O2H4O8N8C2H2C2H2C4H2C2H2C2H4C2H4C2H4C2H4C2H4C2H4C2H2C2H2C4H2C2H2
_chemical_formula_sum              "Cd2 S4 O20 H48 N8 C32"
_cell_length_a       17.11
_cell_length_b       16.215
_cell_length_c       17.317
_cell_angle_alpha    90
_cell_angle_beta     103.59
_cell_angle_gamma    90

_space_group_name_H-M_alt    "P 1"
_space_group_IT_number       1

loop_
  _space_group_symop_operation_xyz
  'x, y, z'

loop_
  _atom_site_type_symbol
  _atom_site_label
  _atom_site_symmetry_multiplicity
  _atom_site_fract_x
  _atom_site_fract_y
  _atom_site_fract_z
  _atom_site_occupancy
  Cd  Cd1       1.0  0.24041  0.64228  0.46904  1.0000
  Cd  Cd2       1.0  0.75959  0.14228  0.53096  1.0000
  S   S1        1.0  0.28339  0.58892  0.67535  1.0000
  S   S2        1.0  0.71661  0.08892  0.32465  1.0000
  S   S3        1.0  0.21339  0.71040  0.27099  1.0000
  S   S4        1.0  0.78661  0.21040  0.72901  1.0000
  O   O1        1.0  0.26860  0.64820  0.60690  1.0000
  O   O2        1.0  0.73140  0.14820  0.39310  1.0000
  O   O3        1.0  0.28250  0.50320  0.64480  1.0000
  O   O4        1.0  0.71750  0.00320  0.35520  1.0000
  O   O5        1.0  0.22070  0.60020  0.71860  1.0000
  O   O6        1.0  0.77930  0.10020  0.28140  1.0000
  O   O7        1.0  0.36350  0.60530  0.72690  1.0000
  O   O8        1.0  0.63650  0.10530  0.27310  1.0000
  O   O9        1.0  0.26020  0.78480  0.46180  1.0000
  O   O10       1.0  0.73980  0.28480  0.53820  1.0000
  H   H1        1.0  0.28800  0.80800  0.50500  1.0000
  H   H2        1.0  0.71200  0.30800  0.49500  1.0000
  H   H3        1.0  0.27200  0.81000  0.42100  1.0000
  H   H4        1.0  0.72800  0.31000  0.57900  1.0000
  O   O11       1.0  0.21440  0.50330  0.48830  1.0000
  O   O12       1.0  0.78560  0.00330  0.51170  1.0000
  H   H5        1.0  0.21400  0.45800  0.46300  1.0000
  H   H6        1.0  0.78600  0.95800  0.53700  1.0000
  H   H7        1.0  0.23900  0.50200  0.53810  1.0000
  H   H8        1.0  0.76100  0.00200  0.46190  1.0000
  O   O13       1.0  0.20660  0.64730  0.33150  1.0000
  O   O14       1.0  0.79340  0.14730  0.66850  1.0000
  O   O15       1.0  0.27730  0.76920  0.30900  1.0000
  O   O16       1.0  0.72270  0.26920  0.69100  1.0000
  O   O17       1.0  0.13690  0.75290  0.24460  1.0000
  O   O18       1.0  0.86310  0.25290  0.75540  1.0000
  O   O19       1.0  0.23510  0.66830  0.20460  1.0000
  O   O20       1.0  0.76490  0.16830  0.79540  1.0000
  N   N1        1.0  0.37190  0.61170  0.46620  1.0000
  N   N2        1.0  0.62810  0.11170  0.53380  1.0000
  N   N3        1.0  0.66860  0.59860  0.44530  1.0000
  N   N4        1.0  0.33140  0.09860  0.55470  1.0000
  N   N5        1.0  0.81480  0.69470  0.48530  1.0000
  N   N6        1.0  0.18520  0.19470  0.51470  1.0000
  N   N7        1.0  0.11030  0.67470  0.47320  1.0000
  N   N8        1.0  0.88970  0.17470  0.52680  1.0000
  C   C1        1.0  0.42370  0.58700  0.53340  1.0000
  C   C2        1.0  0.57630  0.08700  0.46660  1.0000
  H   H9        1.0  0.40570  0.58480  0.58010  1.0000
  H   H10       1.0  0.59430  0.08480  0.41990  1.0000
  C   C3        1.0  0.50200  0.56480  0.53640  1.0000
  C   C4        1.0  0.49800  0.06480  0.46360  1.0000
  H   H11       1.0  0.53520  0.54800  0.58440  1.0000
  H   H12       1.0  0.46480  0.04800  0.41560  1.0000
  C   C5        1.0  0.53180  0.56710  0.46910  1.0000
  C   C6        1.0  0.46820  0.06710  0.53090  1.0000
  C   C7        1.0  0.47950  0.59670  0.39950  1.0000
  C   C8        1.0  0.52050  0.09670  0.60050  1.0000
  H   H13       1.0  0.49760  0.60320  0.35330  1.0000
  H   H14       1.0  0.50240  0.10320  0.64670  1.0000
  C   C9        1.0  0.40120  0.61610  0.40040  1.0000
  C   C10       1.0  0.59880  0.11610  0.59960  1.0000
  H   H15       1.0  0.36680  0.63320  0.35320  1.0000
  H   H16       1.0  0.63320  0.13320  0.64680  1.0000
  C   C11       1.0  0.61580  0.53670  0.47060  1.0000
  C   C12       1.0  0.38420  0.03670  0.52940  1.0000
  H   H17       1.0  0.64100  0.51890  0.52420  1.0000
  H   H18       1.0  0.35900  0.01890  0.47580  1.0000
  H   H19       1.0  0.61180  0.48890  0.43620  1.0000
  H   H20       1.0  0.38820  0.98890  0.56380  1.0000
  C   C13       1.0  0.67500  0.67190  0.49650  1.0000
  C   C14       1.0  0.32500  0.17190  0.50350  1.0000
  H   H21       1.0  0.69340  0.65590  0.55180  1.0000
  H   H22       1.0  0.30660  0.15590  0.44820  1.0000
  H   H23       1.0  0.62270  0.69780  0.48960  1.0000
  H   H24       1.0  0.37730  0.19780  0.51040  1.0000
  C   C15       1.0  0.73430  0.73250  0.47440  1.0000
  C   C16       1.0  0.26570  0.23250  0.52560  1.0000
  H   H25       1.0  0.71500  0.74930  0.41940  1.0000
  H   H26       1.0  0.28500  0.24930  0.58060  1.0000
  H   H27       1.0  0.73810  0.78130  0.50740  1.0000
  H   H28       1.0  0.26190  0.28130  0.49260  1.0000
  C   C17       1.0  0.74910  0.56080  0.45520  1.0000
  C   C18       1.0  0.25090  0.06080  0.54480  1.0000
  H   H29       1.0  0.74520  0.51220  0.42190  1.0000
  H   H30       1.0  0.25480  0.01220  0.57810  1.0000
  H   H31       1.0  0.76900  0.54370  0.51000  1.0000
  H   H32       1.0  0.23100  0.04370  0.49000  1.0000
  C   C19       1.0  0.80780  0.62190  0.43290  1.0000
  C   C20       1.0  0.19220  0.12190  0.56710  1.0000
  H   H33       1.0  0.86010  0.59620  0.43870  1.0000
  H   H34       1.0  0.13990  0.09620  0.56130  1.0000
  H   H35       1.0  0.78860  0.63860  0.37790  1.0000
  H   H36       1.0  0.21140  0.13860  0.62210  1.0000
  C   C21       1.0  0.86850  0.75650  0.46290  1.0000
  C   C22       1.0  0.13150  0.25650  0.53710  1.0000
  H   H37       1.0  0.87100  0.80410  0.49730  1.0000
  H   H38       1.0  0.12900  0.30410  0.50270  1.0000
  H   H39       1.0  0.84540  0.77450  0.40890  1.0000
  H   H40       1.0  0.15460  0.27450  0.59110  1.0000
  C   C23       1.0  0.07960  0.67090  0.53800  1.0000
  C   C24       1.0  0.92040  0.17090  0.46200  1.0000
  H   H41       1.0  0.11220  0.65040  0.58470  1.0000
  H   H42       1.0  0.88780  0.15040  0.41530  1.0000
  C   C25       1.0  0.00360  0.69550  0.53930  1.0000
  C   C26       1.0  0.99640  0.19550  0.46070  1.0000
  H   H43       1.0  0.98540  0.69220  0.58580  1.0000
  H   H44       1.0  0.01460  0.19220  0.41420  1.0000
  C   C27       1.0  0.95290  0.72630  0.46780  1.0000
  C   C28       1.0  0.04710  0.22630  0.53220  1.0000
  C   C29       1.0  0.98350  0.72880  0.40200  1.0000
  C   C30       1.0  0.01650  0.22880  0.59800  1.0000
  H   H45       1.0  0.95170  0.74770  0.35420  1.0000
  H   H46       1.0  0.04830  0.24770  0.64580  1.0000
  C   C31       1.0  0.06210  0.70330  0.40580  1.0000
  C   C32       1.0  0.93790  0.20330  0.59420  1.0000
  H   H47       1.0  0.08180  0.70610  0.36020  1.0000
  H   H48       1.0  0.91820  0.20610  0.63980  1.0000
