data_image0
_chemical_formula_structural       Ni12P16O56H8O8H16N8C16H16C16H8C8H8C8H8C8H8
_chemical_formula_sum              "Ni12 P16 O64 H72 N8 C56"
_cell_length_a       18.7958
_cell_length_b       8.2622
_cell_length_c       18.855
_cell_angle_alpha    90
_cell_angle_beta     90
_cell_angle_gamma    90

_space_group_name_H-M_alt    "P 1"
_space_group_IT_number       1

loop_
  _space_group_symop_operation_xyz
  'x, y, z'

loop_
  _atom_site_type_symbol
  _atom_site_label
  _atom_site_symmetry_multiplicity
  _atom_site_fract_x
  _atom_site_fract_y
  _atom_site_fract_z
  _atom_site_occupancy
  Ni  Ni1       1.0  0.06364  0.98636  0.24743  1.0000
  Ni  Ni2       1.0  0.43636  0.01364  0.74743  1.0000
  Ni  Ni3       1.0  0.93636  0.48636  0.25257  1.0000
  Ni  Ni4       1.0  0.56364  0.51364  0.75257  1.0000
  Ni  Ni5       1.0  0.93636  0.01364  0.75257  1.0000
  Ni  Ni6       1.0  0.56364  0.98636  0.25257  1.0000
  Ni  Ni7       1.0  0.06364  0.51364  0.74743  1.0000
  Ni  Ni8       1.0  0.43636  0.48636  0.24743  1.0000
  Ni  Ni9       1.0  0.00000  0.00000  0.50000  1.0000
  Ni  Ni10      1.0  0.50000  0.00000  0.00000  1.0000
  Ni  Ni11      1.0  0.00000  0.50000  0.00000  1.0000
  Ni  Ni12      1.0  0.50000  0.50000  0.50000  1.0000
  P   P1        1.0  0.97321  0.79840  0.36017  1.0000
  P   P2        1.0  0.52679  0.20160  0.86017  1.0000
  P   P3        1.0  0.02679  0.29840  0.13983  1.0000
  P   P4        1.0  0.47321  0.70160  0.63983  1.0000
  P   P5        1.0  0.02679  0.20160  0.63983  1.0000
  P   P6        1.0  0.47321  0.79840  0.13983  1.0000
  P   P7        1.0  0.97321  0.70160  0.86017  1.0000
  P   P8        1.0  0.52679  0.29840  0.36017  1.0000
  P   P9        1.0  0.95890  0.16290  0.34609  1.0000
  P   P10       1.0  0.54110  0.83710  0.84609  1.0000
  P   P11       1.0  0.04110  0.66290  0.15391  1.0000
  P   P12       1.0  0.45890  0.33710  0.65391  1.0000
  P   P13       1.0  0.04110  0.83710  0.65391  1.0000
  P   P14       1.0  0.45890  0.16290  0.15391  1.0000
  P   P15       1.0  0.95890  0.33710  0.84609  1.0000
  P   P16       1.0  0.54110  0.66290  0.34609  1.0000
  O   O1        1.0  0.94000  0.63990  0.33800  1.0000
  O   O2        1.0  0.56000  0.36010  0.83800  1.0000
  O   O3        1.0  0.06000  0.13990  0.16200  1.0000
  O   O4        1.0  0.44000  0.86010  0.66200  1.0000
  O   O5        1.0  0.06000  0.36010  0.66200  1.0000
  O   O6        1.0  0.44000  0.63990  0.16200  1.0000
  O   O7        1.0  0.94000  0.86010  0.83800  1.0000
  O   O8        1.0  0.56000  0.13990  0.33800  1.0000
  O   O9        1.0  0.96410  0.81540  0.44080  1.0000
  O   O10       1.0  0.53590  0.18460  0.94080  1.0000
  O   O11       1.0  0.03590  0.31540  0.05920  1.0000
  O   O12       1.0  0.46410  0.68460  0.55920  1.0000
  O   O13       1.0  0.03590  0.18460  0.55920  1.0000
  O   O14       1.0  0.46410  0.81540  0.05920  1.0000
  O   O15       1.0  0.96410  0.68460  0.94080  1.0000
  O   O16       1.0  0.53590  0.31540  0.44080  1.0000
  O   O17       1.0  0.04980  0.82620  0.33600  1.0000
  O   O18       1.0  0.45020  0.17380  0.83600  1.0000
  O   O19       1.0  0.95020  0.32620  0.16400  1.0000
  O   O20       1.0  0.54980  0.67380  0.66400  1.0000
  O   O21       1.0  0.95020  0.17380  0.66400  1.0000
  O   O22       1.0  0.54980  0.82620  0.16400  1.0000
  O   O23       1.0  0.04980  0.67380  0.83600  1.0000
  O   O24       1.0  0.45020  0.32620  0.33600  1.0000
  O   O25       1.0  0.91180  0.29850  0.31970  1.0000
  O   O26       1.0  0.58820  0.70150  0.81970  1.0000
  O   O27       1.0  0.08820  0.79850  0.18030  1.0000
  O   O28       1.0  0.41180  0.20150  0.68030  1.0000
  O   O29       1.0  0.08820  0.70150  0.68030  1.0000
  O   O30       1.0  0.41180  0.29850  0.18030  1.0000
  O   O31       1.0  0.91180  0.20150  0.81970  1.0000
  O   O32       1.0  0.58820  0.79850  0.31970  1.0000
  O   O33       1.0  0.03450  0.16940  0.31550  1.0000
  O   O34       1.0  0.46550  0.83060  0.81550  1.0000
  O   O35       1.0  0.96550  0.66940  0.18450  1.0000
  O   O36       1.0  0.53450  0.33060  0.68450  1.0000
  O   O37       1.0  0.96550  0.83060  0.68450  1.0000
  O   O38       1.0  0.53450  0.16940  0.18450  1.0000
  O   O39       1.0  0.03450  0.33060  0.81550  1.0000
  O   O40       1.0  0.46550  0.66940  0.31550  1.0000
  O   O41       1.0  0.95900  0.15970  0.42670  1.0000
  O   O42       1.0  0.54100  0.84030  0.92670  1.0000
  O   O43       1.0  0.04100  0.65970  0.07330  1.0000
  O   O44       1.0  0.45900  0.34030  0.57330  1.0000
  O   O45       1.0  0.04100  0.84030  0.57330  1.0000
  O   O46       1.0  0.45900  0.15970  0.07330  1.0000
  O   O47       1.0  0.95900  0.34030  0.92670  1.0000
  O   O48       1.0  0.54100  0.65970  0.42670  1.0000
  O   O49       1.0  0.94958  0.95400  0.24127  1.0000
  O   O50       1.0  0.55042  0.04600  0.74127  1.0000
  O   O51       1.0  0.05042  0.45400  0.25873  1.0000
  O   O52       1.0  0.44958  0.54600  0.75873  1.0000
  O   O53       1.0  0.05042  0.04600  0.75873  1.0000
  O   O54       1.0  0.44958  0.95400  0.25873  1.0000
  O   O55       1.0  0.94958  0.54600  0.74127  1.0000
  O   O56       1.0  0.55042  0.45400  0.24127  1.0000
  H   H1        1.0  0.93930  0.86270  0.22320  1.0000
  H   H2        1.0  0.56070  0.13730  0.72320  1.0000
  H   H3        1.0  0.06070  0.36270  0.27680  1.0000
  H   H4        1.0  0.43930  0.63730  0.77680  1.0000
  H   H5        1.0  0.06070  0.13730  0.77680  1.0000
  H   H6        1.0  0.43930  0.86270  0.27680  1.0000
  H   H7        1.0  0.93930  0.63730  0.72320  1.0000
  H   H8        1.0  0.56070  0.36270  0.22320  1.0000
  O   O57       1.0  0.10260  0.97460  0.45041  1.0000
  O   O58       1.0  0.39740  0.02540  0.95041  1.0000
  O   O59       1.0  0.89740  0.47460  0.04959  1.0000
  O   O60       1.0  0.60260  0.52540  0.54959  1.0000
  O   O61       1.0  0.89740  0.02540  0.54959  1.0000
  O   O62       1.0  0.60260  0.97460  0.04959  1.0000
  O   O63       1.0  0.10260  0.52540  0.95041  1.0000
  O   O64       1.0  0.39740  0.47460  0.45041  1.0000
  H   H9        1.0  0.12800  0.90960  0.47450  1.0000
  H   H10       1.0  0.37200  0.09040  0.97450  1.0000
  H   H11       1.0  0.87200  0.40960  0.02550  1.0000
  H   H12       1.0  0.62800  0.59040  0.52550  1.0000
  H   H13       1.0  0.87200  0.09040  0.52550  1.0000
  H   H14       1.0  0.62800  0.90960  0.02550  1.0000
  H   H15       1.0  0.12800  0.59040  0.97450  1.0000
  H   H16       1.0  0.37200  0.40960  0.47450  1.0000
  H   H17       1.0  0.09730  0.93760  0.40870  1.0000
  H   H18       1.0  0.40270  0.06240  0.90870  1.0000
  H   H19       1.0  0.90270  0.43760  0.09130  1.0000
  H   H20       1.0  0.59730  0.56240  0.59130  1.0000
  H   H21       1.0  0.90270  0.06240  0.59130  1.0000
  H   H22       1.0  0.59730  0.93760  0.09130  1.0000
  H   H23       1.0  0.09730  0.56240  0.90870  1.0000
  H   H24       1.0  0.40270  0.43760  0.40870  1.0000
  N   N1        1.0  0.67120  0.03860  0.23347  1.0000
  N   N2        1.0  0.82880  0.96140  0.73347  1.0000
  N   N3        1.0  0.32880  0.53860  0.26653  1.0000
  N   N4        1.0  0.17120  0.46140  0.76653  1.0000
  N   N5        1.0  0.32880  0.96140  0.76653  1.0000
  N   N6        1.0  0.17120  0.03860  0.26653  1.0000
  N   N7        1.0  0.67120  0.46140  0.73347  1.0000
  N   N8        1.0  0.82880  0.53860  0.23347  1.0000
  C   C1        1.0  0.92517  0.96310  0.31462  1.0000
  C   C2        1.0  0.57483  0.03690  0.81462  1.0000
  C   C3        1.0  0.07483  0.46310  0.18538  1.0000
  C   C4        1.0  0.42517  0.53690  0.68538  1.0000
  C   C5        1.0  0.07483  0.03690  0.68538  1.0000
  C   C6        1.0  0.42517  0.96310  0.18538  1.0000
  C   C7        1.0  0.92517  0.53690  0.81462  1.0000
  C   C8        1.0  0.57483  0.46310  0.31462  1.0000
  C   C9        1.0  0.84451  0.94040  0.32209  1.0000
  C   C10       1.0  0.65549  0.05960  0.82209  1.0000
  C   C11       1.0  0.15549  0.44040  0.17791  1.0000
  C   C12       1.0  0.34451  0.55960  0.67791  1.0000
  C   C13       1.0  0.15549  0.05960  0.67791  1.0000
  C   C14       1.0  0.34451  0.94040  0.17791  1.0000
  C   C15       1.0  0.84451  0.55960  0.82209  1.0000
  C   C16       1.0  0.65549  0.44040  0.32209  1.0000
  H   H25       1.0  0.84210  0.03520  0.35140  1.0000
  H   H26       1.0  0.65790  0.96480  0.85140  1.0000
  H   H27       1.0  0.15790  0.53520  0.14860  1.0000
  H   H28       1.0  0.34210  0.46480  0.64860  1.0000
  H   H29       1.0  0.15790  0.96480  0.64860  1.0000
  H   H30       1.0  0.34210  0.03520  0.14860  1.0000
  H   H31       1.0  0.84210  0.46480  0.85140  1.0000
  H   H32       1.0  0.65790  0.53520  0.35140  1.0000
  H   H33       1.0  0.82570  0.87640  0.36030  1.0000
  H   H34       1.0  0.67430  0.12360  0.86030  1.0000
  H   H35       1.0  0.17430  0.37640  0.13970  1.0000
  H   H36       1.0  0.32570  0.62360  0.63970  1.0000
  H   H37       1.0  0.17430  0.12360  0.63970  1.0000
  H   H38       1.0  0.32570  0.87640  0.13970  1.0000
  H   H39       1.0  0.82570  0.62360  0.86030  1.0000
  H   H40       1.0  0.67430  0.37640  0.36030  1.0000
  C   C17       1.0  0.79429  0.01890  0.26917  1.0000
  C   C18       1.0  0.70571  0.98110  0.76917  1.0000
  C   C19       1.0  0.20571  0.51890  0.23083  1.0000
  C   C20       1.0  0.29429  0.48110  0.73083  1.0000
  C   C21       1.0  0.20571  0.98110  0.73083  1.0000
  C   C22       1.0  0.29429  0.01890  0.23083  1.0000
  C   C23       1.0  0.79429  0.48110  0.76917  1.0000
  C   C24       1.0  0.70571  0.51890  0.26917  1.0000
  C   C25       1.0  0.81403  0.11870  0.21329  1.0000
  C   C26       1.0  0.68597  0.88130  0.71329  1.0000
  C   C27       1.0  0.18597  0.61870  0.28671  1.0000
  C   C28       1.0  0.31403  0.38130  0.78671  1.0000
  C   C29       1.0  0.18597  0.88130  0.78671  1.0000
  C   C30       1.0  0.31403  0.11870  0.28671  1.0000
  C   C31       1.0  0.81403  0.38130  0.71329  1.0000
  C   C32       1.0  0.68597  0.61870  0.21329  1.0000
  H   H41       1.0  0.86300  0.14710  0.20590  1.0000
  H   H42       1.0  0.63700  0.85290  0.70590  1.0000
  H   H43       1.0  0.13700  0.64710  0.29410  1.0000
  H   H44       1.0  0.36300  0.35290  0.79410  1.0000
  H   H45       1.0  0.13700  0.85290  0.79410  1.0000
  H   H46       1.0  0.36300  0.14710  0.29410  1.0000
  H   H47       1.0  0.86300  0.35290  0.70590  1.0000
  H   H48       1.0  0.63700  0.64710  0.20590  1.0000
  C   C33       1.0  0.76085  0.17690  0.16790  1.0000
  C   C34       1.0  0.73915  0.82310  0.66790  1.0000
  C   C35       1.0  0.23915  0.67690  0.33210  1.0000
  C   C36       1.0  0.26085  0.32310  0.83210  1.0000
  C   C37       1.0  0.23915  0.82310  0.83210  1.0000
  C   C38       1.0  0.26085  0.17690  0.33210  1.0000
  C   C39       1.0  0.76085  0.32310  0.66790  1.0000
  C   C40       1.0  0.73915  0.67690  0.16790  1.0000
  H   H49       1.0  0.77340  0.24480  0.12850  1.0000
  H   H50       1.0  0.72660  0.75520  0.62850  1.0000
  H   H51       1.0  0.22660  0.74480  0.37150  1.0000
  H   H52       1.0  0.27340  0.25520  0.87150  1.0000
  H   H53       1.0  0.22660  0.75520  0.87150  1.0000
  H   H54       1.0  0.27340  0.24480  0.37150  1.0000
  H   H55       1.0  0.77340  0.25520  0.62850  1.0000
  H   H56       1.0  0.72660  0.74480  0.12850  1.0000
  C   C41       1.0  0.69032  0.13700  0.17971  1.0000
  C   C42       1.0  0.80968  0.86300  0.67971  1.0000
  C   C43       1.0  0.30968  0.63700  0.32029  1.0000
  C   C44       1.0  0.19032  0.36300  0.82029  1.0000
  C   C45       1.0  0.30968  0.86300  0.82029  1.0000
  C   C46       1.0  0.19032  0.13700  0.32029  1.0000
  C   C47       1.0  0.69032  0.36300  0.67971  1.0000
  C   C48       1.0  0.80968  0.63700  0.17971  1.0000
  H   H57       1.0  0.65430  0.18030  0.14900  1.0000
  H   H58       1.0  0.84570  0.81970  0.64900  1.0000
  H   H59       1.0  0.34570  0.68030  0.35100  1.0000
  H   H60       1.0  0.15430  0.31970  0.85100  1.0000
  H   H61       1.0  0.34570  0.81970  0.85100  1.0000
  H   H62       1.0  0.15430  0.18030  0.35100  1.0000
  H   H63       1.0  0.65430  0.31970  0.64900  1.0000
  H   H64       1.0  0.84570  0.68030  0.14900  1.0000
  C   C49       1.0  0.72272  0.98190  0.27660  1.0000
  C   C50       1.0  0.77728  0.01810  0.77660  1.0000
  C   C51       1.0  0.27728  0.48190  0.22340  1.0000
  C   C52       1.0  0.22272  0.51810  0.72340  1.0000
  C   C53       1.0  0.27728  0.01810  0.72340  1.0000
  C   C54       1.0  0.22272  0.98190  0.22340  1.0000
  C   C55       1.0  0.72272  0.51810  0.77660  1.0000
  C   C56       1.0  0.77728  0.48190  0.27660  1.0000
  H   H65       1.0  0.70900  0.91170  0.31480  1.0000
  H   H66       1.0  0.79100  0.08830  0.81480  1.0000
  H   H67       1.0  0.29100  0.41170  0.18520  1.0000
  H   H68       1.0  0.20900  0.58830  0.68520  1.0000
  H   H69       1.0  0.29100  0.08830  0.68520  1.0000
  H   H70       1.0  0.20900  0.91170  0.18520  1.0000
  H   H71       1.0  0.70900  0.58830  0.81480  1.0000
  H   H72       1.0  0.79100  0.41170  0.31480  1.0000
