data_image0
_chemical_formula_structural       Mn16Cr16O192C96
_chemical_formula_sum              "Mn16 Cr16 O192 C96"
_cell_length_a       24.8834
_cell_length_b       22.8378
_cell_length_c       24.3802
_cell_angle_alpha    90
_cell_angle_beta     105.497
_cell_angle_gamma    90

_space_group_name_H-M_alt    "P 1"
_space_group_IT_number       1

loop_
  _space_group_symop_operation_xyz
  'x, y, z'

loop_
  _atom_site_type_symbol
  _atom_site_label
  _atom_site_symmetry_multiplicity
  _atom_site_fract_x
  _atom_site_fract_y
  _atom_site_fract_z
  _atom_site_occupancy
  Mn  Mn1       1.0  0.00000  0.06284  0.25000  1.0000
  Mn  Mn2       1.0  0.00000  0.93716  0.75000  1.0000
  Mn  Mn3       1.0  0.08392  0.70278  0.44035  1.0000
  Mn  Mn4       1.0  0.91608  0.70278  0.05965  1.0000
  Mn  Mn5       1.0  0.91608  0.29722  0.55965  1.0000
  Mn  Mn6       1.0  0.08392  0.29722  0.94035  1.0000
  Mn  Mn7       1.0  0.50000  0.05789  0.75000  1.0000
  Mn  Mn8       1.0  0.50000  0.94211  0.25000  1.0000
  Mn  Mn9       1.0  0.24232  0.31544  0.50284  1.0000
  Mn  Mn10      1.0  0.75768  0.31544  0.99716  1.0000
  Mn  Mn11      1.0  0.75768  0.68456  0.49716  1.0000
  Mn  Mn12      1.0  0.24232  0.68456  0.00284  1.0000
  Mn  Mn13      1.0  0.42994  0.70298  0.55409  1.0000
  Mn  Mn14      1.0  0.57006  0.70298  0.94591  1.0000
  Mn  Mn15      1.0  0.57006  0.29702  0.44591  1.0000
  Mn  Mn16      1.0  0.42994  0.29702  0.05409  1.0000
  Cr  Cr1       1.0  0.50000  0.82108  0.75000  1.0000
  Cr  Cr2       1.0  0.50000  0.17892  0.25000  1.0000
  Cr  Cr3       1.0  0.95914  0.21194  0.07158  1.0000
  Cr  Cr4       1.0  0.04086  0.21194  0.42842  1.0000
  Cr  Cr5       1.0  0.04086  0.78806  0.92842  1.0000
  Cr  Cr6       1.0  0.95914  0.78806  0.57158  1.0000
  Cr  Cr7       1.0  0.44026  0.20554  0.57064  1.0000
  Cr  Cr8       1.0  0.55974  0.20554  0.92936  1.0000
  Cr  Cr9       1.0  0.55974  0.79446  0.42936  1.0000
  Cr  Cr10      1.0  0.44026  0.79446  0.07064  1.0000
  Cr  Cr11      1.0  0.25627  0.55188  0.50019  1.0000
  Cr  Cr12      1.0  0.74373  0.55188  0.99981  1.0000
  Cr  Cr13      1.0  0.74373  0.44812  0.49981  1.0000
  Cr  Cr14      1.0  0.25627  0.44812  0.00019  1.0000
  Cr  Cr15      1.0  0.00000  0.82701  0.25000  1.0000
  Cr  Cr16      1.0  0.00000  0.17299  0.75000  1.0000
  O   O1        1.0  0.03772  0.98950  0.21840  1.0000
  O   O2        1.0  0.96228  0.98950  0.28160  1.0000
  O   O3        1.0  0.96228  0.01050  0.78160  1.0000
  O   O4        1.0  0.03772  0.01050  0.71840  1.0000
  O   O5        1.0  0.22720  0.49090  0.54100  1.0000
  O   O6        1.0  0.77280  0.49090  0.95900  1.0000
  O   O7        1.0  0.77280  0.50910  0.45900  1.0000
  O   O8        1.0  0.22720  0.50910  0.04100  1.0000
  O   O9        1.0  0.27980  0.48450  0.46240  1.0000
  O   O10       1.0  0.72020  0.48450  0.03760  1.0000
  O   O11       1.0  0.72020  0.51550  0.53760  1.0000
  O   O12       1.0  0.27980  0.51550  0.96240  1.0000
  O   O13       1.0  0.03060  0.89190  0.21377  1.0000
  O   O14       1.0  0.96940  0.89190  0.28623  1.0000
  O   O15       1.0  0.96940  0.10810  0.78623  1.0000
  O   O16       1.0  0.03060  0.10810  0.71377  1.0000
  O   O17       1.0  0.04010  0.13420  0.21480  1.0000
  O   O18       1.0  0.95990  0.13420  0.28520  1.0000
  O   O19       1.0  0.95990  0.86580  0.78520  1.0000
  O   O20       1.0  0.04010  0.86580  0.71480  1.0000
  O   O21       1.0  0.46180  0.98370  0.78060  1.0000
  O   O22       1.0  0.53820  0.98370  0.71940  1.0000
  O   O23       1.0  0.53820  0.01630  0.21940  1.0000
  O   O24       1.0  0.46180  0.01630  0.28060  1.0000
  O   O25       1.0  0.22530  0.61690  0.53586  1.0000
  O   O26       1.0  0.77470  0.61690  0.96414  1.0000
  O   O27       1.0  0.77470  0.38310  0.46414  1.0000
  O   O28       1.0  0.22530  0.38310  0.03586  1.0000
  O   O29       1.0  0.27230  0.38680  0.45950  1.0000
  O   O30       1.0  0.72770  0.38680  0.04050  1.0000
  O   O31       1.0  0.72770  0.61320  0.54050  1.0000
  O   O32       1.0  0.27230  0.61320  0.95950  1.0000
  O   O33       1.0  0.22150  0.39370  0.54470  1.0000
  O   O34       1.0  0.77850  0.39370  0.95530  1.0000
  O   O35       1.0  0.77850  0.60630  0.45530  1.0000
  O   O36       1.0  0.22150  0.60630  0.04470  1.0000
  O   O37       1.0  0.18510  0.55880  0.44047  1.0000
  O   O38       1.0  0.81490  0.55880  0.05953  1.0000
  O   O39       1.0  0.81490  0.44120  0.55953  1.0000
  O   O40       1.0  0.18510  0.44120  0.94047  1.0000
  O   O41       1.0  0.07160  0.81930  0.30920  1.0000
  O   O42       1.0  0.92840  0.81930  0.19080  1.0000
  O   O43       1.0  0.92840  0.18070  0.69080  1.0000
  O   O44       1.0  0.07160  0.18070  0.80920  1.0000
  O   O45       1.0  0.53360  0.13050  0.70960  1.0000
  O   O46       1.0  0.46640  0.13050  0.79040  1.0000
  O   O47       1.0  0.46640  0.86950  0.29040  1.0000
  O   O48       1.0  0.53360  0.86950  0.20960  1.0000
  O   O49       1.0  0.01580  0.20010  0.14480  1.0000
  O   O50       1.0  0.98420  0.20010  0.35520  1.0000
  O   O51       1.0  0.98420  0.79990  0.85520  1.0000
  O   O52       1.0  0.01580  0.79990  0.64480  1.0000
  O   O53       1.0  0.29040  0.61180  0.46120  1.0000
  O   O54       1.0  0.70960  0.61180  0.03880  1.0000
  O   O55       1.0  0.70960  0.38820  0.53880  1.0000
  O   O56       1.0  0.29040  0.38820  0.96120  1.0000
  O   O57       1.0  0.46650  0.88570  0.78350  1.0000
  O   O58       1.0  0.53350  0.88570  0.71650  1.0000
  O   O59       1.0  0.53350  0.11430  0.21650  1.0000
  O   O60       1.0  0.46650  0.11430  0.28350  1.0000
  O   O61       1.0  0.82280  0.29710  0.07540  1.0000
  O   O62       1.0  0.17720  0.29710  0.42460  1.0000
  O   O63       1.0  0.17720  0.70290  0.92460  1.0000
  O   O64       1.0  0.82280  0.70290  0.57540  1.0000
  O   O65       1.0  0.93180  0.13460  0.09028  1.0000
  O   O66       1.0  0.06820  0.13460  0.40972  1.0000
  O   O67       1.0  0.06820  0.86540  0.90972  1.0000
  O   O68       1.0  0.93180  0.86540  0.59028  1.0000
  O   O69       1.0  0.94380  0.07480  0.16480  1.0000
  O   O70       1.0  0.05620  0.07480  0.33520  1.0000
  O   O71       1.0  0.05620  0.92520  0.83520  1.0000
  O   O72       1.0  0.94380  0.92520  0.66480  1.0000
  O   O73       1.0  0.32870  0.55870  0.55900  1.0000
  O   O74       1.0  0.67130  0.55870  0.94100  1.0000
  O   O75       1.0  0.67130  0.44130  0.44100  1.0000
  O   O76       1.0  0.32870  0.44130  0.05900  1.0000
  O   O77       1.0  0.97510  0.76730  0.29590  1.0000
  O   O78       1.0  0.02490  0.76730  0.20410  1.0000
  O   O79       1.0  0.02490  0.23270  0.70410  1.0000
  O   O80       1.0  0.97510  0.23270  0.79590  1.0000
  O   O81       1.0  0.90010  0.22010  0.99970  1.0000
  O   O82       1.0  0.09990  0.22010  0.50030  1.0000
  O   O83       1.0  0.09990  0.77990  0.00030  1.0000
  O   O84       1.0  0.90010  0.77990  0.49970  1.0000
  O   O85       1.0  0.11260  0.61940  0.41460  1.0000
  O   O86       1.0  0.88740  0.61940  0.08540  1.0000
  O   O87       1.0  0.88740  0.38060  0.58540  1.0000
  O   O88       1.0  0.11260  0.38060  0.91460  1.0000
  O   O89       1.0  0.01050  0.18010  0.03010  1.0000
  O   O90       1.0  0.98950  0.18010  0.46990  1.0000
  O   O91       1.0  0.98950  0.81990  0.96990  1.0000
  O   O92       1.0  0.01050  0.81990  0.53010  1.0000
  O   O93       1.0  0.30730  0.29350  0.58040  1.0000
  O   O94       1.0  0.69270  0.29350  0.91960  1.0000
  O   O95       1.0  0.69270  0.70650  0.41960  1.0000
  O   O96       1.0  0.30730  0.70650  0.08040  1.0000
  O   O97       1.0  0.47040  0.76130  0.79240  1.0000
  O   O98       1.0  0.52960  0.76130  0.70760  1.0000
  O   O99       1.0  0.52960  0.23870  0.20760  1.0000
  O   O100      1.0  0.47040  0.23870  0.29240  1.0000
  O   O101      1.0  0.15860  0.68420  0.50880  1.0000
  O   O102      1.0  0.84140  0.68420  0.99120  1.0000
  O   O103      1.0  0.84140  0.31580  0.49120  1.0000
  O   O104      1.0  0.15860  0.31580  0.00880  1.0000
  O   O105      1.0  0.56720  0.81540  0.81410  1.0000
  O   O106      1.0  0.43280  0.81540  0.68590  1.0000
  O   O107      1.0  0.43280  0.18460  0.18590  1.0000
  O   O108      1.0  0.56720  0.18460  0.31410  1.0000
  O   O109      1.0  0.99020  0.28790  0.05680  1.0000
  O   O110      1.0  0.00980  0.28790  0.44320  1.0000
  O   O111      1.0  0.00980  0.71210  0.94320  1.0000
  O   O112      1.0  0.99020  0.71210  0.55680  1.0000
  O   O113      1.0  0.00890  0.71120  0.37190  1.0000
  O   O114      1.0  0.99110  0.71120  0.12810  1.0000
  O   O115      1.0  0.99110  0.28880  0.62810  1.0000
  O   O116      1.0  0.00890  0.28880  0.87190  1.0000
  O   O117      1.0  0.29550  0.25450  0.47240  1.0000
  O   O118      1.0  0.70450  0.25450  0.02760  1.0000
  O   O119      1.0  0.70450  0.74550  0.52760  1.0000
  O   O120      1.0  0.29550  0.74550  0.97240  1.0000
  O   O121      1.0  0.81730  0.26290  0.96750  1.0000
  O   O122      1.0  0.18270  0.26290  0.53250  1.0000
  O   O123      1.0  0.18270  0.73710  0.03250  1.0000
  O   O124      1.0  0.81730  0.73710  0.46750  1.0000
  O   O125      1.0  0.43690  0.06890  0.66870  1.0000
  O   O126      1.0  0.56310  0.06890  0.83130  1.0000
  O   O127      1.0  0.56310  0.93110  0.33130  1.0000
  O   O128      1.0  0.43690  0.93110  0.16870  1.0000
  O   O129      1.0  0.90530  0.25200  0.10490  1.0000
  O   O130      1.0  0.09470  0.25200  0.39510  1.0000
  O   O131      1.0  0.09470  0.74800  0.89510  1.0000
  O   O132      1.0  0.90530  0.74800  0.60490  1.0000
  O   O133      1.0  0.03710  0.32510  0.99890  1.0000
  O   O134      1.0  0.96290  0.32510  0.50110  1.0000
  O   O135      1.0  0.96290  0.67490  0.00110  1.0000
  O   O136      1.0  0.03710  0.67490  0.49890  1.0000
  O   O137      1.0  0.37720  0.21000  0.50230  1.0000
  O   O138      1.0  0.62280  0.21000  0.99770  1.0000
  O   O139      1.0  0.62280  0.79000  0.49770  1.0000
  O   O140      1.0  0.37720  0.79000  0.00230  1.0000
  O   O141      1.0  0.38800  0.24470  0.60720  1.0000
  O   O142      1.0  0.61200  0.24470  0.89280  1.0000
  O   O143      1.0  0.61200  0.75530  0.39280  1.0000
  O   O144      1.0  0.38800  0.75530  0.10720  1.0000
  O   O145      1.0  0.06500  0.21270  0.97730  1.0000
  O   O146      1.0  0.93500  0.21270  0.52270  1.0000
  O   O147      1.0  0.93500  0.78730  0.02270  1.0000
  O   O148      1.0  0.06500  0.78730  0.47730  1.0000
  O   O149      1.0  0.50140  0.19630  0.64050  1.0000
  O   O150      1.0  0.49860  0.19630  0.85950  1.0000
  O   O151      1.0  0.49860  0.80370  0.35950  1.0000
  O   O152      1.0  0.50140  0.80370  0.14050  1.0000
  O   O153      1.0  0.11120  0.76020  0.38160  1.0000
  O   O154      1.0  0.88880  0.76020  0.11840  1.0000
  O   O155      1.0  0.88880  0.23980  0.61840  1.0000
  O   O156      1.0  0.11120  0.23980  0.88160  1.0000
  O   O157      1.0  0.41710  0.12800  0.59320  1.0000
  O   O158      1.0  0.58290  0.12800  0.90680  1.0000
  O   O159      1.0  0.58290  0.87200  0.40680  1.0000
  O   O160      1.0  0.41710  0.87200  0.09320  1.0000
  O   O161      1.0  0.48980  0.17600  0.52610  1.0000
  O   O162      1.0  0.51020  0.17600  0.97390  1.0000
  O   O163      1.0  0.51020  0.82400  0.47390  1.0000
  O   O164      1.0  0.48980  0.82400  0.02610  1.0000
  O   O165      1.0  0.49840  0.70790  0.87100  1.0000
  O   O166      1.0  0.50160  0.70790  0.62900  1.0000
  O   O167      1.0  0.50160  0.29210  0.12900  1.0000
  O   O168      1.0  0.49840  0.29210  0.37100  1.0000
  O   O169      1.0  0.54580  0.21130  0.47580  1.0000
  O   O170      1.0  0.45420  0.21130  0.02420  1.0000
  O   O171      1.0  0.45420  0.78870  0.52420  1.0000
  O   O172      1.0  0.54580  0.78870  0.97580  1.0000
  O   O173      1.0  0.46600  0.28290  0.55270  1.0000
  O   O174      1.0  0.53400  0.28290  0.94730  1.0000
  O   O175      1.0  0.53400  0.71710  0.44730  1.0000
  O   O176      1.0  0.46600  0.71710  0.05270  1.0000
  O   O177      1.0  0.40200  0.61860  0.58240  1.0000
  O   O178      1.0  0.59800  0.61860  0.91760  1.0000
  O   O179      1.0  0.59800  0.38140  0.41760  1.0000
  O   O180      1.0  0.40200  0.38140  0.08240  1.0000
  O   O181      1.0  0.51710  0.32200  0.49950  1.0000
  O   O182      1.0  0.48290  0.32200  0.00050  1.0000
  O   O183      1.0  0.48290  0.67800  0.50050  1.0000
  O   O184      1.0  0.51710  0.67800  0.99950  1.0000
  O   O185      1.0  0.35790  0.67910  0.48480  1.0000
  O   O186      1.0  0.64210  0.67910  0.01520  1.0000
  O   O187      1.0  0.64210  0.32090  0.51520  1.0000
  O   O188      1.0  0.35790  0.32090  0.98480  1.0000
  O   O189      1.0  0.60120  0.75870  0.89050  1.0000
  O   O190      1.0  0.39880  0.75870  0.60950  1.0000
  O   O191      1.0  0.39880  0.24130  0.10950  1.0000
  O   O192      1.0  0.60120  0.24130  0.39050  1.0000
  C   C1        1.0  0.23480  0.43880  0.52540  1.0000
  C   C2        1.0  0.76520  0.43880  0.97460  1.0000
  C   C3        1.0  0.76520  0.56120  0.47460  1.0000
  C   C4        1.0  0.23480  0.56120  0.02540  1.0000
  C   C5        1.0  0.26510  0.43510  0.47770  1.0000
  C   C6        1.0  0.73490  0.43510  0.02230  1.0000
  C   C7        1.0  0.73490  0.56490  0.52230  1.0000
  C   C8        1.0  0.26510  0.56490  0.97770  1.0000
  C   C9        1.0  0.00900  0.15340  0.17020  1.0000
  C   C10       1.0  0.99100  0.15340  0.32980  1.0000
  C   C11       1.0  0.99100  0.84660  0.82980  1.0000
  C   C12       1.0  0.00900  0.84660  0.67020  1.0000
  C   C13       1.0  0.47900  0.93640  0.76830  1.0000
  C   C14       1.0  0.52100  0.93640  0.73170  1.0000
  C   C15       1.0  0.52100  0.06360  0.23170  1.0000
  C   C16       1.0  0.47900  0.06360  0.26830  1.0000
  C   C17       1.0  0.15750  0.60300  0.44700  1.0000
  C   C18       1.0  0.84250  0.60300  0.05300  1.0000
  C   C19       1.0  0.84250  0.39700  0.55300  1.0000
  C   C20       1.0  0.15750  0.39700  0.94700  1.0000
  C   C21       1.0  0.07070  0.77860  0.34400  1.0000
  C   C22       1.0  0.92930  0.77860  0.15600  1.0000
  C   C23       1.0  0.92930  0.22140  0.65600  1.0000
  C   C24       1.0  0.07070  0.22140  0.84400  1.0000
  C   C25       1.0  0.95670  0.11740  0.13940  1.0000
  C   C26       1.0  0.04330  0.11740  0.36060  1.0000
  C   C27       1.0  0.04330  0.88260  0.86060  1.0000
  C   C28       1.0  0.95670  0.88260  0.63940  1.0000
  C   C29       1.0  0.01960  0.28330  0.02210  1.0000
  C   C30       1.0  0.98040  0.28330  0.47790  1.0000
  C   C31       1.0  0.98040  0.71670  0.97790  1.0000
  C   C32       1.0  0.01960  0.71670  0.52210  1.0000
  C   C33       1.0  0.18190  0.63800  0.50150  1.0000
  C   C34       1.0  0.81810  0.63800  0.99850  1.0000
  C   C35       1.0  0.81810  0.36200  0.49850  1.0000
  C   C36       1.0  0.18190  0.36200  0.00150  1.0000
  C   C37       1.0  0.01300  0.74920  0.33730  1.0000
  C   C38       1.0  0.98700  0.74920  0.16270  1.0000
  C   C39       1.0  0.98700  0.25080  0.66270  1.0000
  C   C40       1.0  0.01300  0.25080  0.83730  1.0000
  C   C41       1.0  0.85860  0.24860  0.00540  1.0000
  C   C42       1.0  0.14140  0.24860  0.49460  1.0000
  C   C43       1.0  0.14140  0.75140  0.99460  1.0000
  C   C44       1.0  0.85860  0.75140  0.50540  1.0000
  C   C45       1.0  0.03320  0.22020  0.00780  1.0000
  C   C46       1.0  0.96680  0.22020  0.49220  1.0000
  C   C47       1.0  0.96680  0.77980  0.99220  1.0000
  C   C48       1.0  0.03320  0.77980  0.50780  1.0000
  C   C49       1.0  0.44650  0.11100  0.64130  1.0000
  C   C50       1.0  0.55350  0.11100  0.85870  1.0000
  C   C51       1.0  0.55350  0.88900  0.35870  1.0000
  C   C52       1.0  0.44650  0.88900  0.14130  1.0000
  C   C53       1.0  0.33800  0.24070  0.50870  1.0000
  C   C54       1.0  0.66200  0.24070  0.99130  1.0000
  C   C55       1.0  0.66200  0.75930  0.49130  1.0000
  C   C56       1.0  0.33800  0.75930  0.00870  1.0000
  C   C57       1.0  0.34440  0.26230  0.57130  1.0000
  C   C58       1.0  0.65560  0.26230  0.92870  1.0000
  C   C59       1.0  0.65560  0.73770  0.42870  1.0000
  C   C60       1.0  0.34440  0.73770  0.07130  1.0000
  C   C61       1.0  0.49880  0.14920  0.66640  1.0000
  C   C62       1.0  0.50120  0.14920  0.83360  1.0000
  C   C63       1.0  0.50120  0.85080  0.33360  1.0000
  C   C64       1.0  0.49880  0.85080  0.16640  1.0000
  C   C65       1.0  0.35720  0.60220  0.55020  1.0000
  C   C66       1.0  0.64280  0.60220  0.94980  1.0000
  C   C67       1.0  0.64280  0.39780  0.44980  1.0000
  C   C68       1.0  0.35720  0.39780  0.05020  1.0000
  C   C69       1.0  0.86110  0.26850  0.06740  1.0000
  C   C70       1.0  0.13890  0.26850  0.43260  1.0000
  C   C71       1.0  0.13890  0.73150  0.93260  1.0000
  C   C72       1.0  0.86110  0.73150  0.56740  1.0000
  C   C73       1.0  0.56370  0.77510  0.84920  1.0000
  C   C74       1.0  0.43630  0.77510  0.65080  1.0000
  C   C75       1.0  0.43630  0.22490  0.15080  1.0000
  C   C76       1.0  0.56370  0.22490  0.34920  1.0000
  C   C77       1.0  0.50540  0.74460  0.83730  1.0000
  C   C78       1.0  0.49460  0.74460  0.66270  1.0000
  C   C79       1.0  0.49460  0.25540  0.16270  1.0000
  C   C80       1.0  0.50540  0.25540  0.33730  1.0000
  C   C81       1.0  0.33340  0.63500  0.49390  1.0000
  C   C82       1.0  0.66660  0.63500  0.00610  1.0000
  C   C83       1.0  0.66660  0.36500  0.50610  1.0000
  C   C84       1.0  0.33340  0.36500  0.99390  1.0000
  C   C85       1.0  0.49820  0.27990  0.51940  1.0000
  C   C86       1.0  0.50180  0.27990  0.98060  1.0000
  C   C87       1.0  0.50180  0.72010  0.48060  1.0000
  C   C88       1.0  0.49820  0.72010  0.01940  1.0000
  C   C89       1.0  0.51300  0.21660  0.50560  1.0000
  C   C90       1.0  0.48700  0.21660  0.99440  1.0000
  C   C91       1.0  0.48700  0.78340  0.49440  1.0000
  C   C92       1.0  0.51300  0.78340  0.00560  1.0000
  C   C93       1.0  0.01980  0.94180  0.23020  1.0000
  C   C94       1.0  0.98020  0.94180  0.26980  1.0000
  C   C95       1.0  0.98020  0.05820  0.76980  1.0000
  C   C96       1.0  0.01980  0.05820  0.73020  1.0000
