data_image0
_chemical_formula_structural       Fe2Zn4F12N10H4C2N10H4C2N10H4C2
_chemical_formula_sum              "Fe2 Zn4 F12 N30 H12 C6"
_cell_length_a       13.2928
_cell_length_b       6.57
_cell_length_c       13.6461
_cell_angle_alpha    90
_cell_angle_beta     119.069
_cell_angle_gamma    90

_space_group_name_H-M_alt    "P 1"
_space_group_IT_number       1

loop_
  _space_group_symop_operation_xyz
  'x, y, z'

loop_
  _atom_site_type_symbol
  _atom_site_label
  _atom_site_symmetry_multiplicity
  _atom_site_fract_x
  _atom_site_fract_y
  _atom_site_fract_z
  _atom_site_occupancy
  Fe  Fe1       1.0  0.24739  0.24548  0.49570  1.0000
  Fe  Fe2       1.0  0.75261  0.74548  0.50430  1.0000
  Zn  Zn1       1.0  0.49483  0.59155  0.99451  1.0000
  Zn  Zn2       1.0  0.50517  0.09155  0.00549  1.0000
  Zn  Zn3       1.0  0.95027  0.40171  0.99672  1.0000
  Zn  Zn4       1.0  0.04973  0.90171  0.00328  1.0000
  F   F1        1.0  0.10760  0.14890  0.48620  1.0000
  F   F2        1.0  0.89240  0.64890  0.51380  1.0000
  F   F3        1.0  0.18680  0.51780  0.46460  1.0000
  F   F4        1.0  0.81320  0.01780  0.53540  1.0000
  F   F5        1.0  0.30770  0.97700  0.52330  1.0000
  F   F6        1.0  0.69230  0.47700  0.47670  1.0000
  F   F7        1.0  0.38670  0.34470  0.50330  1.0000
  F   F8        1.0  0.61330  0.84470  0.49670  1.0000
  F   F9        1.0  0.97010  0.15600  0.92290  1.0000
  F   F10       1.0  0.02990  0.65600  0.07710  1.0000
  F   F11       1.0  0.47580  0.34360  0.07140  1.0000
  F   F12       1.0  0.52420  0.84360  0.92860  1.0000
  N   N1        1.0  0.17550  0.18720  0.31880  1.0000
  N   N2        1.0  0.82450  0.68720  0.68120  1.0000
  N   N3        1.0  0.12460  0.34200  0.24310  1.0000
  N   N4        1.0  0.87540  0.84200  0.75690  1.0000
  N   N5        1.0  0.07710  0.26390  0.14390  1.0000
  N   N6        1.0  0.92290  0.76390  0.85610  1.0000
  N   N7        1.0  0.09190  0.05540  0.14930  1.0000
  N   N8        1.0  0.90810  0.55540  0.85070  1.0000
  N   N9        1.0  0.18920  0.82690  0.30130  1.0000
  N   N10       1.0  0.81080  0.32690  0.69870  1.0000
  H   H1        1.0  0.17400  0.72430  0.25720  1.0000
  H   H2        1.0  0.82600  0.22430  0.74280  1.0000
  H   H3        1.0  0.22800  0.81000  0.37280  1.0000
  H   H4        1.0  0.77200  0.31000  0.62720  1.0000
  C   C1        1.0  0.15250  0.01380  0.25860  1.0000
  C   C2        1.0  0.84750  0.51380  0.74140  1.0000
  N   N11       1.0  0.80310  0.35640  0.00130  1.0000
  N   N12       1.0  0.19690  0.85640  0.99870  1.0000
  N   N13       1.0  0.73780  0.51550  0.99960  1.0000
  N   N14       1.0  0.26220  0.01550  0.00040  1.0000
  N   N15       1.0  0.64900  0.44490  0.00500  1.0000
  N   N16       1.0  0.35100  0.94490  0.99500  1.0000
  N   N17       1.0  0.65190  0.23970  0.00910  1.0000
  N   N18       1.0  0.34810  0.73970  0.99090  1.0000
  N   N19       1.0  0.78430  0.99120  0.01240  1.0000
  N   N20       1.0  0.21570  0.49120  0.98760  1.0000
  H   H5        1.0  0.74520  0.89260  0.01870  1.0000
  H   H6        1.0  0.25480  0.39260  0.98130  1.0000
  H   H7        1.0  0.84660  0.96630  0.01010  1.0000
  H   H8        1.0  0.15340  0.46630  0.98990  1.0000
  C   C3        1.0  0.74700  0.18930  0.00610  1.0000
  C   C4        1.0  0.25300  0.68930  0.99390  1.0000
  N   N21       1.0  0.31520  0.30430  0.66820  1.0000
  N   N22       1.0  0.68480  0.80430  0.33180  1.0000
  N   N23       1.0  0.35470  0.15250  0.74470  1.0000
  N   N24       1.0  0.64530  0.65250  0.25530  1.0000
  N   N25       1.0  0.40330  0.23300  0.84410  1.0000
  N   N26       1.0  0.59670  0.73300  0.15590  1.0000
  N   N27       1.0  0.39910  0.43740  0.83880  1.0000
  N   N28       1.0  0.60090  0.93740  0.16120  1.0000
  N   N29       1.0  0.31830  0.66980  0.68350  1.0000
  N   N30       1.0  0.68170  0.16980  0.31650  1.0000
  H   H9        1.0  0.33810  0.77450  0.72670  1.0000
  H   H10       1.0  0.66190  0.27450  0.27330  1.0000
  H   H11       1.0  0.28250  0.68530  0.61190  1.0000
  H   H12       1.0  0.71750  0.18530  0.38810  1.0000
  C   C5        1.0  0.34350  0.48020  0.72830  1.0000
  C   C6        1.0  0.65650  0.98020  0.27170  1.0000
