data_image0
_chemical_formula_structural       Zn8Fe8F40N40H16C8N40H16C8
_chemical_formula_sum              "Zn8 Fe8 F40 N80 H32 C16"
_cell_length_a       29.371
_cell_length_b       6.645
_cell_length_c       17.375
_cell_angle_alpha    90
_cell_angle_beta     105.644
_cell_angle_gamma    90

_space_group_name_H-M_alt    "P 1"
_space_group_IT_number       1

loop_
  _space_group_symop_operation_xyz
  'x, y, z'

loop_
  _atom_site_type_symbol
  _atom_site_label
  _atom_site_symmetry_multiplicity
  _atom_site_fract_x
  _atom_site_fract_y
  _atom_site_fract_z
  _atom_site_occupancy
  Zn  Zn1       1.0  0.25186  0.49370  0.75123  1.0000
  Zn  Zn2       1.0  0.74814  0.49370  0.74877  1.0000
  Zn  Zn3       1.0  0.75186  0.99370  0.75123  1.0000
  Zn  Zn4       1.0  0.24814  0.99370  0.74877  1.0000
  Zn  Zn5       1.0  0.74814  0.50630  0.24877  1.0000
  Zn  Zn6       1.0  0.25186  0.50630  0.25123  1.0000
  Zn  Zn7       1.0  0.24814  0.00630  0.24877  1.0000
  Zn  Zn8       1.0  0.75186  0.00630  0.25123  1.0000
  Fe  Fe1       1.0  0.40355  0.17090  0.56670  1.0000
  Fe  Fe2       1.0  0.59645  0.17090  0.93330  1.0000
  Fe  Fe3       1.0  0.90355  0.67090  0.56670  1.0000
  Fe  Fe4       1.0  0.09645  0.67090  0.93330  1.0000
  Fe  Fe5       1.0  0.59645  0.82910  0.43330  1.0000
  Fe  Fe6       1.0  0.40355  0.82910  0.06670  1.0000
  Fe  Fe7       1.0  0.09645  0.32910  0.43330  1.0000
  Fe  Fe8       1.0  0.90355  0.32910  0.06670  1.0000
  F   F1        1.0  0.24950  0.24440  0.81720  1.0000
  F   F2        1.0  0.75050  0.24440  0.68280  1.0000
  F   F3        1.0  0.74950  0.74440  0.81720  1.0000
  F   F4        1.0  0.25050  0.74440  0.68280  1.0000
  F   F5        1.0  0.75050  0.75560  0.18280  1.0000
  F   F6        1.0  0.24950  0.75560  0.31720  1.0000
  F   F7        1.0  0.25050  0.25560  0.18280  1.0000
  F   F8        1.0  0.74950  0.25560  0.31720  1.0000
  F   F9        1.0  0.45410  0.12690  0.66360  1.0000
  F   F10       1.0  0.54590  0.12690  0.83640  1.0000
  F   F11       1.0  0.95410  0.62690  0.66360  1.0000
  F   F12       1.0  0.04590  0.62690  0.83640  1.0000
  F   F13       1.0  0.54590  0.87310  0.33640  1.0000
  F   F14       1.0  0.45410  0.87310  0.16360  1.0000
  F   F15       1.0  0.04590  0.37310  0.33640  1.0000
  F   F16       1.0  0.95410  0.37310  0.16360  1.0000
  F   F17       1.0  0.41610  0.45370  0.57540  1.0000
  F   F18       1.0  0.58390  0.45370  0.92460  1.0000
  F   F19       1.0  0.91610  0.95370  0.57540  1.0000
  F   F20       1.0  0.08390  0.95370  0.92460  1.0000
  F   F21       1.0  0.58390  0.54630  0.42460  1.0000
  F   F22       1.0  0.41610  0.54630  0.07540  1.0000
  F   F23       1.0  0.08390  0.04630  0.42460  1.0000
  F   F24       1.0  0.91610  0.04630  0.07540  1.0000
  F   F25       1.0  0.44960  0.13000  0.50830  1.0000
  F   F26       1.0  0.55040  0.13000  0.99170  1.0000
  F   F27       1.0  0.94960  0.63000  0.50830  1.0000
  F   F28       1.0  0.05040  0.63000  0.99170  1.0000
  F   F29       1.0  0.55040  0.87000  0.49170  1.0000
  F   F30       1.0  0.44960  0.87000  0.00830  1.0000
  F   F31       1.0  0.05040  0.37000  0.49170  1.0000
  F   F32       1.0  0.94960  0.37000  0.00830  1.0000
  F   F33       1.0  0.38440  0.90250  0.55800  1.0000
  F   F34       1.0  0.61560  0.90250  0.94200  1.0000
  F   F35       1.0  0.88440  0.40250  0.55800  1.0000
  F   F36       1.0  0.11560  0.40250  0.94200  1.0000
  F   F37       1.0  0.61560  0.09750  0.44200  1.0000
  F   F38       1.0  0.38440  0.09750  0.05800  1.0000
  F   F39       1.0  0.11560  0.59750  0.44200  1.0000
  F   F40       1.0  0.88440  0.59750  0.05800  1.0000
  N   N1        1.0  0.19710  0.14210  0.65360  1.0000
  N   N2        1.0  0.80290  0.14210  0.84640  1.0000
  N   N3        1.0  0.69710  0.64210  0.65360  1.0000
  N   N4        1.0  0.30290  0.64210  0.84640  1.0000
  N   N5        1.0  0.80290  0.85790  0.34640  1.0000
  N   N6        1.0  0.19710  0.85790  0.15360  1.0000
  N   N7        1.0  0.30290  0.35790  0.34640  1.0000
  N   N8        1.0  0.69710  0.35790  0.15360  1.0000
  N   N9        1.0  0.19880  0.34660  0.65660  1.0000
  N   N10       1.0  0.80120  0.34660  0.84340  1.0000
  N   N11       1.0  0.69880  0.84660  0.65660  1.0000
  N   N12       1.0  0.30120  0.84660  0.84340  1.0000
  N   N13       1.0  0.80120  0.65340  0.34340  1.0000
  N   N14       1.0  0.19880  0.65340  0.15660  1.0000
  N   N15       1.0  0.30120  0.15340  0.34340  1.0000
  N   N16       1.0  0.69880  0.15340  0.15660  1.0000
  N   N17       1.0  0.16990  0.41980  0.59250  1.0000
  N   N18       1.0  0.83010  0.41980  0.90750  1.0000
  N   N19       1.0  0.66990  0.91980  0.59250  1.0000
  N   N20       1.0  0.33010  0.91980  0.90750  1.0000
  N   N21       1.0  0.83010  0.58020  0.40750  1.0000
  N   N22       1.0  0.16990  0.58020  0.09250  1.0000
  N   N23       1.0  0.33010  0.08020  0.40750  1.0000
  N   N24       1.0  0.66990  0.08020  0.09250  1.0000
  N   N25       1.0  0.14830  0.26710  0.54650  1.0000
  N   N26       1.0  0.85170  0.26710  0.95350  1.0000
  N   N27       1.0  0.64830  0.76710  0.54650  1.0000
  N   N28       1.0  0.35170  0.76710  0.95350  1.0000
  N   N29       1.0  0.85170  0.73290  0.45350  1.0000
  N   N30       1.0  0.14830  0.73290  0.04650  1.0000
  N   N31       1.0  0.35170  0.23290  0.45350  1.0000
  N   N32       1.0  0.64830  0.23290  0.04650  1.0000
  N   N33       1.0  0.15530  0.90600  0.56020  1.0000
  N   N34       1.0  0.84470  0.90600  0.93980  1.0000
  N   N35       1.0  0.65530  0.40600  0.56020  1.0000
  N   N36       1.0  0.34470  0.40600  0.93980  1.0000
  N   N37       1.0  0.84470  0.09400  0.43980  1.0000
  N   N38       1.0  0.15530  0.09400  0.06020  1.0000
  N   N39       1.0  0.34470  0.59400  0.43980  1.0000
  N   N40       1.0  0.65530  0.59400  0.06020  1.0000
  H   H1        1.0  0.16930  0.80770  0.58930  1.0000
  H   H2        1.0  0.83070  0.80770  0.91070  1.0000
  H   H3        1.0  0.66930  0.30770  0.58930  1.0000
  H   H4        1.0  0.33070  0.30770  0.91070  1.0000
  H   H5        1.0  0.83070  0.19230  0.41070  1.0000
  H   H6        1.0  0.16930  0.19230  0.08930  1.0000
  H   H7        1.0  0.33070  0.69230  0.41070  1.0000
  H   H8        1.0  0.66930  0.69230  0.08930  1.0000
  H   H9        1.0  0.13480  0.88220  0.51540  1.0000
  H   H10       1.0  0.86520  0.88220  0.98460  1.0000
  H   H11       1.0  0.63480  0.38220  0.51540  1.0000
  H   H12       1.0  0.36520  0.38220  0.98460  1.0000
  H   H13       1.0  0.86520  0.11780  0.48460  1.0000
  H   H14       1.0  0.13480  0.11780  0.01540  1.0000
  H   H15       1.0  0.36520  0.61780  0.48460  1.0000
  H   H16       1.0  0.63480  0.61780  0.01540  1.0000
  C   C1        1.0  0.16540  0.09570  0.58440  1.0000
  C   C2        1.0  0.83460  0.09570  0.91560  1.0000
  C   C3        1.0  0.66540  0.59570  0.58440  1.0000
  C   C4        1.0  0.33460  0.59570  0.91560  1.0000
  C   C5        1.0  0.83460  0.90430  0.41560  1.0000
  C   C6        1.0  0.16540  0.90430  0.08440  1.0000
  C   C7        1.0  0.33460  0.40430  0.41560  1.0000
  C   C8        1.0  0.66540  0.40430  0.08440  1.0000
  N   N41       1.0  0.35310  0.22990  0.63900  1.0000
  N   N42       1.0  0.64690  0.22990  0.86100  1.0000
  N   N43       1.0  0.85310  0.72990  0.63900  1.0000
  N   N44       1.0  0.14690  0.72990  0.86100  1.0000
  N   N45       1.0  0.64690  0.77010  0.36100  1.0000
  N   N46       1.0  0.35310  0.77010  0.13900  1.0000
  N   N47       1.0  0.14690  0.27010  0.36100  1.0000
  N   N48       1.0  0.85310  0.27010  0.13900  1.0000
  N   N49       1.0  0.33120  0.06920  0.66420  1.0000
  N   N50       1.0  0.66880  0.06920  0.83580  1.0000
  N   N51       1.0  0.83120  0.56920  0.66420  1.0000
  N   N52       1.0  0.16880  0.56920  0.83580  1.0000
  N   N53       1.0  0.66880  0.93080  0.33580  1.0000
  N   N54       1.0  0.33120  0.93080  0.16420  1.0000
  N   N55       1.0  0.16880  0.43080  0.33580  1.0000
  N   N56       1.0  0.83120  0.43080  0.16420  1.0000
  N   N57       1.0  0.30290  0.14050  0.70240  1.0000
  N   N58       1.0  0.69710  0.14050  0.79760  1.0000
  N   N59       1.0  0.80290  0.64050  0.70240  1.0000
  N   N60       1.0  0.19710  0.64050  0.79760  1.0000
  N   N61       1.0  0.69710  0.85950  0.29760  1.0000
  N   N62       1.0  0.30290  0.85950  0.20240  1.0000
  N   N63       1.0  0.19710  0.35950  0.29760  1.0000
  N   N64       1.0  0.80290  0.35950  0.20240  1.0000
  N   N65       1.0  0.30480  0.34710  0.70540  1.0000
  N   N66       1.0  0.69520  0.34710  0.79460  1.0000
  N   N67       1.0  0.80480  0.84710  0.70540  1.0000
  N   N68       1.0  0.19520  0.84710  0.79460  1.0000
  N   N69       1.0  0.69520  0.65290  0.29460  1.0000
  N   N70       1.0  0.30480  0.65290  0.20540  1.0000
  N   N71       1.0  0.19520  0.15290  0.29460  1.0000
  N   N72       1.0  0.80480  0.15290  0.20540  1.0000
  N   N73       1.0  0.35010  0.58600  0.65670  1.0000
  N   N74       1.0  0.64990  0.58600  0.84330  1.0000
  N   N75       1.0  0.85010  0.08600  0.65670  1.0000
  N   N76       1.0  0.14990  0.08600  0.84330  1.0000
  N   N77       1.0  0.64990  0.41400  0.34330  1.0000
  N   N78       1.0  0.35010  0.41400  0.15670  1.0000
  N   N79       1.0  0.14990  0.91400  0.34330  1.0000
  N   N80       1.0  0.85010  0.91400  0.15670  1.0000
  H   H17       1.0  0.33770  0.68470  0.67580  1.0000
  H   H18       1.0  0.66230  0.68470  0.82420  1.0000
  H   H19       1.0  0.83770  0.18470  0.67580  1.0000
  H   H20       1.0  0.16230  0.18470  0.82420  1.0000
  H   H21       1.0  0.66230  0.31530  0.32420  1.0000
  H   H22       1.0  0.33770  0.31530  0.17580  1.0000
  H   H23       1.0  0.16230  0.81530  0.32420  1.0000
  H   H24       1.0  0.83770  0.81530  0.17580  1.0000
  H   H25       1.0  0.37090  0.60860  0.63110  1.0000
  H   H26       1.0  0.62910  0.60860  0.86890  1.0000
  H   H27       1.0  0.87090  0.10860  0.63110  1.0000
  H   H28       1.0  0.12910  0.10860  0.86890  1.0000
  H   H29       1.0  0.62910  0.39140  0.36890  1.0000
  H   H30       1.0  0.37090  0.39140  0.13110  1.0000
  H   H31       1.0  0.12910  0.89140  0.36890  1.0000
  H   H32       1.0  0.87090  0.89140  0.13110  1.0000
  C   C9        1.0  0.33660  0.39260  0.66670  1.0000
  C   C10       1.0  0.66340  0.39260  0.83330  1.0000
  C   C11       1.0  0.83660  0.89260  0.66670  1.0000
  C   C12       1.0  0.16340  0.89260  0.83330  1.0000
  C   C13       1.0  0.66340  0.60740  0.33330  1.0000
  C   C14       1.0  0.33660  0.60740  0.16670  1.0000
  C   C15       1.0  0.16340  0.10740  0.33330  1.0000
  C   C16       1.0  0.83660  0.10740  0.16670  1.0000
