data_image0
_chemical_formula_structural       Cr6Mn6O72C36
_chemical_formula_sum              "Cr6 Mn6 O72 C36"
_cell_length_a       9.35
_cell_length_b       9.35
_cell_length_c       49.12
_cell_angle_alpha    90
_cell_angle_beta     90
_cell_angle_gamma    120

_space_group_name_H-M_alt    "P 1"
_space_group_IT_number       1

loop_
  _space_group_symop_operation_xyz
  'x, y, z'

loop_
  _atom_site_type_symbol
  _atom_site_label
  _atom_site_symmetry_multiplicity
  _atom_site_fract_x
  _atom_site_fract_y
  _atom_site_fract_z
  _atom_site_occupancy
  Cr  Cr1       1.0  1.00000  0.00000  0.99910  1.0000
  Cr  Cr2       1.0  0.00000  0.00000  0.49910  1.0000
  Cr  Cr3       1.0  0.33333  0.66667  0.66577  1.0000
  Cr  Cr4       1.0  0.33333  0.66667  0.16577  1.0000
  Cr  Cr5       1.0  0.66667  0.33333  0.33243  1.0000
  Cr  Cr6       1.0  0.66667  0.33333  0.83243  1.0000
  Mn  Mn1       1.0  0.33340  0.66670  0.00090  1.0000
  Mn  Mn2       1.0  0.33330  0.66660  0.50090  1.0000
  Mn  Mn3       1.0  0.66673  0.33337  0.66757  1.0000
  Mn  Mn4       1.0  0.66663  0.33327  0.16757  1.0000
  Mn  Mn5       1.0  0.00007  0.00003  0.33423  1.0000
  Mn  Mn6       1.0  0.99997  0.99993  0.83423  1.0000
  O   O1        1.0  0.00690  0.82110  0.02160  1.0000
  O   O2        1.0  0.17890  0.18580  0.02160  1.0000
  O   O3        1.0  0.17890  0.99310  0.52160  1.0000
  O   O4        1.0  0.81420  0.99310  0.02160  1.0000
  O   O5        1.0  0.00690  0.18580  0.52160  1.0000
  O   O6        1.0  0.81420  0.82110  0.52160  1.0000
  O   O7        1.0  0.34023  0.48777  0.68827  1.0000
  O   O8        1.0  0.51223  0.85247  0.68827  1.0000
  O   O9        1.0  0.51223  0.65977  0.18827  1.0000
  O   O10       1.0  0.14753  0.65977  0.68827  1.0000
  O   O11       1.0  0.34023  0.85247  0.18827  1.0000
  O   O12       1.0  0.14753  0.48777  0.18827  1.0000
  O   O13       1.0  0.67357  0.15443  0.35493  1.0000
  O   O14       1.0  0.84557  0.51913  0.35493  1.0000
  O   O15       1.0  0.84557  0.32643  0.85493  1.0000
  O   O16       1.0  0.48087  0.32643  0.35493  1.0000
  O   O17       1.0  0.67357  0.51913  0.85493  1.0000
  O   O18       1.0  0.48087  0.15443  0.85493  1.0000
  O   O19       1.0  0.01620  0.17900  0.97780  1.0000
  O   O20       1.0  0.82100  0.83720  0.97780  1.0000
  O   O21       1.0  0.82100  0.98380  0.47780  1.0000
  O   O22       1.0  0.16280  0.98380  0.97780  1.0000
  O   O23       1.0  0.01620  0.83720  0.47780  1.0000
  O   O24       1.0  0.16280  0.17900  0.47780  1.0000
  O   O25       1.0  0.34953  0.84567  0.64447  1.0000
  O   O26       1.0  0.15433  0.50387  0.64447  1.0000
  O   O27       1.0  0.15433  0.65047  0.14447  1.0000
  O   O28       1.0  0.49613  0.65047  0.64447  1.0000
  O   O29       1.0  0.34953  0.50387  0.14447  1.0000
  O   O30       1.0  0.49613  0.84567  0.14447  1.0000
  O   O31       1.0  0.68287  0.51233  0.31113  1.0000
  O   O32       1.0  0.48767  0.17053  0.31113  1.0000
  O   O33       1.0  0.48767  0.31713  0.81113  1.0000
  O   O34       1.0  0.82947  0.31713  0.31113  1.0000
  O   O35       1.0  0.68287  0.17053  0.81113  1.0000
  O   O36       1.0  0.82947  0.51233  0.81113  1.0000
  O   O37       1.0  0.14210  0.68950  0.02290  1.0000
  O   O38       1.0  0.31050  0.45260  0.02290  1.0000
  O   O39       1.0  0.31050  0.85790  0.52290  1.0000
  O   O40       1.0  0.54740  0.85790  0.02290  1.0000
  O   O41       1.0  0.14210  0.45260  0.52290  1.0000
  O   O42       1.0  0.54740  0.68950  0.52290  1.0000
  O   O43       1.0  0.47543  0.35617  0.68957  1.0000
  O   O44       1.0  0.64383  0.11927  0.68957  1.0000
  O   O45       1.0  0.64383  0.52457  0.18957  1.0000
  O   O46       1.0  0.88073  0.52457  0.68957  1.0000
  O   O47       1.0  0.47543  0.11927  0.18957  1.0000
  O   O48       1.0  0.88073  0.35617  0.18957  1.0000
  O   O49       1.0  0.80877  0.02283  0.35623  1.0000
  O   O50       1.0  0.97717  0.78593  0.35623  1.0000
  O   O51       1.0  0.97717  0.19123  0.85623  1.0000
  O   O52       1.0  0.21407  0.19123  0.35623  1.0000
  O   O53       1.0  0.80877  0.78593  0.85623  1.0000
  O   O54       1.0  0.21407  0.02283  0.85623  1.0000
  O   O55       1.0  0.53740  0.69790  0.97680  1.0000
  O   O56       1.0  0.30210  0.83950  0.97680  1.0000
  O   O57       1.0  0.30210  0.46260  0.47680  1.0000
  O   O58       1.0  0.16050  0.46260  0.97680  1.0000
  O   O59       1.0  0.53740  0.83950  0.47680  1.0000
  O   O60       1.0  0.16050  0.69790  0.47680  1.0000
  O   O61       1.0  0.87073  0.36457  0.64347  1.0000
  O   O62       1.0  0.63543  0.50617  0.64347  1.0000
  O   O63       1.0  0.63543  0.12927  0.14347  1.0000
  O   O64       1.0  0.49383  0.12927  0.64347  1.0000
  O   O65       1.0  0.87073  0.50617  0.14347  1.0000
  O   O66       1.0  0.49383  0.36457  0.14347  1.0000
  O   O67       1.0  0.20407  0.03123  0.31013  1.0000
  O   O68       1.0  0.96877  0.17283  0.31013  1.0000
  O   O69       1.0  0.96877  0.79593  0.81013  1.0000
  O   O70       1.0  0.82717  0.79593  0.31013  1.0000
  O   O71       1.0  0.20407  0.17283  0.81013  1.0000
  O   O72       1.0  0.82717  0.03123  0.81013  1.0000
  C   C1        1.0  0.11390  0.79170  0.01240  1.0000
  C   C2        1.0  0.20830  0.32220  0.01240  1.0000
  C   C3        1.0  0.20830  0.88610  0.51240  1.0000
  C   C4        1.0  0.67780  0.88610  0.01240  1.0000
  C   C5        1.0  0.11390  0.32220  0.51240  1.0000
  C   C6        1.0  0.67780  0.79170  0.51240  1.0000
  C   C7        1.0  0.44723  0.45837  0.67907  1.0000
  C   C8        1.0  0.54163  0.98887  0.67907  1.0000
  C   C9        1.0  0.54163  0.55277  0.17907  1.0000
  C   C10       1.0  0.01113  0.55277  0.67907  1.0000
  C   C11       1.0  0.44723  0.98887  0.17907  1.0000
  C   C12       1.0  0.01113  0.45837  0.17907  1.0000
  C   C13       1.0  0.78057  0.12503  0.34573  1.0000
  C   C14       1.0  0.87497  0.65553  0.34573  1.0000
  C   C15       1.0  0.87497  0.21943  0.84573  1.0000
  C   C16       1.0  0.34447  0.21943  0.34573  1.0000
  C   C17       1.0  0.78057  0.65553  0.84573  1.0000
  C   C18       1.0  0.34447  0.12503  0.84573  1.0000
  C   C19       1.0  0.11630  0.32350  0.98600  1.0000
  C   C20       1.0  0.67650  0.79280  0.98600  1.0000
  C   C21       1.0  0.67650  0.88370  0.48600  1.0000
  C   C22       1.0  0.20720  0.88370  0.98600  1.0000
  C   C23       1.0  0.11630  0.79280  0.48600  1.0000
  C   C24       1.0  0.20720  0.32350  0.48600  1.0000
  C   C25       1.0  0.44963  0.99017  0.65267  1.0000
  C   C26       1.0  0.00983  0.45947  0.65267  1.0000
  C   C27       1.0  0.00983  0.55037  0.15267  1.0000
  C   C28       1.0  0.54053  0.55037  0.65267  1.0000
  C   C29       1.0  0.44963  0.45947  0.15267  1.0000
  C   C30       1.0  0.54053  0.99017  0.15267  1.0000
  C   C31       1.0  0.78297  0.65683  0.31933  1.0000
  C   C32       1.0  0.34317  0.12613  0.31933  1.0000
  C   C33       1.0  0.34317  0.21703  0.81933  1.0000
  C   C34       1.0  0.87387  0.21703  0.31933  1.0000
  C   C35       1.0  0.78297  0.12613  0.81933  1.0000
  C   C36       1.0  0.87387  0.65683  0.81933  1.0000
