data_image0
_chemical_formula_structural       Mn6Cr6O72C36
_chemical_formula_sum              "Mn6 Cr6 O72 C36"
_cell_length_a       9.363
_cell_length_b       9.363
_cell_length_c       49.207
_cell_angle_alpha    90
_cell_angle_beta     90
_cell_angle_gamma    120

_space_group_name_H-M_alt    "P 1"
_space_group_IT_number       1

loop_
  _space_group_symop_operation_xyz
  'x, y, z'

loop_
  _atom_site_type_symbol
  _atom_site_label
  _atom_site_symmetry_multiplicity
  _atom_site_fract_x
  _atom_site_fract_y
  _atom_site_fract_z
  _atom_site_occupancy
  Mn  Mn1       1.0  0.66670  0.33330  0.99720  1.0000
  Mn  Mn2       1.0  0.66670  0.33330  0.49720  1.0000
  Mn  Mn3       1.0  0.00003  0.99997  0.66387  1.0000
  Mn  Mn4       1.0  0.00003  0.99997  0.16387  1.0000
  Mn  Mn5       1.0  0.33337  0.66663  0.33053  1.0000
  Mn  Mn6       1.0  0.33337  0.66663  0.83053  1.0000
  Cr  Cr1       1.0  0.33340  0.66670  0.99540  1.0000
  Cr  Cr2       1.0  0.33330  0.66660  0.49540  1.0000
  Cr  Cr3       1.0  0.66673  0.33337  0.66207  1.0000
  Cr  Cr4       1.0  0.66663  0.33327  0.16207  1.0000
  Cr  Cr5       1.0  0.00007  0.00003  0.32873  1.0000
  Cr  Cr6       1.0  0.99997  0.99993  0.82873  1.0000
  O   O1        1.0  0.87420  0.51940  0.01930  1.0000
  O   O2        1.0  0.48060  0.35480  0.01930  1.0000
  O   O3        1.0  0.48060  0.12580  0.51930  1.0000
  O   O4        1.0  0.64520  0.12580  0.01930  1.0000
  O   O5        1.0  0.87420  0.35480  0.51930  1.0000
  O   O6        1.0  0.64520  0.51940  0.51930  1.0000
  O   O7        1.0  0.20753  0.18607  0.68597  1.0000
  O   O8        1.0  0.81393  0.02147  0.68597  1.0000
  O   O9        1.0  0.81393  0.79247  0.18597  1.0000
  O   O10       1.0  0.97853  0.79247  0.68597  1.0000
  O   O11       1.0  0.20753  0.02147  0.18597  1.0000
  O   O12       1.0  0.97853  0.18607  0.18597  1.0000
  O   O13       1.0  0.54087  0.85273  0.35263  1.0000
  O   O14       1.0  0.14727  0.68813  0.35263  1.0000
  O   O15       1.0  0.14727  0.45913  0.85263  1.0000
  O   O16       1.0  0.31187  0.45913  0.35263  1.0000
  O   O17       1.0  0.54087  0.68813  0.85263  1.0000
  O   O18       1.0  0.31187  0.85273  0.85263  1.0000
  O   O19       1.0  0.87350  0.35790  0.97380  1.0000
  O   O20       1.0  0.64210  0.51560  0.97380  1.0000
  O   O21       1.0  0.64210  0.12650  0.47380  1.0000
  O   O22       1.0  0.48440  0.12650  0.97380  1.0000
  O   O23       1.0  0.87350  0.51560  0.47380  1.0000
  O   O24       1.0  0.48440  0.35790  0.47380  1.0000
  O   O25       1.0  0.20683  0.02457  0.64047  1.0000
  O   O26       1.0  0.97543  0.18227  0.64047  1.0000
  O   O27       1.0  0.97543  0.79317  0.14047  1.0000
  O   O28       1.0  0.81773  0.79317  0.64047  1.0000
  O   O29       1.0  0.20683  0.18227  0.14047  1.0000
  O   O30       1.0  0.81773  0.02457  0.14047  1.0000
  O   O31       1.0  0.54017  0.69123  0.30713  1.0000
  O   O32       1.0  0.30877  0.84893  0.30713  1.0000
  O   O33       1.0  0.30877  0.45983  0.80713  1.0000
  O   O34       1.0  0.15107  0.45983  0.30713  1.0000
  O   O35       1.0  0.54017  0.84893  0.80713  1.0000
  O   O36       1.0  0.15107  0.69123  0.80713  1.0000
  O   O37       1.0  0.35140  0.85380  0.97350  1.0000
  O   O38       1.0  0.14620  0.49760  0.97350  1.0000
  O   O39       1.0  0.14620  0.64860  0.47350  1.0000
  O   O40       1.0  0.50240  0.64860  0.97350  1.0000
  O   O41       1.0  0.35140  0.49760  0.47350  1.0000
  O   O42       1.0  0.50240  0.85380  0.47350  1.0000
  O   O43       1.0  0.68473  0.52047  0.64017  1.0000
  O   O44       1.0  0.47953  0.16427  0.64017  1.0000
  O   O45       1.0  0.47953  0.31527  0.14017  1.0000
  O   O46       1.0  0.83573  0.31527  0.64017  1.0000
  O   O47       1.0  0.68473  0.16427  0.14017  1.0000
  O   O48       1.0  0.83573  0.52047  0.14017  1.0000
  O   O49       1.0  0.01807  0.18713  0.30683  1.0000
  O   O50       1.0  0.81287  0.83093  0.30683  1.0000
  O   O51       1.0  0.81287  0.98193  0.80683  1.0000
  O   O52       1.0  0.16907  0.98193  0.30683  1.0000
  O   O53       1.0  0.01807  0.83093  0.80683  1.0000
  O   O54       1.0  0.16907  0.18713  0.80683  1.0000
  O   O55       1.0  0.50570  0.84690  0.01790  1.0000
  O   O56       1.0  0.15310  0.65880  0.01790  1.0000
  O   O57       1.0  0.15310  0.49430  0.51790  1.0000
  O   O58       1.0  0.34120  0.49430  0.01790  1.0000
  O   O59       1.0  0.50570  0.65880  0.51790  1.0000
  O   O60       1.0  0.34120  0.84690  0.51790  1.0000
  O   O61       1.0  0.83903  0.51357  0.68457  1.0000
  O   O62       1.0  0.48643  0.32547  0.68457  1.0000
  O   O63       1.0  0.48643  0.16097  0.18457  1.0000
  O   O64       1.0  0.67453  0.16097  0.68457  1.0000
  O   O65       1.0  0.83903  0.32547  0.18457  1.0000
  O   O66       1.0  0.67453  0.51357  0.18457  1.0000
  O   O67       1.0  0.17237  0.18023  0.35123  1.0000
  O   O68       1.0  0.81977  0.99213  0.35123  1.0000
  O   O69       1.0  0.81977  0.82763  0.85123  1.0000
  O   O70       1.0  0.00787  0.82763  0.35123  1.0000
  O   O71       1.0  0.17237  0.99213  0.85123  1.0000
  O   O72       1.0  0.00787  0.18023  0.85123  1.0000
  C   C1        1.0  0.54310  0.99130  0.00920  1.0000
  C   C2        1.0  0.00870  0.55180  0.00920  1.0000
  C   C3        1.0  0.00870  0.45690  0.50920  1.0000
  C   C4        1.0  0.44820  0.45690  0.00920  1.0000
  C   C5        1.0  0.54310  0.55180  0.50920  1.0000
  C   C6        1.0  0.44820  0.99130  0.50920  1.0000
  C   C7        1.0  0.87643  0.65797  0.67587  1.0000
  C   C8        1.0  0.34203  0.21847  0.67587  1.0000
  C   C9        1.0  0.34203  0.12357  0.17587  1.0000
  C   C10       1.0  0.78153  0.12357  0.67587  1.0000
  C   C11       1.0  0.87643  0.21847  0.17587  1.0000
  C   C12       1.0  0.78153  0.65797  0.17587  1.0000
  C   C13       1.0  0.20977  0.32463  0.34253  1.0000
  C   C14       1.0  0.67537  0.88513  0.34253  1.0000
  C   C15       1.0  0.67537  0.79023  0.84253  1.0000
  C   C16       1.0  0.11487  0.79023  0.34253  1.0000
  C   C17       1.0  0.20977  0.88513  0.84253  1.0000
  C   C18       1.0  0.11487  0.32463  0.84253  1.0000
  C   C19       1.0  0.45030  0.99060  0.98270  1.0000
  C   C20       1.0  0.00940  0.45970  0.98270  1.0000
  C   C21       1.0  0.00940  0.54970  0.48270  1.0000
  C   C22       1.0  0.54030  0.54970  0.98270  1.0000
  C   C23       1.0  0.45030  0.45970  0.48270  1.0000
  C   C24       1.0  0.54030  0.99060  0.48270  1.0000
  C   C25       1.0  0.78363  0.65727  0.64937  1.0000
  C   C26       1.0  0.34273  0.12637  0.64937  1.0000
  C   C27       1.0  0.34273  0.21637  0.14937  1.0000
  C   C28       1.0  0.87363  0.21637  0.64937  1.0000
  C   C29       1.0  0.78363  0.12637  0.14937  1.0000
  C   C30       1.0  0.87363  0.65727  0.14937  1.0000
  C   C31       1.0  0.11697  0.32393  0.31603  1.0000
  C   C32       1.0  0.67607  0.79303  0.31603  1.0000
  C   C33       1.0  0.67607  0.88303  0.81603  1.0000
  C   C34       1.0  0.20697  0.88303  0.31603  1.0000
  C   C35       1.0  0.11697  0.79303  0.81603  1.0000
  C   C36       1.0  0.20697  0.32393  0.81603  1.0000
