data_image0
_chemical_formula_structural       CoO10H4O2H4C8H2C2
_chemical_formula_sum              "Co1 O12 H10 C10"
_cell_length_a       7.278
_cell_length_b       9.752
_cell_length_c       11.257
_cell_angle_alpha    66.733
_cell_angle_beta     75.168
_cell_angle_gamma    83.359

_space_group_name_H-M_alt    "P 1"
_space_group_IT_number       1

loop_
  _space_group_symop_operation_xyz
  'x, y, z'

loop_
  _atom_site_type_symbol
  _atom_site_label
  _atom_site_symmetry_multiplicity
  _atom_site_fract_x
  _atom_site_fract_y
  _atom_site_fract_z
  _atom_site_occupancy
  Co  Co1       1.0  0.00000  0.00000  0.50000  1.0000
  O   O1        1.0  0.83110  0.19744  0.45730  1.0000
  O   O2        1.0  0.16890  0.80256  0.54270  1.0000
  O   O3        1.0  0.91910  0.28660  0.58976  1.0000
  O   O4        1.0  0.08090  0.71340  0.41024  1.0000
  O   O5        1.0  0.31430  0.21590  0.82962  1.0000
  O   O6        1.0  0.68570  0.78410  0.17038  1.0000
  O   O7        1.0  0.53040  0.10420  0.71890  1.0000
  O   O8        1.0  0.46960  0.89580  0.28110  1.0000
  O   O9        1.0  0.84310  0.93100  0.69373  1.0000
  O   O10       1.0  0.15690  0.06900  0.30627  1.0000
  H   H1        1.0  0.82900  0.83700  0.74800  1.0000
  H   H2        1.0  0.17100  0.16300  0.25200  1.0000
  H   H3        1.0  0.74200  0.97600  0.71800  1.0000
  H   H4        1.0  0.25800  0.02400  0.28200  1.0000
  O   O11       1.0  0.80630  0.90310  0.44473  1.0000
  O   O12       1.0  0.19370  0.09690  0.55527  1.0000
  H   H5        1.0  0.70500  0.86800  0.50400  1.0000
  H   H6        1.0  0.29500  0.13200  0.49600  1.0000
  H   H7        1.0  0.87600  0.83400  0.42500  1.0000
  H   H8        1.0  0.12400  0.16600  0.57500  1.0000
  C   C1        1.0  0.80990  0.28130  0.52270  1.0000
  C   C2        1.0  0.19010  0.71870  0.47730  1.0000
  C   C3        1.0  0.64370  0.39010  0.51180  1.0000
  C   C4        1.0  0.35630  0.60990  0.48820  1.0000
  C   C5        1.0  0.47410  0.36390  0.60920  1.0000
  C   C6        1.0  0.52590  0.63610  0.39080  1.0000
  C   C7        1.0  0.66770  0.52550  0.40340  1.0000
  C   C8        1.0  0.33230  0.47450  0.59660  1.0000
  H   H9        1.0  0.78270  0.54290  0.33670  1.0000
  H   H10       1.0  0.21730  0.45710  0.66330  1.0000
  C   C9        1.0  0.43960  0.21730  0.72780  1.0000
  C   C10       1.0  0.56040  0.78270  0.27220  1.0000
