data_image0
_chemical_formula_structural       Cd9Cl3O27H18N18C27H18C9
_chemical_formula_sum              "Cd9 Cl3 O27 H36 N18 C36"
_cell_length_a       14.6793
_cell_length_b       14.6793
_cell_length_c       9.5183
_cell_angle_alpha    90
_cell_angle_beta     90
_cell_angle_gamma    120

_space_group_name_H-M_alt    "P 1"
_space_group_IT_number       1

loop_
  _space_group_symop_operation_xyz
  'x, y, z'

loop_
  _atom_site_type_symbol
  _atom_site_label
  _atom_site_symmetry_multiplicity
  _atom_site_fract_x
  _atom_site_fract_y
  _atom_site_fract_z
  _atom_site_occupancy
  Cd  Cd1       1.0  0.57519  0.42481  0.66890  1.0000
  Cd  Cd2       1.0  0.57519  0.15037  0.66890  1.0000
  Cd  Cd3       1.0  0.84963  0.42481  0.66890  1.0000
  Cd  Cd4       1.0  0.24185  0.75815  0.00223  1.0000
  Cd  Cd5       1.0  0.24185  0.48371  0.00223  1.0000
  Cd  Cd6       1.0  0.51629  0.75815  0.00223  1.0000
  Cd  Cd7       1.0  0.90852  0.09148  0.33557  1.0000
  Cd  Cd8       1.0  0.90852  0.81704  0.33557  1.0000
  Cd  Cd9       1.0  0.18296  0.09148  0.33557  1.0000
  Cl  Cl1       1.0  0.66670  0.33330  0.53260  1.0000
  Cl  Cl2       1.0  0.33337  0.66663  0.86593  1.0000
  Cl  Cl3       1.0  0.00003  0.99997  0.19927  1.0000
  O   O1        1.0  0.46390  0.38690  0.47140  1.0000
  O   O2        1.0  0.61310  0.07700  0.47140  1.0000
  O   O3        1.0  0.92300  0.53610  0.47140  1.0000
  O   O4        1.0  0.61310  0.53610  0.47140  1.0000
  O   O5        1.0  0.92300  0.38690  0.47140  1.0000
  O   O6        1.0  0.46390  0.07700  0.47140  1.0000
  O   O7        1.0  0.13057  0.72023  0.80473  1.0000
  O   O8        1.0  0.27977  0.41033  0.80473  1.0000
  O   O9        1.0  0.58967  0.86943  0.80473  1.0000
  O   O10       1.0  0.27977  0.86943  0.80473  1.0000
  O   O11       1.0  0.58967  0.72023  0.80473  1.0000
  O   O12       1.0  0.13057  0.41033  0.80473  1.0000
  O   O13       1.0  0.79723  0.05357  0.13807  1.0000
  O   O14       1.0  0.94643  0.74367  0.13807  1.0000
  O   O15       1.0  0.25633  0.20277  0.13807  1.0000
  O   O16       1.0  0.94643  0.20277  0.13807  1.0000
  O   O17       1.0  0.25633  0.05357  0.13807  1.0000
  O   O18       1.0  0.79723  0.74367  0.13807  1.0000
  O   O19       1.0  0.49020  0.50980  0.75110  1.0000
  O   O20       1.0  0.49020  0.98040  0.75110  1.0000
  O   O21       1.0  0.01960  0.50980  0.75110  1.0000
  O   O22       1.0  0.15687  0.84313  0.08443  1.0000
  O   O23       1.0  0.15687  0.31373  0.08443  1.0000
  O   O24       1.0  0.68627  0.84313  0.08443  1.0000
  O   O25       1.0  0.82353  0.17647  0.41777  1.0000
  O   O26       1.0  0.82353  0.64707  0.41777  1.0000
  O   O27       1.0  0.35293  0.17647  0.41777  1.0000
  H   H1        1.0  0.51500  0.58500  0.74600  1.0000
  H   H2        1.0  0.41500  0.93000  0.74600  1.0000
  H   H3        1.0  0.07000  0.48500  0.74600  1.0000
  H   H4        1.0  0.41500  0.48500  0.74600  1.0000
  H   H5        1.0  0.07000  0.58500  0.74600  1.0000
  H   H6        1.0  0.51500  0.93000  0.74600  1.0000
  H   H7        1.0  0.18167  0.91833  0.07933  1.0000
  H   H8        1.0  0.08167  0.26333  0.07933  1.0000
  H   H9        1.0  0.73667  0.81833  0.07933  1.0000
  H   H10       1.0  0.08167  0.81833  0.07933  1.0000
  H   H11       1.0  0.73667  0.91833  0.07933  1.0000
  H   H12       1.0  0.18167  0.26333  0.07933  1.0000
  H   H13       1.0  0.84833  0.25167  0.41267  1.0000
  H   H14       1.0  0.74833  0.59667  0.41267  1.0000
  H   H15       1.0  0.40333  0.15167  0.41267  1.0000
  H   H16       1.0  0.74833  0.15167  0.41267  1.0000
  H   H17       1.0  0.40333  0.25167  0.41267  1.0000
  H   H18       1.0  0.84833  0.59667  0.41267  1.0000
  N   N1        1.0  0.38450  0.52160  0.13300  1.0000
  N   N2        1.0  0.47840  0.86290  0.13300  1.0000
  N   N3        1.0  0.13710  0.61550  0.13300  1.0000
  N   N4        1.0  0.47840  0.61550  0.13300  1.0000
  N   N5        1.0  0.13710  0.52160  0.13300  1.0000
  N   N6        1.0  0.38450  0.86290  0.13300  1.0000
  N   N7        1.0  0.05117  0.85493  0.46633  1.0000
  N   N8        1.0  0.14507  0.19623  0.46633  1.0000
  N   N9        1.0  0.80377  0.94883  0.46633  1.0000
  N   N10       1.0  0.14507  0.94883  0.46633  1.0000
  N   N11       1.0  0.80377  0.85493  0.46633  1.0000
  N   N12       1.0  0.05117  0.19623  0.46633  1.0000
  N   N13       1.0  0.71783  0.18827  0.79967  1.0000
  N   N14       1.0  0.81173  0.52957  0.79967  1.0000
  N   N15       1.0  0.47043  0.28217  0.79967  1.0000
  N   N16       1.0  0.81173  0.28217  0.79967  1.0000
  N   N17       1.0  0.47043  0.18827  0.79967  1.0000
  N   N18       1.0  0.71783  0.52957  0.79967  1.0000
  C   C1        1.0  0.48710  0.51290  0.29870  1.0000
  C   C2        1.0  0.48710  0.97420  0.29870  1.0000
  C   C3        1.0  0.02580  0.51290  0.29870  1.0000
  C   C4        1.0  0.15377  0.84623  0.63203  1.0000
  C   C5        1.0  0.15377  0.30753  0.63203  1.0000
  C   C6        1.0  0.69247  0.84623  0.63203  1.0000
  C   C7        1.0  0.82043  0.17957  0.96537  1.0000
  C   C8        1.0  0.82043  0.64087  0.96537  1.0000
  C   C9        1.0  0.35913  0.17957  0.96537  1.0000
  C   C10       1.0  0.38990  0.46090  0.23160  1.0000
  C   C11       1.0  0.53910  0.92900  0.23160  1.0000
  C   C12       1.0  0.07100  0.61010  0.23160  1.0000
  C   C13       1.0  0.53910  0.61010  0.23160  1.0000
  C   C14       1.0  0.07100  0.46090  0.23160  1.0000
  C   C15       1.0  0.38990  0.92900  0.23160  1.0000
  C   C16       1.0  0.05657  0.79423  0.56493  1.0000
  C   C17       1.0  0.20577  0.26233  0.56493  1.0000
  C   C18       1.0  0.73767  0.94343  0.56493  1.0000
  C   C19       1.0  0.20577  0.94343  0.56493  1.0000
  C   C20       1.0  0.73767  0.79423  0.56493  1.0000
  C   C21       1.0  0.05657  0.26233  0.56493  1.0000
  C   C22       1.0  0.72323  0.12757  0.89827  1.0000
  C   C23       1.0  0.87243  0.59567  0.89827  1.0000
  C   C24       1.0  0.40433  0.27677  0.89827  1.0000
  C   C25       1.0  0.87243  0.27677  0.89827  1.0000
  C   C26       1.0  0.40433  0.12757  0.89827  1.0000
  C   C27       1.0  0.72323  0.59567  0.89827  1.0000
  H   H19       1.0  0.33650  0.39320  0.25290  1.0000
  H   H20       1.0  0.60680  0.94330  0.25290  1.0000
  H   H21       1.0  0.05670  0.66350  0.25290  1.0000
  H   H22       1.0  0.60680  0.66350  0.25290  1.0000
  H   H23       1.0  0.05670  0.39320  0.25290  1.0000
  H   H24       1.0  0.33650  0.94330  0.25290  1.0000
  H   H25       1.0  0.00317  0.72653  0.58623  1.0000
  H   H26       1.0  0.27347  0.27663  0.58623  1.0000
  H   H27       1.0  0.72337  0.99683  0.58623  1.0000
  H   H28       1.0  0.27347  0.99683  0.58623  1.0000
  H   H29       1.0  0.72337  0.72653  0.58623  1.0000
  H   H30       1.0  0.00317  0.27663  0.58623  1.0000
  H   H31       1.0  0.66983  0.05987  0.91957  1.0000
  H   H32       1.0  0.94013  0.60997  0.91957  1.0000
  H   H33       1.0  0.39003  0.33017  0.91957  1.0000
  H   H34       1.0  0.94013  0.33017  0.91957  1.0000
  H   H35       1.0  0.39003  0.05987  0.91957  1.0000
  H   H36       1.0  0.66983  0.60997  0.91957  1.0000
  C   C28       1.0  0.52330  0.47670  0.41740  1.0000
  C   C29       1.0  0.52330  0.04660  0.41740  1.0000
  C   C30       1.0  0.95340  0.47670  0.41740  1.0000
  C   C31       1.0  0.18997  0.81003  0.75073  1.0000
  C   C32       1.0  0.18997  0.37993  0.75073  1.0000
  C   C33       1.0  0.62007  0.81003  0.75073  1.0000
  C   C34       1.0  0.85663  0.14337  0.08407  1.0000
  C   C35       1.0  0.85663  0.71327  0.08407  1.0000
  C   C36       1.0  0.28673  0.14337  0.08407  1.0000
