data_image0
_chemical_formula_structural       Mn4P4H4O24H8C4
_chemical_formula_sum              "Mn4 P4 H12 O24 C4"
_cell_length_a       5.616
_cell_length_b       15.431
_cell_length_c       9.445
_cell_angle_alpha    90
_cell_angle_beta     91.72
_cell_angle_gamma    90

_space_group_name_H-M_alt    "P 1"
_space_group_IT_number       1

loop_
  _space_group_symop_operation_xyz
  'x, y, z'

loop_
  _atom_site_type_symbol
  _atom_site_label
  _atom_site_symmetry_multiplicity
  _atom_site_fract_x
  _atom_site_fract_y
  _atom_site_fract_z
  _atom_site_occupancy
  Mn  Mn1       1.0  0.21529  0.66826  0.55653  1.0000
  Mn  Mn2       1.0  0.28471  0.16826  0.94347  1.0000
  Mn  Mn3       1.0  0.78471  0.33174  0.44347  1.0000
  Mn  Mn4       1.0  0.71529  0.83174  0.05653  1.0000
  P   P1        1.0  0.70743  0.69725  0.35161  1.0000
  P   P2        1.0  0.79257  0.19725  0.14839  1.0000
  P   P3        1.0  0.29257  0.30275  0.64839  1.0000
  P   P4        1.0  0.20743  0.80275  0.85161  1.0000
  H   H1        1.0  0.70993  0.60400  0.34803  1.0000
  H   H2        1.0  0.79007  0.10400  0.15197  1.0000
  H   H3        1.0  0.29007  0.39600  0.65197  1.0000
  H   H4        1.0  0.20993  0.89600  0.84803  1.0000
  O   O1        1.0  0.66300  0.72749  0.19952  1.0000
  O   O2        1.0  0.83700  0.22749  0.30048  1.0000
  O   O3        1.0  0.33700  0.27251  0.80048  1.0000
  O   O4        1.0  0.16300  0.77251  0.69952  1.0000
  O   O5        1.0  0.50690  0.72322  0.44733  1.0000
  O   O6        1.0  0.99310  0.22322  0.05267  1.0000
  O   O7        1.0  0.49310  0.27678  0.55267  1.0000
  O   O8        1.0  0.00690  0.77678  0.94733  1.0000
  O   O9        1.0  0.95370  0.72566  0.40694  1.0000
  O   O10       1.0  0.54630  0.22566  0.09306  1.0000
  O   O11       1.0  0.04630  0.27434  0.59306  1.0000
  O   O12       1.0  0.45370  0.77434  0.90694  1.0000
  O   O13       1.0  0.23450  0.55257  0.41746  1.0000
  O   O14       1.0  0.26550  0.05257  0.08254  1.0000
  O   O15       1.0  0.76550  0.44743  0.58254  1.0000
  O   O16       1.0  0.73450  0.94743  0.91746  1.0000
  O   O17       1.0  0.06740  0.42317  0.37042  1.0000
  O   O18       1.0  0.43260  0.92317  0.12958  1.0000
  O   O19       1.0  0.93260  0.57683  0.62958  1.0000
  O   O20       1.0  0.56740  0.07683  0.87042  1.0000
  O   O21       1.0  0.48220  0.62333  0.72732  1.0000
  O   O22       1.0  0.01780  0.12333  0.77268  1.0000
  O   O23       1.0  0.51780  0.37667  0.27268  1.0000
  O   O24       1.0  0.98220  0.87667  0.22732  1.0000
  H   H5        1.0  0.61000  0.60700  0.70300  1.0000
  H   H6        1.0  0.89000  0.10700  0.79700  1.0000
  H   H7        1.0  0.39000  0.39300  0.29700  1.0000
  H   H8        1.0  0.11000  0.89300  0.20300  1.0000
  H   H9        1.0  0.50700  0.66000  0.78300  1.0000
  H   H10       1.0  0.99300  0.16000  0.71700  1.0000
  H   H11       1.0  0.49300  0.34000  0.21700  1.0000
  H   H12       1.0  0.00700  0.84000  0.28300  1.0000
  C   C1        1.0  0.08710  0.49322  0.43890  1.0000
  C   C2        1.0  0.41290  0.99322  0.06110  1.0000
  C   C3        1.0  0.91290  0.50678  0.56110  1.0000
  C   C4        1.0  0.58710  0.00678  0.93890  1.0000
