data_image0
_chemical_formula_structural       Zn2Cl6O12C18
_chemical_formula_sum              "Zn2 Cl6 O12 C18"
_cell_length_a       13.752
_cell_length_b       13.752
_cell_length_c       9.195
_cell_angle_alpha    90
_cell_angle_beta     90
_cell_angle_gamma    120

_space_group_name_H-M_alt    "P 1"
_space_group_IT_number       1

loop_
  _space_group_symop_operation_xyz
  'x, y, z'

loop_
  _atom_site_type_symbol
  _atom_site_label
  _atom_site_symmetry_multiplicity
  _atom_site_fract_x
  _atom_site_fract_y
  _atom_site_fract_z
  _atom_site_occupancy
  Zn  Zn1       1.0  0.33330  0.66670  0.00000  1.0000
  Zn  Zn2       1.0  0.66670  0.33330  0.00000  1.0000
  Cl  Cl1       1.0  0.00000  0.33603  0.24392  1.0000
  Cl  Cl2       1.0  0.66397  0.66397  0.24392  1.0000
  Cl  Cl3       1.0  0.33603  0.00000  0.24392  1.0000
  Cl  Cl4       1.0  0.00000  0.66397  0.75608  1.0000
  Cl  Cl5       1.0  0.33603  0.33603  0.75608  1.0000
  Cl  Cl6       1.0  0.66397  0.00000  0.75608  1.0000
  O   O1        1.0  0.19630  0.53830  0.11220  1.0000
  O   O2        1.0  0.46170  0.65800  0.11220  1.0000
  O   O3        1.0  0.34200  0.80370  0.11220  1.0000
  O   O4        1.0  0.19630  0.65800  0.88780  1.0000
  O   O5        1.0  0.34200  0.53830  0.88780  1.0000
  O   O6        1.0  0.46170  0.80370  0.88780  1.0000
  O   O7        1.0  0.80370  0.46170  0.88780  1.0000
  O   O8        1.0  0.53830  0.34200  0.88780  1.0000
  O   O9        1.0  0.65800  0.19630  0.88780  1.0000
  O   O10       1.0  0.80370  0.34200  0.11220  1.0000
  O   O11       1.0  0.65800  0.46170  0.11220  1.0000
  O   O12       1.0  0.53830  0.19630  0.11220  1.0000
  C   C1        1.0  0.10210  0.51360  0.06270  1.0000
  C   C2        1.0  0.48640  0.58850  0.06270  1.0000
  C   C3        1.0  0.41150  0.89790  0.06270  1.0000
  C   C4        1.0  0.10210  0.58850  0.93730  1.0000
  C   C5        1.0  0.41150  0.51360  0.93730  1.0000
  C   C6        1.0  0.48640  0.89790  0.93730  1.0000
  C   C7        1.0  0.89790  0.48640  0.93730  1.0000
  C   C8        1.0  0.51360  0.41150  0.93730  1.0000
  C   C9        1.0  0.58850  0.10210  0.93730  1.0000
  C   C10       1.0  0.89790  0.41150  0.06270  1.0000
  C   C11       1.0  0.58850  0.48640  0.06270  1.0000
  C   C12       1.0  0.51360  0.10210  0.06270  1.0000
  C   C13       1.0  0.00000  0.42570  0.11070  1.0000
  C   C14       1.0  0.57430  0.57430  0.11070  1.0000
  C   C15       1.0  0.42570  0.00000  0.11070  1.0000
  C   C16       1.0  0.00000  0.57430  0.88930  1.0000
  C   C17       1.0  0.42570  0.42570  0.88930  1.0000
  C   C18       1.0  0.57430  0.00000  0.88930  1.0000
