data_image0
_chemical_formula_structural       Cu2Cl6C18O12
_chemical_formula_sum              "Cu2 Cl6 C18 O12"
_cell_length_a       13.7565
_cell_length_b       13.7565
_cell_length_c       9.1544
_cell_angle_alpha    90
_cell_angle_beta     90
_cell_angle_gamma    120

_space_group_name_H-M_alt    "P 1"
_space_group_IT_number       1

loop_
  _space_group_symop_operation_xyz
  'x, y, z'

loop_
  _atom_site_type_symbol
  _atom_site_label
  _atom_site_symmetry_multiplicity
  _atom_site_fract_x
  _atom_site_fract_y
  _atom_site_fract_z
  _atom_site_occupancy
  Cu  Cu1       1.0  0.66670  0.33330  0.00000  1.0000
  Cu  Cu2       1.0  0.33330  0.66670  0.00000  1.0000
  Cl  Cl1       1.0  0.33545  0.00000  0.75770  1.0000
  Cl  Cl2       1.0  0.00000  0.33545  0.75770  1.0000
  Cl  Cl3       1.0  0.66455  0.66455  0.75770  1.0000
  Cl  Cl4       1.0  0.33545  0.33545  0.24230  1.0000
  Cl  Cl5       1.0  0.66455  0.00000  0.24230  1.0000
  Cl  Cl6       1.0  0.00000  0.66455  0.24230  1.0000
  C   C1        1.0  0.51350  0.10240  0.93850  1.0000
  C   C2        1.0  0.89760  0.41110  0.93850  1.0000
  C   C3        1.0  0.58890  0.48650  0.93850  1.0000
  C   C4        1.0  0.51350  0.41110  0.06150  1.0000
  C   C5        1.0  0.58890  0.10240  0.06150  1.0000
  C   C6        1.0  0.89760  0.48650  0.06150  1.0000
  C   C7        1.0  0.48650  0.89760  0.06150  1.0000
  C   C8        1.0  0.10240  0.58890  0.06150  1.0000
  C   C9        1.0  0.41110  0.51350  0.06150  1.0000
  C   C10       1.0  0.48650  0.58890  0.93850  1.0000
  C   C11       1.0  0.41110  0.89760  0.93850  1.0000
  C   C12       1.0  0.10240  0.51350  0.93850  1.0000
  C   C13       1.0  0.42580  0.00000  0.88930  1.0000
  C   C14       1.0  0.00000  0.42580  0.88930  1.0000
  C   C15       1.0  0.57420  0.57420  0.88930  1.0000
  C   C16       1.0  0.42580  0.42580  0.11070  1.0000
  C   C17       1.0  0.57420  0.00000  0.11070  1.0000
  C   C18       1.0  0.00000  0.57420  0.11070  1.0000
  O   O1        1.0  0.53740  0.19685  0.88960  1.0000
  O   O2        1.0  0.80315  0.34055  0.88960  1.0000
  O   O3        1.0  0.65945  0.46260  0.88960  1.0000
  O   O4        1.0  0.53740  0.34055  0.11040  1.0000
  O   O5        1.0  0.65945  0.19685  0.11040  1.0000
  O   O6        1.0  0.80315  0.46260  0.11040  1.0000
  O   O7        1.0  0.46260  0.80315  0.11040  1.0000
  O   O8        1.0  0.19685  0.65945  0.11040  1.0000
  O   O9        1.0  0.34055  0.53740  0.11040  1.0000
  O   O10       1.0  0.46260  0.65945  0.88960  1.0000
  O   O11       1.0  0.34055  0.80315  0.88960  1.0000
  O   O12       1.0  0.19685  0.53740  0.88960  1.0000
