data_image0
_chemical_formula_structural       Co2Cl6O12C18
_chemical_formula_sum              "Co2 Cl6 O12 C18"
_cell_length_a       13.793
_cell_length_b       13.793
_cell_length_c       9.131
_cell_angle_alpha    90
_cell_angle_beta     90
_cell_angle_gamma    120

_space_group_name_H-M_alt    "P 1"
_space_group_IT_number       1

loop_
  _space_group_symop_operation_xyz
  'x, y, z'

loop_
  _atom_site_type_symbol
  _atom_site_label
  _atom_site_symmetry_multiplicity
  _atom_site_fract_x
  _atom_site_fract_y
  _atom_site_fract_z
  _atom_site_occupancy
  Co  Co1       1.0  0.66670  0.33330  0.00000  1.0000
  Co  Co2       1.0  0.33330  0.66670  0.00000  1.0000
  Cl  Cl1       1.0  0.33499  0.00000  0.24295  1.0000
  Cl  Cl2       1.0  0.00000  0.33499  0.24295  1.0000
  Cl  Cl3       1.0  0.66501  0.66501  0.24295  1.0000
  Cl  Cl4       1.0  0.33499  0.33499  0.75705  1.0000
  Cl  Cl5       1.0  0.66501  0.00000  0.75705  1.0000
  Cl  Cl6       1.0  0.00000  0.66501  0.75705  1.0000
  O   O1        1.0  0.53670  0.19680  0.11020  1.0000
  O   O2        1.0  0.80320  0.33990  0.11020  1.0000
  O   O3        1.0  0.66010  0.46330  0.11020  1.0000
  O   O4        1.0  0.53670  0.33990  0.88980  1.0000
  O   O5        1.0  0.66010  0.19680  0.88980  1.0000
  O   O6        1.0  0.80320  0.46330  0.88980  1.0000
  O   O7        1.0  0.46330  0.80320  0.88980  1.0000
  O   O8        1.0  0.19680  0.66010  0.88980  1.0000
  O   O9        1.0  0.33990  0.53670  0.88980  1.0000
  O   O10       1.0  0.46330  0.66010  0.11020  1.0000
  O   O11       1.0  0.33990  0.80320  0.11020  1.0000
  O   O12       1.0  0.19680  0.53670  0.11020  1.0000
  C   C1        1.0  0.51370  0.10230  0.06150  1.0000
  C   C2        1.0  0.89770  0.41140  0.06150  1.0000
  C   C3        1.0  0.58860  0.48630  0.06150  1.0000
  C   C4        1.0  0.51370  0.41140  0.93850  1.0000
  C   C5        1.0  0.58860  0.10230  0.93850  1.0000
  C   C6        1.0  0.89770  0.48630  0.93850  1.0000
  C   C7        1.0  0.48630  0.89770  0.93850  1.0000
  C   C8        1.0  0.10230  0.58860  0.93850  1.0000
  C   C9        1.0  0.41140  0.51370  0.93850  1.0000
  C   C10       1.0  0.48630  0.58860  0.06150  1.0000
  C   C11       1.0  0.41140  0.89770  0.06150  1.0000
  C   C12       1.0  0.10230  0.51370  0.06150  1.0000
  C   C13       1.0  0.42610  0.00000  0.11240  1.0000
  C   C14       1.0  0.00000  0.42610  0.11240  1.0000
  C   C15       1.0  0.57390  0.57390  0.11240  1.0000
  C   C16       1.0  0.42610  0.42610  0.88760  1.0000
  C   C17       1.0  0.57390  0.00000  0.88760  1.0000
  C   C18       1.0  0.00000  0.57390  0.88760  1.0000
