data_image0
_chemical_formula_structural       Cd8N32H8N8H8N8H8C32H16C8H16C8H16C40H8C8H8C16H8C8H8C16H8C8H8C16H8C8H8C16H8C8H8C16H8C8H8O48
_chemical_formula_sum              "Cd8 N48 H168 C216 O48"
_cell_length_a       29.28
_cell_length_b       14.524
_cell_length_c       20.084
_cell_angle_alpha    90
_cell_angle_beta     115.414
_cell_angle_gamma    90

_space_group_name_H-M_alt    "P 1"
_space_group_IT_number       1

loop_
  _space_group_symop_operation_xyz
  'x, y, z'

loop_
  _atom_site_type_symbol
  _atom_site_label
  _atom_site_symmetry_multiplicity
  _atom_site_fract_x
  _atom_site_fract_y
  _atom_site_fract_z
  _atom_site_occupancy
  Cd  Cd1       1.0  0.13443  0.48068  0.28729  1.0000
  Cd  Cd2       1.0  0.86557  0.48068  0.21271  1.0000
  Cd  Cd3       1.0  0.63443  0.98068  0.28729  1.0000
  Cd  Cd4       1.0  0.36557  0.98068  0.21271  1.0000
  Cd  Cd5       1.0  0.86557  0.51932  0.71271  1.0000
  Cd  Cd6       1.0  0.13443  0.51932  0.78729  1.0000
  Cd  Cd7       1.0  0.36557  0.01932  0.71271  1.0000
  Cd  Cd8       1.0  0.63443  0.01932  0.78729  1.0000
  N   N1        1.0  0.77380  0.33420  0.78820  1.0000
  N   N2        1.0  0.22620  0.33420  0.71180  1.0000
  N   N3        1.0  0.27380  0.83420  0.78820  1.0000
  N   N4        1.0  0.72620  0.83420  0.71180  1.0000
  N   N5        1.0  0.22620  0.66580  0.21180  1.0000
  N   N6        1.0  0.77380  0.66580  0.28820  1.0000
  N   N7        1.0  0.72620  0.16580  0.21180  1.0000
  N   N8        1.0  0.27380  0.16580  0.28820  1.0000
  N   N9        1.0  0.79917  0.45690  0.73160  1.0000
  N   N10       1.0  0.20083  0.45690  0.76840  1.0000
  N   N11       1.0  0.29917  0.95690  0.73160  1.0000
  N   N12       1.0  0.70083  0.95690  0.76840  1.0000
  N   N13       1.0  0.20083  0.54310  0.26840  1.0000
  N   N14       1.0  0.79917  0.54310  0.23160  1.0000
  N   N15       1.0  0.70083  0.04310  0.26840  1.0000
  N   N16       1.0  0.29917  0.04310  0.23160  1.0000
  N   N17       1.0  0.71633  0.38950  0.67010  1.0000
  N   N18       1.0  0.28367  0.38950  0.82990  1.0000
  N   N19       1.0  0.21633  0.88950  0.67010  1.0000
  N   N20       1.0  0.78367  0.88950  0.82990  1.0000
  N   N21       1.0  0.28367  0.61050  0.32990  1.0000
  N   N22       1.0  0.71633  0.61050  0.17010  1.0000
  N   N23       1.0  0.78367  0.11050  0.32990  1.0000
  N   N24       1.0  0.21633  0.11050  0.17010  1.0000
  N   N25       1.0  0.85260  0.40100  0.84700  1.0000
  N   N26       1.0  0.14740  0.40100  0.65300  1.0000
  N   N27       1.0  0.35260  0.90100  0.84700  1.0000
  N   N28       1.0  0.64740  0.90100  0.65300  1.0000
  N   N29       1.0  0.14740  0.59900  0.15300  1.0000
  N   N30       1.0  0.85260  0.59900  0.34700  1.0000
  N   N31       1.0  0.64740  0.09900  0.15300  1.0000
  N   N32       1.0  0.35260  0.09900  0.34700  1.0000
  H   H1        1.0  0.87420  0.44190  0.84810  1.0000
  H   H2        1.0  0.12580  0.44190  0.65190  1.0000
  H   H3        1.0  0.37420  0.94190  0.84810  1.0000
  H   H4        1.0  0.62580  0.94190  0.65190  1.0000
  H   H5        1.0  0.12580  0.55810  0.15190  1.0000
  H   H6        1.0  0.87420  0.55810  0.34810  1.0000
  H   H7        1.0  0.62580  0.05810  0.15190  1.0000
  H   H8        1.0  0.37420  0.05810  0.34810  1.0000
  N   N33       1.0  0.69430  0.27330  0.72610  1.0000
  N   N34       1.0  0.30570  0.27330  0.77390  1.0000
  N   N35       1.0  0.19430  0.77330  0.72610  1.0000
  N   N36       1.0  0.80570  0.77330  0.77390  1.0000
  N   N37       1.0  0.30570  0.72670  0.27390  1.0000
  N   N38       1.0  0.69430  0.72670  0.22610  1.0000
  N   N39       1.0  0.80570  0.22670  0.27390  1.0000
  N   N40       1.0  0.19430  0.22670  0.22610  1.0000
  H   H9        1.0  0.70160  0.23670  0.76290  1.0000
  H   H10       1.0  0.29840  0.23670  0.73710  1.0000
  H   H11       1.0  0.20160  0.73670  0.76290  1.0000
  H   H12       1.0  0.79840  0.73670  0.73710  1.0000
  H   H13       1.0  0.29840  0.76330  0.23710  1.0000
  H   H14       1.0  0.70160  0.76330  0.26290  1.0000
  H   H15       1.0  0.79840  0.26330  0.23710  1.0000
  H   H16       1.0  0.20160  0.26330  0.26290  1.0000
  N   N41       1.0  0.73960  0.51110  0.61890  1.0000
  N   N42       1.0  0.26040  0.51110  0.88110  1.0000
  N   N43       1.0  0.23960  0.01110  0.61890  1.0000
  N   N44       1.0  0.76040  0.01110  0.88110  1.0000
  N   N45       1.0  0.26040  0.48890  0.38110  1.0000
  N   N46       1.0  0.73960  0.48890  0.11890  1.0000
  N   N47       1.0  0.76040  0.98890  0.38110  1.0000
  N   N48       1.0  0.23960  0.98890  0.11890  1.0000
  H   H17       1.0  0.75800  0.55920  0.62420  1.0000
  H   H18       1.0  0.24200  0.55920  0.87580  1.0000
  H   H19       1.0  0.25800  0.05920  0.62420  1.0000
  H   H20       1.0  0.74200  0.05920  0.87580  1.0000
  H   H21       1.0  0.24200  0.44080  0.37580  1.0000
  H   H22       1.0  0.75800  0.44080  0.12420  1.0000
  H   H23       1.0  0.74200  0.94080  0.37580  1.0000
  H   H24       1.0  0.25800  0.94080  0.12420  1.0000
  C   C1        1.0  0.80730  0.39560  0.78780  1.0000
  C   C2        1.0  0.19270  0.39560  0.71220  1.0000
  C   C3        1.0  0.30730  0.89560  0.78780  1.0000
  C   C4        1.0  0.69270  0.89560  0.71220  1.0000
  C   C5        1.0  0.19270  0.60440  0.21220  1.0000
  C   C6        1.0  0.80730  0.60440  0.28780  1.0000
  C   C7        1.0  0.69270  0.10440  0.21220  1.0000
  C   C8        1.0  0.30730  0.10440  0.28780  1.0000
  C   C9        1.0  0.72990  0.33380  0.72800  1.0000
  C   C10       1.0  0.27010  0.33380  0.77200  1.0000
  C   C11       1.0  0.22990  0.83380  0.72800  1.0000
  C   C12       1.0  0.77010  0.83380  0.77200  1.0000
  C   C13       1.0  0.27010  0.66620  0.27200  1.0000
  C   C14       1.0  0.72990  0.66620  0.22800  1.0000
  C   C15       1.0  0.77010  0.16620  0.27200  1.0000
  C   C16       1.0  0.22990  0.16620  0.22800  1.0000
  C   C17       1.0  0.75230  0.44900  0.67480  1.0000
  C   C18       1.0  0.24770  0.44900  0.82520  1.0000
  C   C19       1.0  0.25230  0.94900  0.67480  1.0000
  C   C20       1.0  0.74770  0.94900  0.82520  1.0000
  C   C21       1.0  0.24770  0.55100  0.32520  1.0000
  C   C22       1.0  0.75230  0.55100  0.17480  1.0000
  C   C23       1.0  0.74770  0.05100  0.32520  1.0000
  C   C24       1.0  0.25230  0.05100  0.17480  1.0000
  C   C25       1.0  0.86510  0.33840  0.90860  1.0000
  C   C26       1.0  0.13490  0.33840  0.59140  1.0000
  C   C27       1.0  0.36510  0.83840  0.90860  1.0000
  C   C28       1.0  0.63490  0.83840  0.59140  1.0000
  C   C29       1.0  0.13490  0.66160  0.09140  1.0000
  C   C30       1.0  0.86510  0.66160  0.40860  1.0000
  C   C31       1.0  0.63490  0.16160  0.09140  1.0000
  C   C32       1.0  0.36510  0.16160  0.40860  1.0000
  H   H25       1.0  0.83810  0.33850  0.92450  1.0000
  H   H26       1.0  0.16190  0.33850  0.57550  1.0000
  H   H27       1.0  0.33810  0.83850  0.92450  1.0000
  H   H28       1.0  0.66190  0.83850  0.57550  1.0000
  H   H29       1.0  0.16190  0.66150  0.07550  1.0000
  H   H30       1.0  0.83810  0.66150  0.42450  1.0000
  H   H31       1.0  0.66190  0.16150  0.07550  1.0000
  H   H32       1.0  0.33810  0.16150  0.42450  1.0000
  H   H33       1.0  0.86850  0.27630  0.89340  1.0000
  H   H34       1.0  0.13150  0.27630  0.60660  1.0000
  H   H35       1.0  0.36850  0.77630  0.89340  1.0000
  H   H36       1.0  0.63150  0.77630  0.60660  1.0000
  H   H37       1.0  0.13150  0.72370  0.10660  1.0000
  H   H38       1.0  0.86850  0.72370  0.39340  1.0000
  H   H39       1.0  0.63150  0.22370  0.10660  1.0000
  H   H40       1.0  0.36850  0.22370  0.39340  1.0000
  C   C33       1.0  0.64430  0.26690  0.66500  1.0000
  C   C34       1.0  0.35570  0.26690  0.83500  1.0000
  C   C35       1.0  0.14430  0.76690  0.66500  1.0000
  C   C36       1.0  0.85570  0.76690  0.83500  1.0000
  C   C37       1.0  0.35570  0.73310  0.33500  1.0000
  C   C38       1.0  0.64430  0.73310  0.16500  1.0000
  C   C39       1.0  0.85570  0.23310  0.33500  1.0000
  C   C40       1.0  0.14430  0.23310  0.16500  1.0000
  H   H41       1.0  0.62260  0.23020  0.68000  1.0000
  H   H42       1.0  0.37740  0.23020  0.82000  1.0000
  H   H43       1.0  0.12260  0.73020  0.68000  1.0000
  H   H44       1.0  0.87740  0.73020  0.82000  1.0000
  H   H45       1.0  0.37740  0.76980  0.32000  1.0000
  H   H46       1.0  0.62260  0.76980  0.18000  1.0000
  H   H47       1.0  0.87740  0.26980  0.32000  1.0000
  H   H48       1.0  0.12260  0.26980  0.18000  1.0000
  H   H49       1.0  0.62980  0.32800  0.65270  1.0000
  H   H50       1.0  0.37020  0.32800  0.84730  1.0000
  H   H51       1.0  0.12980  0.82800  0.65270  1.0000
  H   H52       1.0  0.87020  0.82800  0.84730  1.0000
  H   H53       1.0  0.37020  0.67200  0.34730  1.0000
  H   H54       1.0  0.62980  0.67200  0.15270  1.0000
  H   H55       1.0  0.87020  0.17200  0.34730  1.0000
  H   H56       1.0  0.12980  0.17200  0.15270  1.0000
  C   C41       1.0  0.69490  0.49600  0.55030  1.0000
  C   C42       1.0  0.30510  0.49600  0.94970  1.0000
  C   C43       1.0  0.19490  0.99600  0.55030  1.0000
  C   C44       1.0  0.80510  0.99600  0.94970  1.0000
  C   C45       1.0  0.30510  0.50400  0.44970  1.0000
  C   C46       1.0  0.69490  0.50400  0.05030  1.0000
  C   C47       1.0  0.80510  0.00400  0.44970  1.0000
  C   C48       1.0  0.19490  0.00400  0.05030  1.0000
  H   H57       1.0  0.69960  0.44110  0.52630  1.0000
  H   H58       1.0  0.30040  0.44110  0.97370  1.0000
  H   H59       1.0  0.19960  0.94110  0.52630  1.0000
  H   H60       1.0  0.80040  0.94110  0.97370  1.0000
  H   H61       1.0  0.30040  0.55890  0.47370  1.0000
  H   H62       1.0  0.69960  0.55890  0.02630  1.0000
  H   H63       1.0  0.80040  0.05890  0.47370  1.0000
  H   H64       1.0  0.19960  0.05890  0.02630  1.0000
  H   H65       1.0  0.66590  0.48600  0.56080  1.0000
  H   H66       1.0  0.33410  0.48600  0.93920  1.0000
  H   H67       1.0  0.16590  0.98600  0.56080  1.0000
  H   H68       1.0  0.83410  0.98600  0.93920  1.0000
  H   H69       1.0  0.33410  0.51400  0.43920  1.0000
  H   H70       1.0  0.66590  0.51400  0.06080  1.0000
  H   H71       1.0  0.83410  0.01400  0.43920  1.0000
  H   H72       1.0  0.16590  0.01400  0.06080  1.0000
  C   C49       1.0  0.04820  0.45600  0.16050  1.0000
  C   C50       1.0  0.95180  0.45600  0.33950  1.0000
  C   C51       1.0  0.54820  0.95600  0.16050  1.0000
  C   C52       1.0  0.45180  0.95600  0.33950  1.0000
  C   C53       1.0  0.95180  0.54400  0.83950  1.0000
  C   C54       1.0  0.04820  0.54400  0.66050  1.0000
  C   C55       1.0  0.45180  0.04400  0.83950  1.0000
  C   C56       1.0  0.54820  0.04400  0.66050  1.0000
  C   C57       1.0  0.64310  0.09260  0.40330  1.0000
  C   C58       1.0  0.35690  0.09260  0.09670  1.0000
  C   C59       1.0  0.14310  0.59260  0.40330  1.0000
  C   C60       1.0  0.85690  0.59260  0.09670  1.0000
  C   C61       1.0  0.35690  0.90740  0.59670  1.0000
  C   C62       1.0  0.64310  0.90740  0.90330  1.0000
  C   C63       1.0  0.85690  0.40740  0.59670  1.0000
  C   C64       1.0  0.14310  0.40740  0.90330  1.0000
  C   C65       1.0  0.64990  0.80830  0.35180  1.0000
  C   C66       1.0  0.35010  0.80830  0.14820  1.0000
  C   C67       1.0  0.14990  0.30830  0.35180  1.0000
  C   C68       1.0  0.85010  0.30830  0.14820  1.0000
  C   C69       1.0  0.35010  0.19170  0.64820  1.0000
  C   C70       1.0  0.64990  0.19170  0.85180  1.0000
  C   C71       1.0  0.85010  0.69170  0.64820  1.0000
  C   C72       1.0  0.14990  0.69170  0.85180  1.0000
  C   C73       1.0  0.91470  0.36780  0.97270  1.0000
  C   C74       1.0  0.08530  0.36780  0.52730  1.0000
  C   C75       1.0  0.41470  0.86780  0.97270  1.0000
  C   C76       1.0  0.58530  0.86780  0.52730  1.0000
  C   C77       1.0  0.08530  0.63220  0.02730  1.0000
  C   C78       1.0  0.91470  0.63220  0.47270  1.0000
  C   C79       1.0  0.58530  0.13220  0.02730  1.0000
  C   C80       1.0  0.41470  0.13220  0.47270  1.0000
  C   C81       1.0  0.96170  0.35530  0.97540  1.0000
  C   C82       1.0  0.03830  0.35530  0.52460  1.0000
  C   C83       1.0  0.46170  0.85530  0.97540  1.0000
  C   C84       1.0  0.53830  0.85530  0.52460  1.0000
  C   C85       1.0  0.03830  0.64470  0.02460  1.0000
  C   C86       1.0  0.96170  0.64470  0.47540  1.0000
  C   C87       1.0  0.53830  0.14470  0.02460  1.0000
  C   C88       1.0  0.46170  0.14470  0.47540  1.0000
  H   H73       1.0  0.96420  0.32680  0.93560  1.0000
  H   H74       1.0  0.03580  0.32680  0.56440  1.0000
  H   H75       1.0  0.46420  0.82680  0.93560  1.0000
  H   H76       1.0  0.53580  0.82680  0.56440  1.0000
  H   H77       1.0  0.03580  0.67320  0.06440  1.0000
  H   H78       1.0  0.96420  0.67320  0.43560  1.0000
  H   H79       1.0  0.53580  0.17320  0.06440  1.0000
  H   H80       1.0  0.46420  0.17320  0.43560  1.0000
  C   C89       1.0  0.00560  0.38250  0.03410  1.0000
  C   C90       1.0  0.99440  0.38250  0.46590  1.0000
  C   C91       1.0  0.50560  0.88250  0.03410  1.0000
  C   C92       1.0  0.49440  0.88250  0.46590  1.0000
  C   C93       1.0  0.99440  0.61750  0.96590  1.0000
  C   C94       1.0  0.00560  0.61750  0.53410  1.0000
  C   C95       1.0  0.49440  0.11750  0.96590  1.0000
  C   C96       1.0  0.50560  0.11750  0.53410  1.0000
  H   H81       1.0  0.03710  0.37190  0.03460  1.0000
  H   H82       1.0  0.96290  0.37190  0.46540  1.0000
  H   H83       1.0  0.53710  0.87190  0.03460  1.0000
  H   H84       1.0  0.46290  0.87190  0.46540  1.0000
  H   H85       1.0  0.96290  0.62810  0.96540  1.0000
  H   H86       1.0  0.03710  0.62810  0.53460  1.0000
  H   H87       1.0  0.46290  0.12810  0.96540  1.0000
  H   H88       1.0  0.53710  0.12810  0.53460  1.0000
  C   C97       1.0  0.00080  0.42720  0.09350  1.0000
  C   C98       1.0  0.99920  0.42720  0.40650  1.0000
  C   C99       1.0  0.50080  0.92720  0.09350  1.0000
  C   C100      1.0  0.49920  0.92720  0.40650  1.0000
  C   C101      1.0  0.99920  0.57280  0.90650  1.0000
  C   C102      1.0  0.00080  0.57280  0.59350  1.0000
  C   C103      1.0  0.49920  0.07280  0.90650  1.0000
  C   C104      1.0  0.50080  0.07280  0.59350  1.0000
  C   C105      1.0  0.95450  0.44340  0.09080  1.0000
  C   C106      1.0  0.04550  0.44340  0.40920  1.0000
  C   C107      1.0  0.45450  0.94340  0.09080  1.0000
  C   C108      1.0  0.54550  0.94340  0.40920  1.0000
  C   C109      1.0  0.04550  0.55660  0.90920  1.0000
  C   C110      1.0  0.95450  0.55660  0.59080  1.0000
  C   C111      1.0  0.54550  0.05660  0.90920  1.0000
  C   C112      1.0  0.45450  0.05660  0.59080  1.0000
  H   H89       1.0  0.95180  0.47510  0.12920  1.0000
  H   H90       1.0  0.04820  0.47510  0.37080  1.0000
  H   H91       1.0  0.45180  0.97510  0.12920  1.0000
  H   H92       1.0  0.54820  0.97510  0.37080  1.0000
  H   H93       1.0  0.04820  0.52490  0.87080  1.0000
  H   H94       1.0  0.95180  0.52490  0.62920  1.0000
  H   H95       1.0  0.54820  0.02490  0.87080  1.0000
  H   H96       1.0  0.45180  0.02490  0.62920  1.0000
  C   C113      1.0  0.91110  0.41340  0.03180  1.0000
  C   C114      1.0  0.08890  0.41340  0.46820  1.0000
  C   C115      1.0  0.41110  0.91340  0.03180  1.0000
  C   C116      1.0  0.58890  0.91340  0.46820  1.0000
  C   C117      1.0  0.08890  0.58660  0.96820  1.0000
  C   C118      1.0  0.91110  0.58660  0.53180  1.0000
  C   C119      1.0  0.58890  0.08660  0.96820  1.0000
  C   C120      1.0  0.41110  0.08660  0.53180  1.0000
  H   H97       1.0  0.87960  0.42350  0.03130  1.0000
  H   H98       1.0  0.12040  0.42350  0.46870  1.0000
  H   H99       1.0  0.37960  0.92350  0.03130  1.0000
  H   H100      1.0  0.62040  0.92350  0.46870  1.0000
  H   H101      1.0  0.12040  0.57650  0.96870  1.0000
  H   H102      1.0  0.87960  0.57650  0.53130  1.0000
  H   H103      1.0  0.62040  0.07650  0.96870  1.0000
  H   H104      1.0  0.37960  0.07650  0.53130  1.0000
  C   C121      1.0  0.64620  0.22360  0.59710  1.0000
  C   C122      1.0  0.35380  0.22360  0.90290  1.0000
  C   C123      1.0  0.14620  0.72360  0.59710  1.0000
  C   C124      1.0  0.85380  0.72360  0.90290  1.0000
  C   C125      1.0  0.35380  0.77640  0.40290  1.0000
  C   C126      1.0  0.64620  0.77640  0.09710  1.0000
  C   C127      1.0  0.85380  0.27640  0.40290  1.0000
  C   C128      1.0  0.14620  0.27640  0.09710  1.0000
  C   C129      1.0  0.67110  0.14060  0.60130  1.0000
  C   C130      1.0  0.32890  0.14060  0.89870  1.0000
  C   C131      1.0  0.17110  0.64060  0.60130  1.0000
  C   C132      1.0  0.82890  0.64060  0.89870  1.0000
  C   C133      1.0  0.32890  0.85940  0.39870  1.0000
  C   C134      1.0  0.67110  0.85940  0.10130  1.0000
  C   C135      1.0  0.82890  0.35940  0.39870  1.0000
  C   C136      1.0  0.17110  0.35940  0.10130  1.0000
  H   H105      1.0  0.68850  0.11220  0.64680  1.0000
  H   H106      1.0  0.31150  0.11220  0.85320  1.0000
  H   H107      1.0  0.18850  0.61220  0.64680  1.0000
  H   H108      1.0  0.81150  0.61220  0.85320  1.0000
  H   H109      1.0  0.31150  0.88780  0.35320  1.0000
  H   H110      1.0  0.68850  0.88780  0.14680  1.0000
  H   H111      1.0  0.81150  0.38780  0.35320  1.0000
  H   H112      1.0  0.18850  0.38780  0.14680  1.0000
  C   C137      1.0  0.67030  0.10060  0.53960  1.0000
  C   C138      1.0  0.32970  0.10060  0.96040  1.0000
  C   C139      1.0  0.17030  0.60060  0.53960  1.0000
  C   C140      1.0  0.82970  0.60060  0.96040  1.0000
  C   C141      1.0  0.32970  0.89940  0.46040  1.0000
  C   C142      1.0  0.67030  0.89940  0.03960  1.0000
  C   C143      1.0  0.82970  0.39940  0.46040  1.0000
  C   C144      1.0  0.17030  0.39940  0.03960  1.0000
  H   H113      1.0  0.68720  0.04510  0.54410  1.0000
  H   H114      1.0  0.31280  0.04510  0.95590  1.0000
  H   H115      1.0  0.18720  0.54510  0.54410  1.0000
  H   H116      1.0  0.81280  0.54510  0.95590  1.0000
  H   H117      1.0  0.31280  0.95490  0.45590  1.0000
  H   H118      1.0  0.68720  0.95490  0.04410  1.0000
  H   H119      1.0  0.81280  0.45490  0.45590  1.0000
  H   H120      1.0  0.18720  0.45490  0.04410  1.0000
  C   C145      1.0  0.64540  0.13930  0.47080  1.0000
  C   C146      1.0  0.35460  0.13930  0.02920  1.0000
  C   C147      1.0  0.14540  0.63930  0.47080  1.0000
  C   C148      1.0  0.85460  0.63930  0.02920  1.0000
  C   C149      1.0  0.35460  0.86070  0.52920  1.0000
  C   C150      1.0  0.64540  0.86070  0.97080  1.0000
  C   C151      1.0  0.85460  0.36070  0.52920  1.0000
  C   C152      1.0  0.14540  0.36070  0.97080  1.0000
  C   C153      1.0  0.62110  0.22380  0.46560  1.0000
  C   C154      1.0  0.37890  0.22380  0.03440  1.0000
  C   C155      1.0  0.12110  0.72380  0.46560  1.0000
  C   C156      1.0  0.87890  0.72380  0.03440  1.0000
  C   C157      1.0  0.37890  0.77620  0.53440  1.0000
  C   C158      1.0  0.62110  0.77620  0.96560  1.0000
  C   C159      1.0  0.87890  0.27620  0.53440  1.0000
  C   C160      1.0  0.12110  0.27620  0.96560  1.0000
  H   H121      1.0  0.60350  0.25130  0.41980  1.0000
  H   H122      1.0  0.39650  0.25130  0.08020  1.0000
  H   H123      1.0  0.10350  0.75130  0.41980  1.0000
  H   H124      1.0  0.89650  0.75130  0.08020  1.0000
  H   H125      1.0  0.39650  0.74870  0.58020  1.0000
  H   H126      1.0  0.60350  0.74870  0.91980  1.0000
  H   H127      1.0  0.89650  0.24870  0.58020  1.0000
  H   H128      1.0  0.10350  0.24870  0.91980  1.0000
  C   C161      1.0  0.62340  0.26660  0.52850  1.0000
  C   C162      1.0  0.37660  0.26660  0.97150  1.0000
  C   C163      1.0  0.12340  0.76660  0.52850  1.0000
  C   C164      1.0  0.87660  0.76660  0.97150  1.0000
  C   C165      1.0  0.37660  0.73340  0.47150  1.0000
  C   C166      1.0  0.62340  0.73340  0.02850  1.0000
  C   C167      1.0  0.87660  0.23340  0.47150  1.0000
  C   C168      1.0  0.12340  0.23340  0.02850  1.0000
  H   H129      1.0  0.60940  0.32500  0.52490  1.0000
  H   H130      1.0  0.39060  0.32500  0.97510  1.0000
  H   H131      1.0  0.10940  0.82500  0.52490  1.0000
  H   H132      1.0  0.89060  0.82500  0.97510  1.0000
  H   H133      1.0  0.39060  0.67500  0.47510  1.0000
  H   H134      1.0  0.60940  0.67500  0.02490  1.0000
  H   H135      1.0  0.89060  0.17500  0.47510  1.0000
  H   H136      1.0  0.10940  0.17500  0.02490  1.0000
  C   C169      1.0  0.68480  0.57700  0.49910  1.0000
  C   C170      1.0  0.31520  0.57700  0.00090  1.0000
  C   C171      1.0  0.18480  0.07700  0.49910  1.0000
  C   C172      1.0  0.81520  0.07700  0.00090  1.0000
  C   C173      1.0  0.31520  0.42300  0.50090  1.0000
  C   C174      1.0  0.68480  0.42300  0.99910  1.0000
  C   C175      1.0  0.81520  0.92300  0.50090  1.0000
  C   C176      1.0  0.18480  0.92300  0.99910  1.0000
  C   C177      1.0  0.63970  0.62100  0.47550  1.0000
  C   C178      1.0  0.36030  0.62100  0.02450  1.0000
  C   C179      1.0  0.13970  0.12100  0.47550  1.0000
  C   C180      1.0  0.86030  0.12100  0.02450  1.0000
  C   C181      1.0  0.36030  0.37900  0.52450  1.0000
  C   C182      1.0  0.63970  0.37900  0.97550  1.0000
  C   C183      1.0  0.86030  0.87900  0.52450  1.0000
  C   C184      1.0  0.13970  0.87900  0.97550  1.0000
  H   H137      1.0  0.61570  0.60110  0.49120  1.0000
  H   H138      1.0  0.38430  0.60110  0.00880  1.0000
  H   H139      1.0  0.11570  0.10110  0.49120  1.0000
  H   H140      1.0  0.88430  0.10110  0.00880  1.0000
  H   H141      1.0  0.38430  0.39890  0.50880  1.0000
  H   H142      1.0  0.61570  0.39890  0.99120  1.0000
  H   H143      1.0  0.88430  0.89890  0.50880  1.0000
  H   H144      1.0  0.11570  0.89890  0.99120  1.0000
  C   C185      1.0  0.62900  0.69710  0.42720  1.0000
  C   C186      1.0  0.37100  0.69710  0.07280  1.0000
  C   C187      1.0  0.12900  0.19710  0.42720  1.0000
  C   C188      1.0  0.87100  0.19710  0.07280  1.0000
  C   C189      1.0  0.37100  0.30290  0.57280  1.0000
  C   C190      1.0  0.62900  0.30290  0.92720  1.0000
  C   C191      1.0  0.87100  0.80290  0.57280  1.0000
  C   C192      1.0  0.12900  0.80290  0.92720  1.0000
  H   H145      1.0  0.59830  0.72770  0.41260  1.0000
  H   H146      1.0  0.40170  0.72770  0.08740  1.0000
  H   H147      1.0  0.09830  0.22770  0.41260  1.0000
  H   H148      1.0  0.90170  0.22770  0.08740  1.0000
  H   H149      1.0  0.40170  0.27230  0.58740  1.0000
  H   H150      1.0  0.59830  0.27230  0.91260  1.0000
  H   H151      1.0  0.90170  0.77230  0.58740  1.0000
  H   H152      1.0  0.09830  0.77230  0.91260  1.0000
  C   C193      1.0  0.66200  0.72590  0.40200  1.0000
  C   C194      1.0  0.33800  0.72590  0.09800  1.0000
  C   C195      1.0  0.16200  0.22590  0.40200  1.0000
  C   C196      1.0  0.83800  0.22590  0.09800  1.0000
  C   C197      1.0  0.33800  0.27410  0.59800  1.0000
  C   C198      1.0  0.66200  0.27410  0.90200  1.0000
  C   C199      1.0  0.83800  0.77410  0.59800  1.0000
  C   C200      1.0  0.16200  0.77410  0.90200  1.0000
  C   C201      1.0  0.70910  0.67880  0.42530  1.0000
  C   C202      1.0  0.29090  0.67880  0.07470  1.0000
  C   C203      1.0  0.20910  0.17880  0.42530  1.0000
  C   C204      1.0  0.79090  0.17880  0.07470  1.0000
  C   C205      1.0  0.29090  0.32120  0.57470  1.0000
  C   C206      1.0  0.70910  0.32120  0.92530  1.0000
  C   C207      1.0  0.79090  0.82120  0.57470  1.0000
  C   C208      1.0  0.20910  0.82120  0.92530  1.0000
  H   H153      1.0  0.73260  0.69650  0.40810  1.0000
  H   H154      1.0  0.26740  0.69650  0.09190  1.0000
  H   H155      1.0  0.23260  0.19650  0.40810  1.0000
  H   H156      1.0  0.76740  0.19650  0.09190  1.0000
  H   H157      1.0  0.26740  0.30350  0.59190  1.0000
  H   H158      1.0  0.73260  0.30350  0.90810  1.0000
  H   H159      1.0  0.76740  0.80350  0.59190  1.0000
  H   H160      1.0  0.23260  0.80350  0.90810  1.0000
  C   C209      1.0  0.71860  0.60730  0.47330  1.0000
  C   C210      1.0  0.28140  0.60730  0.02670  1.0000
  C   C211      1.0  0.21860  0.10730  0.47330  1.0000
  C   C212      1.0  0.78140  0.10730  0.02670  1.0000
  C   C213      1.0  0.28140  0.39270  0.52670  1.0000
  C   C214      1.0  0.71860  0.39270  0.97330  1.0000
  C   C215      1.0  0.78140  0.89270  0.52670  1.0000
  C   C216      1.0  0.21860  0.89270  0.97330  1.0000
  H   H161      1.0  0.74960  0.57750  0.48950  1.0000
  H   H162      1.0  0.25040  0.57750  0.01050  1.0000
  H   H163      1.0  0.24960  0.07750  0.48950  1.0000
  H   H164      1.0  0.75040  0.07750  0.01050  1.0000
  H   H165      1.0  0.25040  0.42250  0.51050  1.0000
  H   H166      1.0  0.74960  0.42250  0.98950  1.0000
  H   H167      1.0  0.75040  0.92250  0.51050  1.0000
  H   H168      1.0  0.24960  0.92250  0.98950  1.0000
  O   O1        1.0  0.09078  0.43640  0.16290  1.0000
  O   O2        1.0  0.90922  0.43640  0.33710  1.0000
  O   O3        1.0  0.59078  0.93640  0.16290  1.0000
  O   O4        1.0  0.40922  0.93640  0.33710  1.0000
  O   O5        1.0  0.90922  0.56360  0.83710  1.0000
  O   O6        1.0  0.09078  0.56360  0.66290  1.0000
  O   O7        1.0  0.40922  0.06360  0.83710  1.0000
  O   O8        1.0  0.59078  0.06360  0.66290  1.0000
  O   O9        1.0  0.04400  0.49520  0.21330  1.0000
  O   O10       1.0  0.95600  0.49520  0.28670  1.0000
  O   O11       1.0  0.54400  0.99520  0.21330  1.0000
  O   O12       1.0  0.45600  0.99520  0.28670  1.0000
  O   O13       1.0  0.95600  0.50480  0.78670  1.0000
  O   O14       1.0  0.04400  0.50480  0.71330  1.0000
  O   O15       1.0  0.45600  0.00480  0.78670  1.0000
  O   O16       1.0  0.54400  0.00480  0.71330  1.0000
  O   O17       1.0  0.61580  0.12100  0.34120  1.0000
  O   O18       1.0  0.38420  0.12100  0.15880  1.0000
  O   O19       1.0  0.11580  0.62100  0.34120  1.0000
  O   O20       1.0  0.88420  0.62100  0.15880  1.0000
  O   O21       1.0  0.38420  0.87900  0.65880  1.0000
  O   O22       1.0  0.61580  0.87900  0.84120  1.0000
  O   O23       1.0  0.88420  0.37900  0.65880  1.0000
  O   O24       1.0  0.11580  0.37900  0.84120  1.0000
  O   O25       1.0  0.66550  0.02230  0.41070  1.0000
  O   O26       1.0  0.33450  0.02230  0.08930  1.0000
  O   O27       1.0  0.16550  0.52230  0.41070  1.0000
  O   O28       1.0  0.83450  0.52230  0.08930  1.0000
  O   O29       1.0  0.33450  0.97770  0.58930  1.0000
  O   O30       1.0  0.66550  0.97770  0.91070  1.0000
  O   O31       1.0  0.83450  0.47770  0.58930  1.0000
  O   O32       1.0  0.16550  0.47770  0.91070  1.0000
  O   O33       1.0  0.60690  0.84010  0.32530  1.0000
  O   O34       1.0  0.39310  0.84010  0.17470  1.0000
  O   O35       1.0  0.10690  0.34010  0.32530  1.0000
  O   O36       1.0  0.89310  0.34010  0.17470  1.0000
  O   O37       1.0  0.39310  0.15990  0.67470  1.0000
  O   O38       1.0  0.60690  0.15990  0.82530  1.0000
  O   O39       1.0  0.89310  0.65990  0.67470  1.0000
  O   O40       1.0  0.10690  0.65990  0.82530  1.0000
  O   O41       1.0  0.68528  0.84200  0.33760  1.0000
  O   O42       1.0  0.31472  0.84200  0.16240  1.0000
  O   O43       1.0  0.18528  0.34200  0.33760  1.0000
  O   O44       1.0  0.81472  0.34200  0.16240  1.0000
  O   O45       1.0  0.31472  0.15800  0.66240  1.0000
  O   O46       1.0  0.68528  0.15800  0.83760  1.0000
  O   O47       1.0  0.81472  0.65800  0.66240  1.0000
  O   O48       1.0  0.18528  0.65800  0.83760  1.0000
