data_image0
_chemical_formula_structural       Cd4O24N4H4N16H4N4H4C16H8C4H8C4H8C20H4C4H4C8H4C4H4C8H4C4H4C8H4C4H4C8H4C4H4C8H4C4H4
_chemical_formula_sum              "Cd4 O24 N24 H84 C108"
_cell_length_a       12.943
_cell_length_b       12.329
_cell_length_c       23.867
_cell_angle_alpha    90
_cell_angle_beta     108.881
_cell_angle_gamma    90

_space_group_name_H-M_alt    "P 1"
_space_group_IT_number       1

loop_
  _space_group_symop_operation_xyz
  'x, y, z'

loop_
  _atom_site_type_symbol
  _atom_site_label
  _atom_site_symmetry_multiplicity
  _atom_site_fract_x
  _atom_site_fract_y
  _atom_site_fract_z
  _atom_site_occupancy
  Cd  Cd1       1.0  0.25767  0.48046  0.76385  1.0000
  Cd  Cd2       1.0  0.74233  0.98046  0.73615  1.0000
  Cd  Cd3       1.0  0.74233  0.51954  0.23615  1.0000
  Cd  Cd4       1.0  0.25767  0.01954  0.26385  1.0000
  O   O1        1.0  0.18380  0.31690  0.78268  1.0000
  O   O2        1.0  0.81620  0.81690  0.71732  1.0000
  O   O3        1.0  0.81620  0.68310  0.21732  1.0000
  O   O4        1.0  0.18380  0.18310  0.28268  1.0000
  O   O5        1.0  0.28540  0.30500  0.72400  1.0000
  O   O6        1.0  0.71460  0.80500  0.77600  1.0000
  O   O7        1.0  0.71460  0.69500  0.27600  1.0000
  O   O8        1.0  0.28540  0.19500  0.22400  1.0000
  O   O9        1.0  0.10030  0.01400  0.17176  1.0000
  O   O10       1.0  0.89970  0.51400  0.32824  1.0000
  O   O11       1.0  0.89970  0.98600  0.82824  1.0000
  O   O12       1.0  0.10030  0.48600  0.67176  1.0000
  O   O13       1.0  0.24960  0.92320  0.17902  1.0000
  O   O14       1.0  0.75040  0.42320  0.32098  1.0000
  O   O15       1.0  0.75040  0.07680  0.82098  1.0000
  O   O16       1.0  0.24960  0.57680  0.67902  1.0000
  O   O17       1.0  0.56910  0.41930  0.18904  1.0000
  O   O18       1.0  0.43090  0.91930  0.31096  1.0000
  O   O19       1.0  0.43090  0.58070  0.81096  1.0000
  O   O20       1.0  0.56910  0.08070  0.68904  1.0000
  O   O21       1.0  0.60110  0.56910  0.15020  1.0000
  O   O22       1.0  0.39890  0.06910  0.34980  1.0000
  O   O23       1.0  0.39890  0.43090  0.84980  1.0000
  O   O24       1.0  0.60110  0.93090  0.65020  1.0000
  N   N1        1.0  0.15230  0.73150  0.74235  1.0000
  N   N2        1.0  0.84770  0.23150  0.75765  1.0000
  N   N3        1.0  0.84770  0.26850  0.25765  1.0000
  N   N4        1.0  0.15230  0.76850  0.24235  1.0000
  H   H1        1.0  0.20770  0.70590  0.73440  1.0000
  H   H2        1.0  0.79230  0.20590  0.76560  1.0000
  H   H3        1.0  0.79230  0.29410  0.26560  1.0000
  H   H4        1.0  0.20770  0.79410  0.23440  1.0000
  N   N5        1.0  0.17160  0.59440  0.81225  1.0000
  N   N6        1.0  0.82840  0.09440  0.68775  1.0000
  N   N7        1.0  0.82840  0.40560  0.18775  1.0000
  N   N8        1.0  0.17160  0.90560  0.31225  1.0000
  N   N9        1.0  0.06930  0.75540  0.81266  1.0000
  N   N10       1.0  0.93070  0.25540  0.68734  1.0000
  N   N11       1.0  0.93070  0.24460  0.18734  1.0000
  N   N12       1.0  0.06930  0.74460  0.31266  1.0000
  N   N13       1.0  0.08410  0.61880  0.88590  1.0000
  N   N14       1.0  0.91590  0.11880  0.61410  1.0000
  N   N15       1.0  0.91590  0.38120  0.11410  1.0000
  N   N16       1.0  0.08410  0.88120  0.38590  1.0000
  N   N17       1.0  0.97950  0.77340  0.87925  1.0000
  N   N18       1.0  0.02050  0.27340  0.62075  1.0000
  N   N19       1.0  0.02050  0.22660  0.12075  1.0000
  N   N20       1.0  0.97950  0.72660  0.37925  1.0000
  H   H5        1.0  0.96170  0.83630  0.86350  1.0000
  H   H6        1.0  0.03830  0.33630  0.63650  1.0000
  H   H7        1.0  0.03830  0.16370  0.13650  1.0000
  H   H8        1.0  0.96170  0.66370  0.36350  1.0000
  N   N21       1.0  0.18400  0.46610  0.88452  1.0000
  N   N22       1.0  0.81600  0.96610  0.61548  1.0000
  N   N23       1.0  0.81600  0.53390  0.11548  1.0000
  N   N24       1.0  0.18400  0.03390  0.38452  1.0000
  H   H9        1.0  0.22200  0.42870  0.86790  1.0000
  H   H10       1.0  0.77800  0.92870  0.63210  1.0000
  H   H11       1.0  0.77800  0.57130  0.13210  1.0000
  H   H12       1.0  0.22200  0.07130  0.36790  1.0000
  C   C1        1.0  0.13060  0.69340  0.79058  1.0000
  C   C2        1.0  0.86940  0.19340  0.70942  1.0000
  C   C3        1.0  0.86940  0.30660  0.20942  1.0000
  C   C4        1.0  0.13060  0.80660  0.29058  1.0000
  C   C5        1.0  0.04680  0.71330  0.85884  1.0000
  C   C6        1.0  0.95320  0.21330  0.64116  1.0000
  C   C7        1.0  0.95320  0.28670  0.14116  1.0000
  C   C8        1.0  0.04680  0.78670  0.35884  1.0000
  C   C9        1.0  0.14550  0.56250  0.86064  1.0000
  C   C10       1.0  0.85450  0.06250  0.63936  1.0000
  C   C11       1.0  0.85450  0.43750  0.13936  1.0000
  C   C12       1.0  0.14550  0.93750  0.36064  1.0000
  C   C13       1.0  0.08380  0.81490  0.70308  1.0000
  C   C14       1.0  0.91620  0.31490  0.79692  1.0000
  C   C15       1.0  0.91620  0.18510  0.29692  1.0000
  C   C16       1.0  0.08380  0.68510  0.20308  1.0000
  H   H13       1.0  0.01060  0.81030  0.70550  1.0000
  H   H14       1.0  0.98940  0.31030  0.79450  1.0000
  H   H15       1.0  0.98940  0.18970  0.29450  1.0000
  H   H16       1.0  0.01060  0.68970  0.20550  1.0000
  H   H17       1.0  0.07940  0.79870  0.66260  1.0000
  H   H18       1.0  0.92060  0.29870  0.83740  1.0000
  H   H19       1.0  0.92060  0.20130  0.33740  1.0000
  H   H20       1.0  0.07940  0.70130  0.16260  1.0000
  C   C17       1.0  0.93560  0.74080  0.92490  1.0000
  C   C18       1.0  0.06440  0.24080  0.57510  1.0000
  C   C19       1.0  0.06440  0.25920  0.07510  1.0000
  C   C20       1.0  0.93560  0.75920  0.42490  1.0000
  H   H21       1.0  0.94310  0.66280  0.93010  1.0000
  H   H22       1.0  0.05690  0.16280  0.56990  1.0000
  H   H23       1.0  0.05690  0.33720  0.06990  1.0000
  H   H24       1.0  0.94310  0.83720  0.43010  1.0000
  H   H25       1.0  0.85830  0.75790  0.91230  1.0000
  H   H26       1.0  0.14170  0.25790  0.58770  1.0000
  H   H27       1.0  0.14170  0.24210  0.08770  1.0000
  H   H28       1.0  0.85830  0.74210  0.41230  1.0000
  C   C21       1.0  0.16860  0.42130  0.93686  1.0000
  C   C22       1.0  0.83140  0.92130  0.56314  1.0000
  C   C23       1.0  0.83140  0.57870  0.06314  1.0000
  C   C24       1.0  0.16860  0.07870  0.43686  1.0000
  H   H29       1.0  0.15500  0.34410  0.93110  1.0000
  H   H30       1.0  0.84500  0.84410  0.56890  1.0000
  H   H31       1.0  0.84500  0.65590  0.06890  1.0000
  H   H32       1.0  0.15500  0.15590  0.43110  1.0000
  H   H33       1.0  0.10450  0.45410  0.94240  1.0000
  H   H34       1.0  0.89550  0.95410  0.55760  1.0000
  H   H35       1.0  0.89550  0.54590  0.05760  1.0000
  H   H36       1.0  0.10450  0.04590  0.44240  1.0000
  C   C25       1.0  0.22340  0.26240  0.75000  1.0000
  C   C26       1.0  0.77660  0.76240  0.75000  1.0000
  C   C27       1.0  0.77660  0.73760  0.25000  1.0000
  C   C28       1.0  0.22340  0.23760  0.25000  1.0000
  C   C29       1.0  0.15290  0.94960  0.15079  1.0000
  C   C30       1.0  0.84710  0.44960  0.34921  1.0000
  C   C31       1.0  0.84710  0.05040  0.84921  1.0000
  C   C32       1.0  0.15290  0.55040  0.65079  1.0000
  C   C33       1.0  0.54380  0.48710  0.14800  1.0000
  C   C34       1.0  0.45620  0.98710  0.35200  1.0000
  C   C35       1.0  0.45620  0.51290  0.85200  1.0000
  C   C36       1.0  0.54380  0.01290  0.64800  1.0000
  C   C37       1.0  0.12480  0.93000  0.71727  1.0000
  C   C38       1.0  0.87520  0.43000  0.78273  1.0000
  C   C39       1.0  0.87520  0.07000  0.28273  1.0000
  C   C40       1.0  0.12480  0.57000  0.21727  1.0000
  C   C41       1.0  0.18770  0.97820  0.68690  1.0000
  C   C42       1.0  0.81230  0.47820  0.81310  1.0000
  C   C43       1.0  0.81230  0.02180  0.31310  1.0000
  C   C44       1.0  0.18770  0.52180  0.18690  1.0000
  H   H37       1.0  0.20700  0.93860  0.65860  1.0000
  H   H38       1.0  0.79300  0.43860  0.84140  1.0000
  H   H39       1.0  0.79300  0.06140  0.34140  1.0000
  H   H40       1.0  0.20700  0.56140  0.15860  1.0000
  C   C45       1.0  0.22220  0.08510  0.69840  1.0000
  C   C46       1.0  0.77780  0.58510  0.80160  1.0000
  C   C47       1.0  0.77780  0.91490  0.30160  1.0000
  C   C48       1.0  0.22220  0.41490  0.19840  1.0000
  H   H41       1.0  0.26470  0.11640  0.67790  1.0000
  H   H42       1.0  0.73530  0.61640  0.82210  1.0000
  H   H43       1.0  0.73530  0.88360  0.32210  1.0000
  H   H44       1.0  0.26470  0.38360  0.17790  1.0000
  C   C49       1.0  0.19390  0.14510  0.73996  1.0000
  C   C50       1.0  0.80610  0.64510  0.76004  1.0000
  C   C51       1.0  0.80610  0.85490  0.26004  1.0000
  C   C52       1.0  0.19390  0.35490  0.23996  1.0000
  C   C53       1.0  0.13050  0.09700  0.77050  1.0000
  C   C54       1.0  0.86950  0.59700  0.72950  1.0000
  C   C55       1.0  0.86950  0.90300  0.22950  1.0000
  C   C56       1.0  0.13050  0.40300  0.27050  1.0000
  H   H45       1.0  0.11140  0.13660  0.79880  1.0000
  H   H46       1.0  0.88860  0.63660  0.70120  1.0000
  H   H47       1.0  0.88860  0.86340  0.20120  1.0000
  H   H48       1.0  0.11140  0.36340  0.29880  1.0000
  C   C57       1.0  0.09570  0.99040  0.75880  1.0000
  C   C58       1.0  0.90430  0.49040  0.74120  1.0000
  C   C59       1.0  0.90430  0.00960  0.24120  1.0000
  C   C60       1.0  0.09570  0.50960  0.25880  1.0000
  H   H49       1.0  0.05260  0.95930  0.77900  1.0000
  H   H50       1.0  0.94740  0.45930  0.72100  1.0000
  H   H51       1.0  0.94740  0.04070  0.22100  1.0000
  H   H52       1.0  0.05260  0.54070  0.27900  1.0000
  C   C61       1.0  0.99150  0.79540  0.98380  1.0000
  C   C62       1.0  0.00850  0.29540  0.51620  1.0000
  C   C63       1.0  0.00850  0.20460  0.01620  1.0000
  C   C64       1.0  0.99150  0.70460  0.48380  1.0000
  C   C65       1.0  0.93510  0.86450  0.00920  1.0000
  C   C66       1.0  0.06490  0.36450  0.49080  1.0000
  C   C67       1.0  0.06490  0.13550  0.99080  1.0000
  C   C68       1.0  0.93510  0.63550  0.50920  1.0000
  H   H53       1.0  0.86130  0.87760  0.99000  1.0000
  H   H54       1.0  0.13870  0.37760  0.51000  1.0000
  H   H55       1.0  0.13870  0.12240  0.01000  1.0000
  H   H56       1.0  0.86130  0.62240  0.49000  1.0000
  C   C69       1.0  0.98670  0.91410  0.06227  1.0000
  C   C70       1.0  0.01330  0.41410  0.43773  1.0000
  C   C71       1.0  0.01330  0.08590  0.93773  1.0000
  C   C72       1.0  0.98670  0.58590  0.56227  1.0000
  H   H57       1.0  0.94730  0.95950  0.07890  1.0000
  H   H58       1.0  0.05270  0.45950  0.42110  1.0000
  H   H59       1.0  0.05270  0.04050  0.92110  1.0000
  H   H60       1.0  0.94730  0.54050  0.57890  1.0000
  C   C73       1.0  0.09740  0.89730  0.09161  1.0000
  C   C74       1.0  0.90260  0.39730  0.40839  1.0000
  C   C75       1.0  0.90260  0.10270  0.90839  1.0000
  C   C76       1.0  0.09740  0.60270  0.59161  1.0000
  C   C77       1.0  0.15430  0.82940  0.06630  1.0000
  C   C78       1.0  0.84570  0.32940  0.43370  1.0000
  C   C79       1.0  0.84570  0.17060  0.93370  1.0000
  C   C80       1.0  0.15430  0.67060  0.56630  1.0000
  H   H61       1.0  0.22830  0.81720  0.08540  1.0000
  H   H62       1.0  0.77170  0.31720  0.41460  1.0000
  H   H63       1.0  0.77170  0.18280  0.91460  1.0000
  H   H64       1.0  0.22830  0.68280  0.58540  1.0000
  C   C81       1.0  0.10220  0.77930  0.01270  1.0000
  C   C82       1.0  0.89780  0.27930  0.48730  1.0000
  C   C83       1.0  0.89780  0.22070  0.98730  1.0000
  C   C84       1.0  0.10220  0.72070  0.51270  1.0000
  H   H65       1.0  0.14170  0.73440  0.99580  1.0000
  H   H66       1.0  0.85830  0.23440  0.50420  1.0000
  H   H67       1.0  0.85830  0.26560  0.00420  1.0000
  H   H68       1.0  0.14170  0.76560  0.49580  1.0000
  C   C85       1.0  0.26530  0.43870  0.99218  1.0000
  C   C86       1.0  0.73470  0.93870  0.50782  1.0000
  C   C87       1.0  0.73470  0.56130  0.00782  1.0000
  C   C88       1.0  0.26530  0.06130  0.49218  1.0000
  C   C89       1.0  0.32020  0.53540  0.00470  1.0000
  C   C90       1.0  0.67980  0.03540  0.49530  1.0000
  C   C91       1.0  0.67980  0.46460  0.99530  1.0000
  C   C92       1.0  0.32020  0.96460  0.50470  1.0000
  H   H69       1.0  0.29610  0.59310  0.97870  1.0000
  H   H70       1.0  0.70390  0.09310  0.52130  1.0000
  H   H71       1.0  0.70390  0.40690  0.02130  1.0000
  H   H72       1.0  0.29610  0.90690  0.47870  1.0000
  C   C93       1.0  0.40880  0.55030  0.05400  1.0000
  C   C94       1.0  0.59120  0.05030  0.44600  1.0000
  C   C95       1.0  0.59120  0.44970  0.94600  1.0000
  C   C96       1.0  0.40880  0.94970  0.55400  1.0000
  H   H73       1.0  0.44490  0.61660  0.06000  1.0000
  H   H74       1.0  0.55510  0.11660  0.44000  1.0000
  H   H75       1.0  0.55510  0.38340  0.94000  1.0000
  H   H76       1.0  0.44490  0.88340  0.56000  1.0000
  C   C97       1.0  0.44500  0.46980  0.09430  1.0000
  C   C98       1.0  0.55500  0.96980  0.40570  1.0000
  C   C99       1.0  0.55500  0.53020  0.90570  1.0000
  C   C100      1.0  0.44500  0.03020  0.59430  1.0000
  C   C101      1.0  0.39030  0.37180  0.08400  1.0000
  C   C102      1.0  0.60970  0.87180  0.41600  1.0000
  C   C103      1.0  0.60970  0.62820  0.91600  1.0000
  C   C104      1.0  0.39030  0.12820  0.58400  1.0000
  H   H77       1.0  0.41270  0.31570  0.11130  1.0000
  H   H78       1.0  0.58730  0.81570  0.38870  1.0000
  H   H79       1.0  0.58730  0.68430  0.88870  1.0000
  H   H80       1.0  0.41270  0.18430  0.61130  1.0000
  C   C105      1.0  0.30220  0.35740  0.03320  1.0000
  C   C106      1.0  0.69780  0.85740  0.46680  1.0000
  C   C107      1.0  0.69780  0.64260  0.96680  1.0000
  C   C108      1.0  0.30220  0.14260  0.53320  1.0000
  H   H81       1.0  0.26680  0.29070  0.02650  1.0000
  H   H82       1.0  0.73320  0.79070  0.47350  1.0000
  H   H83       1.0  0.73320  0.70930  0.97350  1.0000
  H   H84       1.0  0.26680  0.20930  0.52650  1.0000
