data_image0
_chemical_formula_structural       Cu4O24C12
_chemical_formula_sum              "Cu4 O24 C12"
_cell_length_a       8.6554
_cell_length_b       16.921
_cell_length_c       20.0587
_cell_angle_alpha    104.959
_cell_angle_beta     102.301
_cell_angle_gamma    91.736

_space_group_name_H-M_alt    "P 1"
_space_group_IT_number       1

loop_
  _space_group_symop_operation_xyz
  'x, y, z'

loop_
  _atom_site_type_symbol
  _atom_site_label
  _atom_site_symmetry_multiplicity
  _atom_site_fract_x
  _atom_site_fract_y
  _atom_site_fract_z
  _atom_site_occupancy
  Cu  Cu1       1.0  0.58786  0.34899  0.00684  1.0000
  Cu  Cu2       1.0  0.41214  0.65101  0.99316  1.0000
  Cu  Cu3       1.0  0.08170  0.16082  0.01420  1.0000
  Cu  Cu4       1.0  0.91830  0.83918  0.98580  1.0000
  O   O1        1.0  0.51860  0.26670  0.07936  1.0000
  O   O2        1.0  0.48140  0.73330  0.92064  1.0000
  O   O3        1.0  0.36390  0.30346  0.95552  1.0000
  O   O4        1.0  0.63610  0.69654  0.04448  1.0000
  O   O5        1.0  0.30450  0.18270  0.06795  1.0000
  O   O6        1.0  0.69550  0.81730  0.93205  1.0000
  O   O7        1.0  0.15460  0.22373  0.95536  1.0000
  O   O8        1.0  0.84540  0.77627  0.04464  1.0000
  O   O9        1.0  0.81170  0.36837  0.06352  1.0000
  O   O10       1.0  0.18830  0.63163  0.93648  1.0000
  O   O11       1.0  0.66530  0.25090  0.95129  1.0000
  O   O12       1.0  0.33470  0.74910  0.04871  1.0000
  O   O13       1.0  0.01090  0.29050  0.08472  1.0000
  O   O14       1.0  0.98910  0.70950  0.91528  1.0000
  O   O15       1.0  0.85810  0.16963  0.96705  1.0000
  O   O16       1.0  0.14190  0.83037  0.03295  1.0000
  O   O17       1.0  0.51040  0.44456  0.06385  1.0000
  O   O18       1.0  0.48960  0.55544  0.93615  1.0000
  O   O19       1.0  0.42210  0.56757  0.06392  1.0000
  O   O20       1.0  0.57790  0.43243  0.93608  1.0000
  O   O21       1.0  0.01990  0.09131  0.06939  1.0000
  O   O22       1.0  0.98010  0.90869  0.93061  1.0000
  O   O23       1.0  0.93740  0.96330  0.06483  1.0000
  O   O24       1.0  0.06260  0.03670  0.93517  1.0000
  C   C1        1.0  0.38380  0.23440  0.04910  1.0000
  C   C2        1.0  0.61620  0.76560  0.95090  1.0000
  C   C3        1.0  0.29480  0.25640  0.98110  1.0000
  C   C4        1.0  0.70520  0.74360  0.01890  1.0000
  C   C5        1.0  0.88370  0.30430  0.05090  1.0000
  C   C6        1.0  0.11630  0.69570  0.94910  1.0000
  C   C7        1.0  0.79610  0.23580  0.98440  1.0000
  C   C8        1.0  0.20390  0.76420  0.01560  1.0000
  C   C9        1.0  0.48130  0.50440  0.03750  1.0000
  C   C10       1.0  0.51870  0.49560  0.96250  1.0000
  C   C11       1.0  0.98680  0.01480  0.03840  1.0000
  C   C12       1.0  0.01320  0.98520  0.96160  1.0000
