data_image0
_chemical_formula_structural       Cu4O24C12
_chemical_formula_sum              "Cu4 O24 C12"
_cell_length_a       8.7501
_cell_length_b       16.9319
_cell_length_c       20.1421
_cell_angle_alpha    105.127
_cell_angle_beta     102.346
_cell_angle_gamma    91.879

_space_group_name_H-M_alt    "P 1"
_space_group_IT_number       1

loop_
  _space_group_symop_operation_xyz
  'x, y, z'

loop_
  _atom_site_type_symbol
  _atom_site_label
  _atom_site_symmetry_multiplicity
  _atom_site_fract_x
  _atom_site_fract_y
  _atom_site_fract_z
  _atom_site_occupancy
  Cu  Cu1       1.0  0.58561  0.34866  0.00724  1.0000
  Cu  Cu2       1.0  0.41439  0.65134  0.99276  1.0000
  Cu  Cu3       1.0  0.07797  0.16155  0.01343  1.0000
  Cu  Cu4       1.0  0.92203  0.83845  0.98657  1.0000
  O   O1        1.0  0.51270  0.26660  0.07970  1.0000
  O   O2        1.0  0.48730  0.73340  0.92030  1.0000
  O   O3        1.0  0.36330  0.30247  0.95649  1.0000
  O   O4        1.0  0.63670  0.69753  0.04351  1.0000
  O   O5        1.0  0.29850  0.18380  0.06822  1.0000
  O   O6        1.0  0.70150  0.81620  0.93178  1.0000
  O   O7        1.0  0.15440  0.22378  0.95569  1.0000
  O   O8        1.0  0.84560  0.77622  0.04431  1.0000
  O   O9        1.0  0.80680  0.36748  0.06419  1.0000
  O   O10       1.0  0.19320  0.63252  0.93581  1.0000
  O   O11       1.0  0.66300  0.25078  0.95187  1.0000
  O   O12       1.0  0.33700  0.74922  0.04813  1.0000
  O   O13       1.0  0.00560  0.29030  0.08422  1.0000
  O   O14       1.0  0.99440  0.70970  0.91578  1.0000
  O   O15       1.0  0.85700  0.17092  0.96538  1.0000
  O   O16       1.0  0.14300  0.82908  0.03462  1.0000
  O   O17       1.0  0.51190  0.44496  0.06412  1.0000
  O   O18       1.0  0.48810  0.55504  0.93588  1.0000
  O   O19       1.0  0.57450  0.43145  0.93604  1.0000
  O   O20       1.0  0.42550  0.56855  0.06396  1.0000
  O   O21       1.0  0.01610  0.09186  0.06825  1.0000
  O   O22       1.0  0.98390  0.90814  0.93175  1.0000
  O   O23       1.0  0.06100  0.03617  0.93531  1.0000
  O   O24       1.0  0.93900  0.96383  0.06469  1.0000
  C   C1        1.0  0.37870  0.23460  0.04980  1.0000
  C   C2        1.0  0.62130  0.76540  0.95020  1.0000
  C   C3        1.0  0.29270  0.25600  0.98220  1.0000
  C   C4        1.0  0.70730  0.74400  0.01780  1.0000
  C   C5        1.0  0.87930  0.30430  0.05070  1.0000
  C   C6        1.0  0.12070  0.69570  0.94930  1.0000
  C   C7        1.0  0.79440  0.23560  0.98360  1.0000
  C   C8        1.0  0.20560  0.76440  0.01640  1.0000
  C   C9        1.0  0.48210  0.50490  0.03770  1.0000
  C   C10       1.0  0.51790  0.49510  0.96230  1.0000
  C   C11       1.0  0.98710  0.01560  0.03810  1.0000
  C   C12       1.0  0.01290  0.98440  0.96190  1.0000
