data_image0
_chemical_formula_structural       Cd4O28H8O4H8N16H8C12H4C8H4C8H4C12H4C4H4
_chemical_formula_sum              "Cd4 O32 H44 N16 C44"
_cell_length_a       10.1435
_cell_length_b       26.471
_cell_length_c       7.0263
_cell_angle_alpha    90
_cell_angle_beta     106.213
_cell_angle_gamma    90

_space_group_name_H-M_alt    "P 1"
_space_group_IT_number       1

loop_
  _space_group_symop_operation_xyz
  'x, y, z'

loop_
  _atom_site_type_symbol
  _atom_site_label
  _atom_site_symmetry_multiplicity
  _atom_site_fract_x
  _atom_site_fract_y
  _atom_site_fract_z
  _atom_site_occupancy
  Cd  Cd1       1.0  0.06098  0.36698  0.71258  1.0000
  Cd  Cd2       1.0  0.93902  0.86698  0.78742  1.0000
  Cd  Cd3       1.0  0.93902  0.63302  0.28742  1.0000
  Cd  Cd4       1.0  0.06098  0.13302  0.21258  1.0000
  O   O1        1.0  0.83730  0.36931  0.76940  1.0000
  O   O2        1.0  0.16270  0.86931  0.73060  1.0000
  O   O3        1.0  0.16270  0.63069  0.23060  1.0000
  O   O4        1.0  0.83730  0.13069  0.26940  1.0000
  O   O5        1.0  0.92120  0.29604  0.71380  1.0000
  O   O6        1.0  0.07880  0.79604  0.78620  1.0000
  O   O7        1.0  0.07880  0.70396  0.28620  1.0000
  O   O8        1.0  0.92120  0.20396  0.21380  1.0000
  O   O9        1.0  0.66470  0.13936  0.80180  1.0000
  O   O10       1.0  0.33530  0.63936  0.69820  1.0000
  O   O11       1.0  0.33530  0.86064  0.19820  1.0000
  O   O12       1.0  0.66470  0.36064  0.30180  1.0000
  O   O13       1.0  0.43680  0.14326  0.69780  1.0000
  O   O14       1.0  0.56320  0.64326  0.80220  1.0000
  O   O15       1.0  0.56320  0.85674  0.30220  1.0000
  O   O16       1.0  0.43680  0.35674  0.19780  1.0000
  O   O17       1.0  0.21000  0.30987  0.65280  1.0000
  O   O18       1.0  0.79000  0.80987  0.84720  1.0000
  O   O19       1.0  0.79000  0.69013  0.34720  1.0000
  O   O20       1.0  0.21000  0.19013  0.15280  1.0000
  O   O21       1.0  0.32780  0.38121  0.69640  1.0000
  O   O22       1.0  0.67220  0.88121  0.80360  1.0000
  O   O23       1.0  0.67220  0.61879  0.30360  1.0000
  O   O24       1.0  0.32780  0.11879  0.19640  1.0000
  O   O25       1.0  0.93970  0.36846  0.37870  1.0000
  O   O26       1.0  0.06030  0.86846  0.12130  1.0000
  O   O27       1.0  0.06030  0.63154  0.62130  1.0000
  O   O28       1.0  0.93970  0.13154  0.87870  1.0000
  H   H1        1.0  0.91430  0.39980  0.31310  1.0000
  H   H2        1.0  0.08570  0.89980  0.18690  1.0000
  H   H3        1.0  0.08570  0.60020  0.68690  1.0000
  H   H4        1.0  0.91430  0.10020  0.81310  1.0000
  H   H5        1.0  0.91560  0.33770  0.30800  1.0000
  H   H6        1.0  0.08440  0.83770  0.19200  1.0000
  H   H7        1.0  0.08440  0.66230  0.69200  1.0000
  H   H8        1.0  0.91560  0.16230  0.80800  1.0000
  O   O29       1.0  0.16200  0.35582  0.04640  1.0000
  O   O30       1.0  0.83800  0.85582  0.45360  1.0000
  O   O31       1.0  0.83800  0.64418  0.95360  1.0000
  O   O32       1.0  0.16200  0.14418  0.54640  1.0000
  H   H9        1.0  0.18680  0.38430  0.13090  1.0000
  H   H10       1.0  0.81320  0.88430  0.36910  1.0000
  H   H11       1.0  0.81320  0.61570  0.86910  1.0000
  H   H12       1.0  0.18680  0.11570  0.63090  1.0000
  H   H13       1.0  0.17880  0.32270  0.09970  1.0000
  H   H14       1.0  0.82120  0.82270  0.40030  1.0000
  H   H15       1.0  0.82120  0.67730  0.90030  1.0000
  H   H16       1.0  0.17880  0.17730  0.59970  1.0000
  N   N1        1.0  0.07130  0.45150  0.75270  1.0000
  N   N2        1.0  0.92870  0.95150  0.74730  1.0000
  N   N3        1.0  0.92870  0.54850  0.24730  1.0000
  N   N4        1.0  0.07130  0.04850  0.25270  1.0000
  N   N5        1.0  0.95780  0.48320  0.72090  1.0000
  N   N6        1.0  0.04220  0.98320  0.77910  1.0000
  N   N7        1.0  0.04220  0.51680  0.27910  1.0000
  N   N8        1.0  0.95780  0.01680  0.22090  1.0000
  N   N9        1.0  0.14320  0.52550  0.86690  1.0000
  N   N10       1.0  0.85680  0.02550  0.63310  1.0000
  N   N11       1.0  0.85680  0.47450  0.13310  1.0000
  N   N12       1.0  0.14320  0.97450  0.36690  1.0000
  N   N13       1.0  0.23810  0.56310  0.96170  1.0000
  N   N14       1.0  0.76190  0.06310  0.53830  1.0000
  N   N15       1.0  0.76190  0.43690  0.03830  1.0000
  N   N16       1.0  0.23810  0.93690  0.46170  1.0000
  H   H17       1.0  0.25500  0.58600  0.88600  1.0000
  H   H18       1.0  0.74500  0.08600  0.61400  1.0000
  H   H19       1.0  0.74500  0.41400  0.11400  1.0000
  H   H20       1.0  0.25500  0.91400  0.38600  1.0000
  H   H21       1.0  0.20300  0.58000  0.03600  1.0000
  H   H22       1.0  0.79700  0.08000  0.46400  1.0000
  H   H23       1.0  0.79700  0.42000  0.96400  1.0000
  H   H24       1.0  0.20300  0.92000  0.53600  1.0000
  C   C1        1.0  0.82510  0.32220  0.74380  1.0000
  C   C2        1.0  0.17490  0.82220  0.75620  1.0000
  C   C3        1.0  0.17490  0.67780  0.25620  1.0000
  C   C4        1.0  0.82510  0.17780  0.24380  1.0000
  C   C5        1.0  0.69230  0.29690  0.73870  1.0000
  C   C6        1.0  0.30770  0.79690  0.76130  1.0000
  C   C7        1.0  0.30770  0.70310  0.26130  1.0000
  C   C8        1.0  0.69230  0.20310  0.23870  1.0000
  C   C9        1.0  0.68420  0.24430  0.74750  1.0000
  C   C10       1.0  0.31580  0.74430  0.75250  1.0000
  C   C11       1.0  0.31580  0.75570  0.25250  1.0000
  C   C12       1.0  0.68420  0.25570  0.24750  1.0000
  H   H25       1.0  0.76480  0.22460  0.76350  1.0000
  H   H26       1.0  0.23520  0.72460  0.73650  1.0000
  H   H27       1.0  0.23520  0.77540  0.23650  1.0000
  H   H28       1.0  0.76480  0.27540  0.26350  1.0000
  C   C13       1.0  0.56120  0.22070  0.73320  1.0000
  C   C14       1.0  0.43880  0.72070  0.76680  1.0000
  C   C15       1.0  0.43880  0.77930  0.26680  1.0000
  C   C16       1.0  0.56120  0.27930  0.23320  1.0000
  C   C17       1.0  0.44370  0.24970  0.70930  1.0000
  C   C18       1.0  0.55630  0.74970  0.79070  1.0000
  C   C19       1.0  0.55630  0.75030  0.29070  1.0000
  C   C20       1.0  0.44370  0.25030  0.20930  1.0000
  H   H29       1.0  0.35780  0.23360  0.69480  1.0000
  H   H30       1.0  0.64220  0.73360  0.80520  1.0000
  H   H31       1.0  0.64220  0.76640  0.30520  1.0000
  H   H32       1.0  0.35780  0.26640  0.19480  1.0000
  C   C21       1.0  0.45080  0.30320  0.70630  1.0000
  C   C22       1.0  0.54920  0.80320  0.79370  1.0000
  C   C23       1.0  0.54920  0.69680  0.29370  1.0000
  C   C24       1.0  0.45080  0.19680  0.20630  1.0000
  C   C25       1.0  0.57500  0.32590  0.72110  1.0000
  C   C26       1.0  0.42500  0.82590  0.77890  1.0000
  C   C27       1.0  0.42500  0.67410  0.27890  1.0000
  C   C28       1.0  0.57500  0.17410  0.22110  1.0000
  H   H33       1.0  0.58090  0.36170  0.71920  1.0000
  H   H34       1.0  0.41910  0.86170  0.78080  1.0000
  H   H35       1.0  0.41910  0.63830  0.28080  1.0000
  H   H36       1.0  0.58090  0.13830  0.21920  1.0000
  C   C29       1.0  0.55390  0.16360  0.74380  1.0000
  C   C30       1.0  0.44610  0.66360  0.75620  1.0000
  C   C31       1.0  0.44610  0.83640  0.25620  1.0000
  C   C32       1.0  0.55390  0.33640  0.24380  1.0000
  C   C33       1.0  0.32230  0.33330  0.68520  1.0000
  C   C34       1.0  0.67770  0.83330  0.81480  1.0000
  C   C35       1.0  0.67770  0.66670  0.31480  1.0000
  C   C36       1.0  0.32230  0.16670  0.18520  1.0000
  C   C37       1.0  0.17950  0.47850  0.83870  1.0000
  C   C38       1.0  0.82050  0.97850  0.66130  1.0000
  C   C39       1.0  0.82050  0.52150  0.16130  1.0000
  C   C40       1.0  0.17950  0.02150  0.33870  1.0000
  H   H37       1.0  0.27120  0.46630  0.87560  1.0000
  H   H38       1.0  0.72880  0.96630  0.62440  1.0000
  H   H39       1.0  0.72880  0.53370  0.12440  1.0000
  H   H40       1.0  0.27120  0.03370  0.37560  1.0000
  C   C41       1.0  0.00570  0.52720  0.79170  1.0000
  C   C42       1.0  0.99430  0.02720  0.70830  1.0000
  C   C43       1.0  0.99430  0.47280  0.20830  1.0000
  C   C44       1.0  0.00570  0.97280  0.29170  1.0000
  H   H41       1.0  0.95100  0.55650  0.79030  1.0000
  H   H42       1.0  0.04900  0.05650  0.70970  1.0000
  H   H43       1.0  0.04900  0.44350  0.20970  1.0000
  H   H44       1.0  0.95100  0.94350  0.29030  1.0000
