data_image0
_chemical_formula_structural       Ag2S2O2H4O2H2O10C6H2C4H2C2H2C2
_chemical_formula_sum              "Ag2 S2 O14 H12 C14"
_cell_length_a       7.896
_cell_length_b       8.048
_cell_length_c       11.884
_cell_angle_alpha    105.423
_cell_angle_beta     102.466
_cell_angle_gamma    93.548

_space_group_name_H-M_alt    "P 1"
_space_group_IT_number       1

loop_
  _space_group_symop_operation_xyz
  'x, y, z'

loop_
  _atom_site_type_symbol
  _atom_site_label
  _atom_site_symmetry_multiplicity
  _atom_site_fract_x
  _atom_site_fract_y
  _atom_site_fract_z
  _atom_site_occupancy
  Ag  Ag1       1.0  0.59806  0.57637  0.62428  1.0000
  Ag  Ag2       1.0  0.40194  0.42363  0.37572  1.0000
  S   S1        1.0  0.26320  0.43968  0.74775  1.0000
  S   S2        1.0  0.73680  0.56032  0.25225  1.0000
  O   O1        1.0  0.85540  0.64380  0.81320  1.0000
  O   O2        1.0  0.14460  0.35620  0.18680  1.0000
  H   H1        1.0  0.94800  0.59700  0.78100  1.0000
  H   H2        1.0  0.05200  0.40300  0.21900  1.0000
  H   H3        1.0  0.83100  0.56700  0.85700  1.0000
  H   H4        1.0  0.16900  0.43300  0.14300  1.0000
  O   O3        1.0  0.16020  0.85930  0.30825  1.0000
  O   O4        1.0  0.83980  0.14070  0.69175  1.0000
  H   H5        1.0  0.20200  0.78100  0.33100  1.0000
  H   H6        1.0  0.79800  0.21900  0.66900  1.0000
  O   O5        1.0  0.45970  0.80970  0.62502  1.0000
  O   O6        1.0  0.54030  0.19030  0.37498  1.0000
  O   O7        1.0  0.31820  0.68520  0.43496  1.0000
  O   O8        1.0  0.68180  0.31480  0.56504  1.0000
  O   O9        1.0  0.21420  0.36990  0.83912  1.0000
  O   O10       1.0  0.78580  0.63010  0.16088  1.0000
  O   O11       1.0  0.15410  0.56860  0.71835  1.0000
  O   O12       1.0  0.84590  0.43140  0.28165  1.0000
  O   O13       1.0  0.44900  0.50470  0.78151  1.0000
  O   O14       1.0  0.55100  0.49530  0.21849  1.0000
  C   C1        1.0  0.18630  0.98950  0.41100  1.0000
  C   C2        1.0  0.81370  0.01050  0.58900  1.0000
  C   C3        1.0  0.28210  0.97530  0.52150  1.0000
  C   C4        1.0  0.71790  0.02470  0.47850  1.0000
  C   C5        1.0  0.30320  0.11540  0.62330  1.0000
  C   C6        1.0  0.69680  0.88460  0.37670  1.0000
  H   H7        1.0  0.36680  0.10840  0.69710  1.0000
  H   H8        1.0  0.63320  0.89160  0.30290  1.0000
  C   C7        1.0  0.23060  0.26500  0.61600  1.0000
  C   C8        1.0  0.76940  0.73500  0.38400  1.0000
  C   C9        1.0  0.13650  0.27950  0.50660  1.0000
  C   C10       1.0  0.86350  0.72050  0.49340  1.0000
  H   H9        1.0  0.08830  0.38070  0.50210  1.0000
  H   H10       1.0  0.91170  0.61930  0.49790  1.0000
  C   C11       1.0  0.11550  0.14150  0.40480  1.0000
  C   C12       1.0  0.88450  0.85850  0.59520  1.0000
  H   H11       1.0  0.05320  0.15020  0.33120  1.0000
  H   H12       1.0  0.94680  0.84980  0.66880  1.0000
  C   C13       1.0  0.35950  0.81250  0.52910  1.0000
  C   C14       1.0  0.64050  0.18750  0.47090  1.0000
