data_image0
_chemical_formula_structural       C36O24Cl12Mn2Cr2
_chemical_formula_sum              "C36 O24 Cl12 Mn2 Cr2"
_cell_length_a       13.6939
_cell_length_b       13.6939
_cell_length_c       9.1823
_cell_angle_alpha    90
_cell_angle_beta     90
_cell_angle_gamma    120

_space_group_name_H-M_alt    "P 1"
_space_group_IT_number       1

loop_
  _space_group_symop_operation_xyz
  'x, y, z'

loop_
  _atom_site_type_symbol
  _atom_site_label
  _atom_site_symmetry_multiplicity
  _atom_site_fract_x
  _atom_site_fract_y
  _atom_site_fract_z
  _atom_site_occupancy
  C   C1        1.0  0.23920  0.15250  0.31810  1.0000
  C   C2        1.0  0.84750  0.08670  0.31810  1.0000
  C   C3        1.0  0.91330  0.76080  0.31810  1.0000
  C   C4        1.0  0.84750  0.76080  0.18190  1.0000
  C   C5        1.0  0.23920  0.08670  0.18190  1.0000
  C   C6        1.0  0.91330  0.15250  0.18190  1.0000
  C   C7        1.0  0.76080  0.84750  0.68190  1.0000
  C   C8        1.0  0.15250  0.91330  0.68190  1.0000
  C   C9        1.0  0.08670  0.23920  0.68190  1.0000
  C   C10       1.0  0.15250  0.23920  0.81810  1.0000
  C   C11       1.0  0.76080  0.91330  0.81810  1.0000
  C   C12       1.0  0.08670  0.84750  0.81810  1.0000
  C   C13       1.0  0.34320  0.23320  0.37810  1.0000
  C   C14       1.0  0.76680  0.11000  0.37810  1.0000
  C   C15       1.0  0.89000  0.65680  0.37810  1.0000
  C   C16       1.0  0.76680  0.65680  0.12190  1.0000
  C   C17       1.0  0.34320  0.11000  0.12190  1.0000
  C   C18       1.0  0.89000  0.23320  0.12190  1.0000
  C   C19       1.0  0.65680  0.76680  0.62190  1.0000
  C   C20       1.0  0.23320  0.89000  0.62190  1.0000
  C   C21       1.0  0.11000  0.34320  0.62190  1.0000
  C   C22       1.0  0.23320  0.34320  0.87810  1.0000
  C   C23       1.0  0.65680  0.89000  0.87810  1.0000
  C   C24       1.0  0.11000  0.76680  0.87810  1.0000
  C   C25       1.0  0.44260  0.25220  0.31820  1.0000
  C   C26       1.0  0.74780  0.19040  0.31820  1.0000
  C   C27       1.0  0.80960  0.55740  0.31820  1.0000
  C   C28       1.0  0.74780  0.55740  0.18180  1.0000
  C   C29       1.0  0.44260  0.19040  0.18180  1.0000
  C   C30       1.0  0.80960  0.25220  0.18180  1.0000
  C   C31       1.0  0.55740  0.74780  0.68180  1.0000
  C   C32       1.0  0.25220  0.80960  0.68180  1.0000
  C   C33       1.0  0.19040  0.44260  0.68180  1.0000
  C   C34       1.0  0.25220  0.44260  0.81820  1.0000
  C   C35       1.0  0.55740  0.80960  0.81820  1.0000
  C   C36       1.0  0.19040  0.74780  0.81820  1.0000
  O   O1        1.0  0.14570  0.12920  0.36660  1.0000
  O   O2        1.0  0.87080  0.01650  0.36660  1.0000
  O   O3        1.0  0.98350  0.85430  0.36660  1.0000
  O   O4        1.0  0.87080  0.85430  0.13340  1.0000
  O   O5        1.0  0.14570  0.01650  0.13340  1.0000
  O   O6        1.0  0.98350  0.12920  0.13340  1.0000
  O   O7        1.0  0.85430  0.87080  0.63340  1.0000
  O   O8        1.0  0.12920  0.98350  0.63340  1.0000
  O   O9        1.0  0.01650  0.14570  0.63340  1.0000
  O   O10       1.0  0.12920  0.14570  0.86660  1.0000
  O   O11       1.0  0.85430  0.98350  0.86660  1.0000
  O   O12       1.0  0.01650  0.87080  0.86660  1.0000
  O   O13       1.0  0.54170  0.32290  0.36700  1.0000
  O   O14       1.0  0.67710  0.21880  0.36700  1.0000
  O   O15       1.0  0.78120  0.45830  0.36700  1.0000
  O   O16       1.0  0.67710  0.45830  0.13300  1.0000
  O   O17       1.0  0.54170  0.21880  0.13300  1.0000
  O   O18       1.0  0.78120  0.32290  0.13300  1.0000
  O   O19       1.0  0.45830  0.67710  0.63300  1.0000
  O   O20       1.0  0.32290  0.78120  0.63300  1.0000
  O   O21       1.0  0.21880  0.54170  0.63300  1.0000
  O   O22       1.0  0.32290  0.54170  0.86700  1.0000
  O   O23       1.0  0.45830  0.78120  0.86700  1.0000
  O   O24       1.0  0.21880  0.67710  0.86700  1.0000
  Cl  Cl1       1.0  0.34321  0.30320  0.53400  1.0000
  Cl  Cl2       1.0  0.69680  0.04001  0.53400  1.0000
  Cl  Cl3       1.0  0.95999  0.65679  0.53400  1.0000
  Cl  Cl4       1.0  0.69680  0.65679  0.96600  1.0000
  Cl  Cl5       1.0  0.34321  0.04001  0.96600  1.0000
  Cl  Cl6       1.0  0.95999  0.30320  0.96600  1.0000
  Cl  Cl7       1.0  0.65679  0.69680  0.46600  1.0000
  Cl  Cl8       1.0  0.30320  0.95999  0.46600  1.0000
  Cl  Cl9       1.0  0.04001  0.34321  0.46600  1.0000
  Cl  Cl10      1.0  0.30320  0.34321  0.03400  1.0000
  Cl  Cl11      1.0  0.65679  0.95999  0.03400  1.0000
  Cl  Cl12      1.0  0.04001  0.69680  0.03400  1.0000
  Mn  Mn1       1.0  0.00000  0.00000  0.25000  1.0000
  Mn  Mn2       1.0  0.00000  0.00000  0.75000  1.0000
  Cr  Cr1       1.0  0.66670  0.33330  0.25000  1.0000
  Cr  Cr2       1.0  0.33330  0.66670  0.75000  1.0000
