data_image0
_chemical_formula_structural       Cu2O4H4O16H4O4C28H4C28H4C4H4C4H4C4H4C4H4C4H4C4H4C4H4C4H4
_chemical_formula_sum              "Cu2 O24 H48 C88"
_cell_length_a       13.189
_cell_length_b       18.059
_cell_length_c       11.436
_cell_angle_alpha    90
_cell_angle_beta     102.319
_cell_angle_gamma    90

_space_group_name_H-M_alt    "P 1"
_space_group_IT_number       1

loop_
  _space_group_symop_operation_xyz
  'x, y, z'

loop_
  _atom_site_type_symbol
  _atom_site_label
  _atom_site_symmetry_multiplicity
  _atom_site_fract_x
  _atom_site_fract_y
  _atom_site_fract_z
  _atom_site_occupancy
  Cu  Cu1       1.0  0.00000  0.50000  0.00000  1.0000
  Cu  Cu2       1.0  0.00000  0.00000  0.50000  1.0000
  O   O1        1.0  0.12050  0.55743  0.69570  1.0000
  O   O2        1.0  0.87950  0.05743  0.80430  1.0000
  O   O3        1.0  0.87950  0.44257  0.30430  1.0000
  O   O4        1.0  0.12050  0.94257  0.19570  1.0000
  H   H1        1.0  0.09162  0.55350  0.75211  1.0000
  H   H2        1.0  0.90838  0.05350  0.74789  1.0000
  H   H3        1.0  0.90838  0.44650  0.24789  1.0000
  H   H4        1.0  0.09162  0.94650  0.25211  1.0000
  O   O5        1.0  0.07650  0.56417  0.12630  1.0000
  O   O6        1.0  0.92350  0.06417  0.37370  1.0000
  O   O7        1.0  0.92350  0.43583  0.87370  1.0000
  O   O8        1.0  0.07650  0.93583  0.62630  1.0000
  O   O9        1.0  0.10680  0.46301  0.24050  1.0000
  O   O10       1.0  0.89320  0.96301  0.25950  1.0000
  O   O11       1.0  0.89320  0.53699  0.75950  1.0000
  O   O12       1.0  0.10680  0.03699  0.74050  1.0000
  O   O13       1.0  0.10000  0.51853  0.90200  1.0000
  O   O14       1.0  0.90000  0.01853  0.59800  1.0000
  O   O15       1.0  0.90000  0.48147  0.09800  1.0000
  O   O16       1.0  0.10000  0.98147  0.40200  1.0000
  O   O17       1.0  0.19710  0.47185  0.45800  1.0000
  O   O18       1.0  0.80290  0.97185  0.04200  1.0000
  O   O19       1.0  0.80290  0.52815  0.54200  1.0000
  O   O20       1.0  0.19710  0.02815  0.95800  1.0000
  H   H5        1.0  0.17110  0.45231  0.39390  1.0000
  H   H6        1.0  0.82890  0.95231  0.10610  1.0000
  H   H7        1.0  0.82890  0.54769  0.60610  1.0000
  H   H8        1.0  0.17110  0.04769  0.89390  1.0000
  O   O21       1.0  0.19880  0.42700  0.99300  1.0000
  O   O22       1.0  0.80120  0.92700  0.50700  1.0000
  O   O23       1.0  0.80120  0.57300  0.00700  1.0000
  O   O24       1.0  0.19880  0.07300  0.49300  1.0000
  C   C1        1.0  0.22230  0.53450  0.73060  1.0000
  C   C2        1.0  0.77770  0.03450  0.76940  1.0000
  C   C3        1.0  0.77770  0.46550  0.26940  1.0000
  C   C4        1.0  0.22230  0.96550  0.23060  1.0000
  C   C5        1.0  0.25690  0.66570  0.52740  1.0000
  C   C6        1.0  0.74310  0.16570  0.97260  1.0000
  C   C7        1.0  0.74310  0.33430  0.47260  1.0000
  C   C8        1.0  0.25690  0.83430  0.02740  1.0000
  C   C9        1.0  0.16240  0.57870  0.32950  1.0000
  C   C10       1.0  0.83760  0.07870  0.17050  1.0000
  C   C11       1.0  0.83760  0.42130  0.67050  1.0000
  C   C12       1.0  0.16240  0.92130  0.82950  1.0000
  C   C13       1.0  0.25340  0.49350  0.83810  1.0000
  C   C14       1.0  0.74660  0.99350  0.66190  1.0000
  C   C15       1.0  0.74660  0.50650  0.16190  1.0000
  C   C16       1.0  0.25340  0.00650  0.33810  1.0000
  C   C17       1.0  0.11180  0.53220  0.22470  1.0000
  C   C18       1.0  0.88820  0.03220  0.27530  1.0000
  C   C19       1.0  0.88820  0.46780  0.77530  1.0000
  C   C20       1.0  0.11180  0.96780  0.72470  1.0000
  C   C21       1.0  0.20330  0.54580  0.44250  1.0000
  C   C22       1.0  0.79670  0.04580  0.05750  1.0000
  C   C23       1.0  0.79670  0.45420  0.55750  1.0000
  C   C24       1.0  0.20330  0.95420  0.94250  1.0000
  C   C25       1.0  0.30400  0.71210  0.62220  1.0000
  C   C26       1.0  0.69600  0.21210  0.87780  1.0000
  C   C27       1.0  0.69600  0.28790  0.37780  1.0000
  C   C28       1.0  0.30400  0.78790  0.12220  1.0000
  H   H9        1.0  0.33290  0.69127  0.69623  1.0000
  H   H10       1.0  0.66710  0.19127  0.80377  1.0000
  H   H11       1.0  0.66710  0.30873  0.30377  1.0000
  H   H12       1.0  0.33290  0.80873  0.19623  1.0000
  C   C29       1.0  0.25000  0.58820  0.53990  1.0000
  C   C30       1.0  0.75000  0.08820  0.96010  1.0000
  C   C31       1.0  0.75000  0.41180  0.46010  1.0000
  C   C32       1.0  0.25000  0.91180  0.03990  1.0000
  C   C33       1.0  0.18110  0.47640  0.91840  1.0000
  C   C34       1.0  0.81890  0.97640  0.58160  1.0000
  C   C35       1.0  0.81890  0.52360  0.08160  1.0000
  C   C36       1.0  0.18110  0.02360  0.41840  1.0000
  C   C37       1.0  0.21410  0.69960  0.41400  1.0000
  C   C38       1.0  0.78590  0.19960  0.08600  1.0000
  C   C39       1.0  0.78590  0.30040  0.58600  1.0000
  C   C40       1.0  0.21410  0.80040  0.91400  1.0000
  C   C41       1.0  0.39420  0.52930  0.69400  1.0000
  C   C42       1.0  0.60580  0.02930  0.80600  1.0000
  C   C43       1.0  0.60580  0.47070  0.30600  1.0000
  C   C44       1.0  0.39420  0.97070  0.19400  1.0000
  C   C45       1.0  0.28870  0.55060  0.65730  1.0000
  C   C46       1.0  0.71130  0.05060  0.84270  1.0000
  C   C47       1.0  0.71130  0.44940  0.34270  1.0000
  C   C48       1.0  0.28870  0.94940  0.15730  1.0000
  C   C49       1.0  0.42790  0.48870  0.80270  1.0000
  C   C50       1.0  0.57210  0.98870  0.69730  1.0000
  C   C51       1.0  0.57210  0.51130  0.19730  1.0000
  C   C52       1.0  0.42790  0.01130  0.30270  1.0000
  C   C53       1.0  0.35460  0.47110  0.87020  1.0000
  C   C54       1.0  0.64540  0.97110  0.62980  1.0000
  C   C55       1.0  0.64540  0.52890  0.12980  1.0000
  C   C56       1.0  0.35460  0.02890  0.37020  1.0000
  H   H13       1.0  0.37531  0.44310  0.93945  1.0000
  H   H14       1.0  0.62469  0.94310  0.56055  1.0000
  H   H15       1.0  0.62469  0.55690  0.06055  1.0000
  H   H16       1.0  0.37531  0.05690  0.43945  1.0000
  C   C57       1.0  0.16890  0.65360  0.31850  1.0000
  C   C58       1.0  0.83110  0.15360  0.18150  1.0000
  C   C59       1.0  0.83110  0.34640  0.68150  1.0000
  C   C60       1.0  0.16890  0.84640  0.81850  1.0000
  H   H17       1.0  0.14210  0.67504  0.24440  1.0000
  H   H18       1.0  0.85790  0.17504  0.25560  1.0000
  H   H19       1.0  0.85790  0.32496  0.75560  1.0000
  H   H20       1.0  0.14210  0.82496  0.74440  1.0000
  C   C61       1.0  0.47050  0.54810  0.62760  1.0000
  C   C62       1.0  0.52950  0.04810  0.87240  1.0000
  C   C63       1.0  0.52950  0.45190  0.37240  1.0000
  C   C64       1.0  0.47050  0.95190  0.12760  1.0000
  H   H21       1.0  0.45067  0.57418  0.55620  1.0000
  H   H22       1.0  0.54933  0.07418  0.94380  1.0000
  H   H23       1.0  0.54933  0.42582  0.44380  1.0000
  H   H24       1.0  0.45067  0.92582  0.05620  1.0000
  C   C65       1.0  0.26440  0.82020  0.49830  1.0000
  C   C66       1.0  0.73560  0.32020  0.00170  1.0000
  C   C67       1.0  0.73560  0.17980  0.50170  1.0000
  C   C68       1.0  0.26440  0.67980  0.99830  1.0000
  H   H25       1.0  0.26626  0.87137  0.49052  1.0000
  H   H26       1.0  0.73374  0.37137  0.00948  1.0000
  H   H27       1.0  0.73374  0.12863  0.50948  1.0000
  H   H28       1.0  0.26626  0.62863  0.99052  1.0000
  C   C69       1.0  0.53300  0.46900  0.83830  1.0000
  C   C70       1.0  0.46700  0.96900  0.66170  1.0000
  C   C71       1.0  0.46700  0.53100  0.16170  1.0000
  C   C72       1.0  0.53300  0.03100  0.33830  1.0000
  H   H29       1.0  0.55463  0.44149  0.90789  1.0000
  H   H30       1.0  0.44537  0.94149  0.59211  1.0000
  H   H31       1.0  0.44537  0.55851  0.09211  1.0000
  H   H32       1.0  0.55463  0.05851  0.40789  1.0000
  C   C73       1.0  0.30820  0.78700  0.60780  1.0000
  C   C74       1.0  0.69180  0.28700  0.89220  1.0000
  C   C75       1.0  0.69180  0.21300  0.39220  1.0000
  C   C76       1.0  0.30820  0.71300  0.10780  1.0000
  H   H33       1.0  0.34072  0.81632  0.67178  1.0000
  H   H34       1.0  0.65928  0.31632  0.82822  1.0000
  H   H35       1.0  0.65928  0.18368  0.32822  1.0000
  H   H36       1.0  0.34072  0.68368  0.17178  1.0000
  C   C77       1.0  0.21950  0.77820  0.40400  1.0000
  C   C78       1.0  0.78050  0.27820  0.09600  1.0000
  C   C79       1.0  0.78050  0.22180  0.59600  1.0000
  C   C80       1.0  0.21950  0.72180  0.90400  1.0000
  H   H37       1.0  0.19162  0.80088  0.33123  1.0000
  H   H38       1.0  0.80838  0.30088  0.16877  1.0000
  H   H39       1.0  0.80838  0.19912  0.66877  1.0000
  H   H40       1.0  0.19162  0.69912  0.83123  1.0000
  C   C81       1.0  0.60330  0.48870  0.77440  1.0000
  C   C82       1.0  0.39670  0.98870  0.72560  1.0000
  C   C83       1.0  0.39670  0.51130  0.22560  1.0000
  C   C84       1.0  0.60330  0.01130  0.27440  1.0000
  H   H41       1.0  0.67270  0.47601  0.80138  1.0000
  H   H42       1.0  0.32730  0.97601  0.69862  1.0000
  H   H43       1.0  0.32730  0.52399  0.19862  1.0000
  H   H44       1.0  0.67270  0.02399  0.30138  1.0000
  C   C85       1.0  0.57240  0.52860  0.66700  1.0000
  C   C86       1.0  0.42760  0.02860  0.83300  1.0000
  C   C87       1.0  0.42760  0.47140  0.33300  1.0000
  C   C88       1.0  0.57240  0.97140  0.16700  1.0000
  H   H45       1.0  0.62120  0.54168  0.62273  1.0000
  H   H46       1.0  0.37880  0.04168  0.87727  1.0000
  H   H47       1.0  0.37880  0.45832  0.37727  1.0000
  H   H48       1.0  0.62120  0.95832  0.12273  1.0000
