data_image0
_chemical_formula_structural       Zn4O8H8O8H8O32C96H8C16H8C8H8C8H8C8H8C8H8C8H8C8H8C8H8C8H8
_chemical_formula_sum              "Zn4 O48 H96 C176"
_cell_length_a       20.724
_cell_length_b       11.1436
_cell_length_c       24.187
_cell_angle_alpha    90
_cell_angle_beta     91.031
_cell_angle_gamma    90

_space_group_name_H-M_alt    "P 1"
_space_group_IT_number       1

loop_
  _space_group_symop_operation_xyz
  'x, y, z'

loop_
  _atom_site_type_symbol
  _atom_site_label
  _atom_site_symmetry_multiplicity
  _atom_site_fract_x
  _atom_site_fract_y
  _atom_site_fract_z
  _atom_site_occupancy
  Zn  Zn1       1.0  0.00000  0.77623  0.25000  1.0000
  Zn  Zn2       1.0  0.50000  0.27623  0.25000  1.0000
  Zn  Zn3       1.0  0.00000  0.22377  0.75000  1.0000
  Zn  Zn4       1.0  0.50000  0.72377  0.75000  1.0000
  O   O1        1.0  0.75943  0.68060  0.34308  1.0000
  O   O2        1.0  0.24057  0.68060  0.15692  1.0000
  O   O3        1.0  0.25943  0.18060  0.34308  1.0000
  O   O4        1.0  0.74057  0.18060  0.15692  1.0000
  O   O5        1.0  0.24057  0.31940  0.65692  1.0000
  O   O6        1.0  0.75943  0.31940  0.84308  1.0000
  O   O7        1.0  0.74057  0.81940  0.65692  1.0000
  O   O8        1.0  0.25943  0.81940  0.84308  1.0000
  H   H1        1.0  0.77935  0.72540  0.32262  1.0000
  H   H2        1.0  0.22065  0.72540  0.17738  1.0000
  H   H3        1.0  0.27935  0.22540  0.32262  1.0000
  H   H4        1.0  0.72065  0.22540  0.17738  1.0000
  H   H5        1.0  0.22065  0.27460  0.67738  1.0000
  H   H6        1.0  0.77935  0.27460  0.82262  1.0000
  H   H7        1.0  0.72065  0.77460  0.67738  1.0000
  H   H8        1.0  0.27935  0.77460  0.82262  1.0000
  O   O9        1.0  0.67535  0.40500  0.32069  1.0000
  O   O10       1.0  0.32465  0.40500  0.17931  1.0000
  O   O11       1.0  0.17535  0.90500  0.32069  1.0000
  O   O12       1.0  0.82465  0.90500  0.17931  1.0000
  O   O13       1.0  0.32465  0.59500  0.67931  1.0000
  O   O14       1.0  0.67535  0.59500  0.82069  1.0000
  O   O15       1.0  0.82465  0.09500  0.67931  1.0000
  O   O16       1.0  0.17535  0.09500  0.82069  1.0000
  H   H9        1.0  0.64384  0.38709  0.30142  1.0000
  H   H10       1.0  0.35616  0.38709  0.19858  1.0000
  H   H11       1.0  0.14384  0.88709  0.30142  1.0000
  H   H12       1.0  0.85616  0.88709  0.19858  1.0000
  H   H13       1.0  0.35616  0.61291  0.69858  1.0000
  H   H14       1.0  0.64384  0.61291  0.80142  1.0000
  H   H15       1.0  0.85616  0.11291  0.69858  1.0000
  H   H16       1.0  0.14384  0.11291  0.80142  1.0000
  O   O17       1.0  0.55742  0.36820  0.29781  1.0000
  O   O18       1.0  0.44258  0.36820  0.20219  1.0000
  O   O19       1.0  0.05742  0.86820  0.29781  1.0000
  O   O20       1.0  0.94258  0.86820  0.20219  1.0000
  O   O21       1.0  0.44258  0.63180  0.70219  1.0000
  O   O22       1.0  0.55742  0.63180  0.79781  1.0000
  O   O23       1.0  0.94258  0.13180  0.70219  1.0000
  O   O24       1.0  0.05742  0.13180  0.79781  1.0000
  O   O25       1.0  0.94998  0.66580  0.29355  1.0000
  O   O26       1.0  0.05002  0.66580  0.20645  1.0000
  O   O27       1.0  0.44998  0.16580  0.29355  1.0000
  O   O28       1.0  0.55002  0.16580  0.20645  1.0000
  O   O29       1.0  0.05002  0.33420  0.70645  1.0000
  O   O30       1.0  0.94998  0.33420  0.79355  1.0000
  O   O31       1.0  0.55002  0.83420  0.70645  1.0000
  O   O32       1.0  0.44998  0.83420  0.79355  1.0000
  O   O33       1.0  0.85812  0.76920  0.29417  1.0000
  O   O34       1.0  0.14188  0.76920  0.20583  1.0000
  O   O35       1.0  0.35812  0.26920  0.29417  1.0000
  O   O36       1.0  0.64188  0.26920  0.20583  1.0000
  O   O37       1.0  0.14188  0.23080  0.70583  1.0000
  O   O38       1.0  0.85812  0.23080  0.79417  1.0000
  O   O39       1.0  0.64188  0.73080  0.70583  1.0000
  O   O40       1.0  0.35812  0.73080  0.79417  1.0000
  O   O41       1.0  0.47975  0.43880  0.35010  1.0000
  O   O42       1.0  0.52025  0.43880  0.14990  1.0000
  O   O43       1.0  0.97975  0.93880  0.35010  1.0000
  O   O44       1.0  0.02025  0.93880  0.14990  1.0000
  O   O45       1.0  0.52025  0.56120  0.64990  1.0000
  O   O46       1.0  0.47975  0.56120  0.85010  1.0000
  O   O47       1.0  0.02025  0.06120  0.64990  1.0000
  O   O48       1.0  0.97975  0.06120  0.85010  1.0000
  C   C1        1.0  0.79750  0.58690  0.35790  1.0000
  C   C2        1.0  0.20250  0.58690  0.14210  1.0000
  C   C3        1.0  0.29750  0.08690  0.35790  1.0000
  C   C4        1.0  0.70250  0.08690  0.14210  1.0000
  C   C5        1.0  0.20250  0.41310  0.64210  1.0000
  C   C6        1.0  0.79750  0.41310  0.85790  1.0000
  C   C7        1.0  0.70250  0.91310  0.64210  1.0000
  C   C8        1.0  0.29750  0.91310  0.85790  1.0000
  C   C9        1.0  0.70190  0.50330  0.40380  1.0000
  C   C10       1.0  0.29810  0.50330  0.09620  1.0000
  C   C11       1.0  0.20190  0.00330  0.40380  1.0000
  C   C12       1.0  0.79810  0.00330  0.09620  1.0000
  C   C13       1.0  0.29810  0.49670  0.59620  1.0000
  C   C14       1.0  0.70190  0.49670  0.90380  1.0000
  C   C15       1.0  0.79810  0.99670  0.59620  1.0000
  C   C16       1.0  0.20190  0.99670  0.90380  1.0000
  C   C17       1.0  0.68310  0.55610  0.45400  1.0000
  C   C18       1.0  0.31690  0.55610  0.04600  1.0000
  C   C19       1.0  0.18310  0.05610  0.45400  1.0000
  C   C20       1.0  0.81690  0.05610  0.04600  1.0000
  C   C21       1.0  0.31690  0.44390  0.54600  1.0000
  C   C22       1.0  0.68310  0.44390  0.95400  1.0000
  C   C23       1.0  0.81690  0.94390  0.54600  1.0000
  C   C24       1.0  0.18310  0.94390  0.95400  1.0000
  C   C25       1.0  0.77140  0.49510  0.38840  1.0000
  C   C26       1.0  0.22860  0.49510  0.11160  1.0000
  C   C27       1.0  0.27140  0.99510  0.38840  1.0000
  C   C28       1.0  0.72860  0.99510  0.11160  1.0000
  C   C29       1.0  0.22860  0.50490  0.61160  1.0000
  C   C30       1.0  0.77140  0.50490  0.88840  1.0000
  C   C31       1.0  0.72860  0.00490  0.61160  1.0000
  C   C32       1.0  0.27140  0.00490  0.88840  1.0000
  C   C33       1.0  0.89140  0.68010  0.30660  1.0000
  C   C34       1.0  0.10860  0.68010  0.19340  1.0000
  C   C35       1.0  0.39140  0.18010  0.30660  1.0000
  C   C36       1.0  0.60860  0.18010  0.19340  1.0000
  C   C37       1.0  0.10860  0.31990  0.69340  1.0000
  C   C38       1.0  0.89140  0.31990  0.80660  1.0000
  C   C39       1.0  0.60860  0.81990  0.69340  1.0000
  C   C40       1.0  0.39140  0.81990  0.80660  1.0000
  C   C41       1.0  0.65540  0.45980  0.36780  1.0000
  C   C42       1.0  0.34460  0.45980  0.13220  1.0000
  C   C43       1.0  0.15540  0.95980  0.36780  1.0000
  C   C44       1.0  0.84460  0.95980  0.13220  1.0000
  C   C45       1.0  0.34460  0.54020  0.63220  1.0000
  C   C46       1.0  0.65540  0.54020  0.86780  1.0000
  C   C47       1.0  0.84460  0.04020  0.63220  1.0000
  C   C48       1.0  0.15540  0.04020  0.86780  1.0000
  C   C49       1.0  0.86350  0.58140  0.34060  1.0000
  C   C50       1.0  0.13650  0.58140  0.15940  1.0000
  C   C51       1.0  0.36350  0.08140  0.34060  1.0000
  C   C52       1.0  0.63650  0.08140  0.15940  1.0000
  C   C53       1.0  0.13650  0.41860  0.65940  1.0000
  C   C54       1.0  0.86350  0.41860  0.84060  1.0000
  C   C55       1.0  0.63650  0.91860  0.65940  1.0000
  C   C56       1.0  0.36350  0.91860  0.84060  1.0000
  C   C57       1.0  0.87540  0.39020  0.38690  1.0000
  C   C58       1.0  0.12460  0.39020  0.11310  1.0000
  C   C59       1.0  0.37540  0.89020  0.38690  1.0000
  C   C60       1.0  0.62460  0.89020  0.11310  1.0000
  C   C61       1.0  0.12460  0.60980  0.61310  1.0000
  C   C62       1.0  0.87540  0.60980  0.88690  1.0000
  C   C63       1.0  0.62460  0.10980  0.61310  1.0000
  C   C64       1.0  0.37540  0.10980  0.88690  1.0000
  C   C65       1.0  0.61610  0.56780  0.46650  1.0000
  C   C66       1.0  0.38390  0.56780  0.03350  1.0000
  C   C67       1.0  0.11610  0.06780  0.46650  1.0000
  C   C68       1.0  0.88390  0.06780  0.03350  1.0000
  C   C69       1.0  0.38390  0.43220  0.53350  1.0000
  C   C70       1.0  0.61610  0.43220  0.96650  1.0000
  C   C71       1.0  0.88390  0.93220  0.53350  1.0000
  C   C72       1.0  0.11610  0.93220  0.96650  1.0000
  C   C73       1.0  0.58830  0.47120  0.37950  1.0000
  C   C74       1.0  0.41170  0.47120  0.12050  1.0000
  C   C75       1.0  0.08830  0.97120  0.37950  1.0000
  C   C76       1.0  0.91170  0.97120  0.12050  1.0000
  C   C77       1.0  0.41170  0.52880  0.62050  1.0000
  C   C78       1.0  0.58830  0.52880  0.87950  1.0000
  C   C79       1.0  0.91170  0.02880  0.62050  1.0000
  C   C80       1.0  0.08830  0.02880  0.87950  1.0000
  C   C81       1.0  0.81010  0.39460  0.40390  1.0000
  C   C82       1.0  0.18990  0.39460  0.09610  1.0000
  C   C83       1.0  0.31010  0.89460  0.40390  1.0000
  C   C84       1.0  0.68990  0.89460  0.09610  1.0000
  C   C85       1.0  0.18990  0.60540  0.59610  1.0000
  C   C86       1.0  0.81010  0.60540  0.90390  1.0000
  C   C87       1.0  0.68990  0.10540  0.59610  1.0000
  C   C88       1.0  0.31010  0.10540  0.90390  1.0000
  C   C89       1.0  0.90000  0.48470  0.35590  1.0000
  C   C90       1.0  0.10000  0.48470  0.14410  1.0000
  C   C91       1.0  0.40000  0.98470  0.35590  1.0000
  C   C92       1.0  0.60000  0.98470  0.14410  1.0000
  C   C93       1.0  0.10000  0.51530  0.64410  1.0000
  C   C94       1.0  0.90000  0.51530  0.85590  1.0000
  C   C95       1.0  0.60000  0.01530  0.64410  1.0000
  C   C96       1.0  0.40000  0.01530  0.85590  1.0000
  H   H17       1.0  0.94289  0.48165  0.34526  1.0000
  H   H18       1.0  0.05711  0.48165  0.15474  1.0000
  H   H19       1.0  0.44289  0.98165  0.34526  1.0000
  H   H20       1.0  0.55711  0.98165  0.15474  1.0000
  H   H21       1.0  0.05711  0.51835  0.65474  1.0000
  H   H22       1.0  0.94289  0.51835  0.84526  1.0000
  H   H23       1.0  0.55711  0.01835  0.65474  1.0000
  H   H24       1.0  0.44289  0.01835  0.84526  1.0000
  C   C97       1.0  0.53710  0.42440  0.34060  1.0000
  C   C98       1.0  0.46290  0.42440  0.15940  1.0000
  C   C99       1.0  0.03710  0.92440  0.34060  1.0000
  C   C100      1.0  0.96290  0.92440  0.15940  1.0000
  C   C101      1.0  0.46290  0.57560  0.65940  1.0000
  C   C102      1.0  0.53710  0.57560  0.84060  1.0000
  C   C103      1.0  0.96290  0.07560  0.65940  1.0000
  C   C104      1.0  0.03710  0.07560  0.84060  1.0000
  C   C105      1.0  0.72750  0.59650  0.49400  1.0000
  C   C106      1.0  0.27250  0.59650  0.00600  1.0000
  C   C107      1.0  0.22750  0.09650  0.49400  1.0000
  C   C108      1.0  0.77250  0.09650  0.00600  1.0000
  C   C109      1.0  0.27250  0.40350  0.50600  1.0000
  C   C110      1.0  0.72750  0.40350  0.99400  1.0000
  C   C111      1.0  0.77250  0.90350  0.50600  1.0000
  C   C112      1.0  0.22750  0.90350  0.99400  1.0000
  H   H25       1.0  0.77132  0.59108  0.48672  1.0000
  H   H26       1.0  0.22868  0.59108  0.01328  1.0000
  H   H27       1.0  0.27132  0.09108  0.48672  1.0000
  H   H28       1.0  0.72868  0.09108  0.01328  1.0000
  H   H29       1.0  0.22868  0.40892  0.51328  1.0000
  H   H30       1.0  0.77132  0.40892  0.98672  1.0000
  H   H31       1.0  0.72868  0.90892  0.51328  1.0000
  H   H32       1.0  0.27132  0.90892  0.98672  1.0000
  C   C113      1.0  0.57040  0.52510  0.42690  1.0000
  C   C114      1.0  0.42960  0.52510  0.07310  1.0000
  C   C115      1.0  0.07040  0.02510  0.42690  1.0000
  C   C116      1.0  0.92960  0.02510  0.07310  1.0000
  C   C117      1.0  0.42960  0.47490  0.57310  1.0000
  C   C118      1.0  0.57040  0.47490  0.92690  1.0000
  C   C119      1.0  0.92960  0.97490  0.57310  1.0000
  C   C120      1.0  0.07040  0.97490  0.92690  1.0000
  H   H33       1.0  0.52666  0.53445  0.43374  1.0000
  H   H34       1.0  0.47334  0.53445  0.06626  1.0000
  H   H35       1.0  0.02666  0.03445  0.43374  1.0000
  H   H36       1.0  0.97334  0.03445  0.06626  1.0000
  H   H37       1.0  0.47334  0.46555  0.56626  1.0000
  H   H38       1.0  0.52666  0.46555  0.93374  1.0000
  H   H39       1.0  0.97334  0.96555  0.56626  1.0000
  H   H40       1.0  0.02666  0.96555  0.93374  1.0000
  C   C121      1.0  0.59820  0.61870  0.51740  1.0000
  C   C122      1.0  0.40180  0.61870  0.98260  1.0000
  C   C123      1.0  0.09820  0.11870  0.51740  1.0000
  C   C124      1.0  0.90180  0.11870  0.98260  1.0000
  C   C125      1.0  0.40180  0.38130  0.48260  1.0000
  C   C126      1.0  0.59820  0.38130  0.01740  1.0000
  C   C127      1.0  0.90180  0.88130  0.48260  1.0000
  C   C128      1.0  0.09820  0.88130  0.01740  1.0000
  H   H41       1.0  0.55468  0.62797  0.52529  1.0000
  H   H42       1.0  0.44532  0.62797  0.97471  1.0000
  H   H43       1.0  0.05468  0.12797  0.52529  1.0000
  H   H44       1.0  0.94532  0.12797  0.97471  1.0000
  H   H45       1.0  0.44532  0.37203  0.47471  1.0000
  H   H46       1.0  0.55468  0.37203  0.02529  1.0000
  H   H47       1.0  0.94532  0.87203  0.47471  1.0000
  H   H48       1.0  0.05468  0.87203  0.02529  1.0000
  C   C129      1.0  0.78640  0.29680  0.43400  1.0000
  C   C130      1.0  0.21360  0.29680  0.06600  1.0000
  C   C131      1.0  0.28640  0.79680  0.43400  1.0000
  C   C132      1.0  0.71360  0.79680  0.06600  1.0000
  C   C133      1.0  0.21360  0.70320  0.56600  1.0000
  C   C134      1.0  0.78640  0.70320  0.93400  1.0000
  C   C135      1.0  0.71360  0.20320  0.56600  1.0000
  C   C136      1.0  0.28640  0.20320  0.93400  1.0000
  H   H49       1.0  0.74375  0.29758  0.44522  1.0000
  H   H50       1.0  0.25625  0.29758  0.05478  1.0000
  H   H51       1.0  0.24375  0.79758  0.44522  1.0000
  H   H52       1.0  0.75625  0.79758  0.05478  1.0000
  H   H53       1.0  0.25625  0.70242  0.55478  1.0000
  H   H54       1.0  0.74375  0.70242  0.94522  1.0000
  H   H55       1.0  0.75625  0.20242  0.55478  1.0000
  H   H56       1.0  0.24375  0.20242  0.94522  1.0000
  C   C137      1.0  0.91320  0.28780  0.40110  1.0000
  C   C138      1.0  0.08680  0.28780  0.09890  1.0000
  C   C139      1.0  0.41320  0.78780  0.40110  1.0000
  C   C140      1.0  0.58680  0.78780  0.09890  1.0000
  C   C141      1.0  0.08680  0.71220  0.59890  1.0000
  C   C142      1.0  0.91320  0.71220  0.90110  1.0000
  C   C143      1.0  0.58680  0.21220  0.59890  1.0000
  C   C144      1.0  0.41320  0.21220  0.90110  1.0000
  H   H57       1.0  0.95595  0.28386  0.39011  1.0000
  H   H58       1.0  0.04405  0.28386  0.10989  1.0000
  H   H59       1.0  0.45595  0.78386  0.39011  1.0000
  H   H60       1.0  0.54405  0.78386  0.10989  1.0000
  H   H61       1.0  0.04405  0.71614  0.60989  1.0000
  H   H62       1.0  0.95595  0.71614  0.89011  1.0000
  H   H63       1.0  0.54405  0.21614  0.60989  1.0000
  H   H64       1.0  0.45595  0.21614  0.89011  1.0000
  C   C145      1.0  0.70880  0.64350  0.54330  1.0000
  C   C146      1.0  0.29120  0.64350  0.95670  1.0000
  C   C147      1.0  0.20880  0.14350  0.54330  1.0000
  C   C148      1.0  0.79120  0.14350  0.95670  1.0000
  C   C149      1.0  0.29120  0.35650  0.45670  1.0000
  C   C150      1.0  0.70880  0.35650  0.04330  1.0000
  C   C151      1.0  0.79120  0.85650  0.45670  1.0000
  C   C152      1.0  0.20880  0.85650  0.04330  1.0000
  H   H65       1.0  0.73980  0.66849  0.56914  1.0000
  H   H66       1.0  0.26020  0.66849  0.93086  1.0000
  H   H67       1.0  0.23980  0.16849  0.56914  1.0000
  H   H68       1.0  0.76020  0.16849  0.93086  1.0000
  H   H69       1.0  0.26020  0.33151  0.43086  1.0000
  H   H70       1.0  0.73980  0.33151  0.06914  1.0000
  H   H71       1.0  0.76020  0.83151  0.43086  1.0000
  H   H72       1.0  0.23980  0.83151  0.06914  1.0000
  C   C153      1.0  0.64370  0.65420  0.55500  1.0000
  C   C154      1.0  0.35630  0.65420  0.94500  1.0000
  C   C155      1.0  0.14370  0.15420  0.55500  1.0000
  C   C156      1.0  0.85630  0.15420  0.94500  1.0000
  C   C157      1.0  0.35630  0.34580  0.44500  1.0000
  C   C158      1.0  0.64370  0.34580  0.05500  1.0000
  C   C159      1.0  0.85630  0.84580  0.44500  1.0000
  C   C160      1.0  0.14370  0.84580  0.05500  1.0000
  H   H73       1.0  0.63120  0.68574  0.58877  1.0000
  H   H74       1.0  0.36880  0.68574  0.91123  1.0000
  H   H75       1.0  0.13120  0.18574  0.58877  1.0000
  H   H76       1.0  0.86880  0.18574  0.91123  1.0000
  H   H77       1.0  0.36880  0.31426  0.41123  1.0000
  H   H78       1.0  0.63120  0.31426  0.08877  1.0000
  H   H79       1.0  0.86880  0.81426  0.41123  1.0000
  H   H80       1.0  0.13120  0.81426  0.08877  1.0000
  C   C161      1.0  0.82400  0.20170  0.44710  1.0000
  C   C162      1.0  0.17600  0.20170  0.05290  1.0000
  C   C163      1.0  0.32400  0.70170  0.44710  1.0000
  C   C164      1.0  0.67600  0.70170  0.05290  1.0000
  C   C165      1.0  0.17600  0.79830  0.55290  1.0000
  C   C166      1.0  0.82400  0.79830  0.94710  1.0000
  C   C167      1.0  0.67600  0.29830  0.55290  1.0000
  C   C168      1.0  0.32400  0.29830  0.94710  1.0000
  H   H81       1.0  0.80690  0.13884  0.46743  1.0000
  H   H82       1.0  0.19310  0.13884  0.03257  1.0000
  H   H83       1.0  0.30690  0.63884  0.46743  1.0000
  H   H84       1.0  0.69310  0.63884  0.03257  1.0000
  H   H85       1.0  0.19310  0.86116  0.53257  1.0000
  H   H86       1.0  0.80690  0.86116  0.96743  1.0000
  H   H87       1.0  0.69310  0.36116  0.53257  1.0000
  H   H88       1.0  0.30690  0.36116  0.96743  1.0000
  C   C169      1.0  0.88820  0.19640  0.43040  1.0000
  C   C170      1.0  0.11180  0.19640  0.06960  1.0000
  C   C171      1.0  0.38820  0.69640  0.43040  1.0000
  C   C172      1.0  0.61180  0.69640  0.06960  1.0000
  C   C173      1.0  0.11180  0.80360  0.56960  1.0000
  C   C174      1.0  0.88820  0.80360  0.93040  1.0000
  C   C175      1.0  0.61180  0.30360  0.56960  1.0000
  C   C176      1.0  0.38820  0.30360  0.93040  1.0000
  H   H89       1.0  0.91351  0.13016  0.43949  1.0000
  H   H90       1.0  0.08649  0.13016  0.06051  1.0000
  H   H91       1.0  0.41351  0.63016  0.43949  1.0000
  H   H92       1.0  0.58649  0.63016  0.06051  1.0000
  H   H93       1.0  0.08649  0.86984  0.56051  1.0000
  H   H94       1.0  0.91351  0.86984  0.93949  1.0000
  H   H95       1.0  0.58649  0.36984  0.56051  1.0000
  H   H96       1.0  0.41351  0.36984  0.93949  1.0000
