data_image0
_chemical_formula_structural       Mo24As8Cu8O96H16O8H16O16N16H8N16H8C8H8C8H8C8H8C8H8C8H8C8H8
_chemical_formula_sum              "Mo24 As8 Cu8 O120 H96 N32 C48"
_cell_length_a       28.8067
_cell_length_b       10.1018
_cell_length_c       19.6209
_cell_angle_alpha    90
_cell_angle_beta     99.006
_cell_angle_gamma    90

_space_group_name_H-M_alt    "P 1"
_space_group_IT_number       1

loop_
  _space_group_symop_operation_xyz
  'x, y, z'

loop_
  _atom_site_type_symbol
  _atom_site_label
  _atom_site_symmetry_multiplicity
  _atom_site_fract_x
  _atom_site_fract_y
  _atom_site_fract_z
  _atom_site_occupancy
  Mo  Mo1       1.0  0.76209  0.77124  0.33800  1.0000
  Mo  Mo2       1.0  0.23791  0.77124  0.16200  1.0000
  Mo  Mo3       1.0  0.26209  0.27124  0.33800  1.0000
  Mo  Mo4       1.0  0.73791  0.27124  0.16200  1.0000
  Mo  Mo5       1.0  0.23791  0.22876  0.66200  1.0000
  Mo  Mo6       1.0  0.76209  0.22876  0.83800  1.0000
  Mo  Mo7       1.0  0.73791  0.72876  0.66200  1.0000
  Mo  Mo8       1.0  0.26209  0.72876  0.83800  1.0000
  Mo  Mo9       1.0  0.65527  0.76309  0.38161  1.0000
  Mo  Mo10      1.0  0.34473  0.76309  0.11839  1.0000
  Mo  Mo11      1.0  0.15527  0.26309  0.38161  1.0000
  Mo  Mo12      1.0  0.84473  0.26309  0.11839  1.0000
  Mo  Mo13      1.0  0.34473  0.23691  0.61839  1.0000
  Mo  Mo14      1.0  0.65527  0.23691  0.88161  1.0000
  Mo  Mo15      1.0  0.84473  0.73691  0.61839  1.0000
  Mo  Mo16      1.0  0.15527  0.73691  0.88161  1.0000
  Mo  Mo17      1.0  0.64367  0.74790  0.54476  1.0000
  Mo  Mo18      1.0  0.35633  0.74790  0.95524  1.0000
  Mo  Mo19      1.0  0.14367  0.24790  0.54476  1.0000
  Mo  Mo20      1.0  0.85633  0.24790  0.95524  1.0000
  Mo  Mo21      1.0  0.35633  0.25210  0.45524  1.0000
  Mo  Mo22      1.0  0.64367  0.25210  0.04476  1.0000
  Mo  Mo23      1.0  0.85633  0.75210  0.45524  1.0000
  Mo  Mo24      1.0  0.14367  0.75210  0.04476  1.0000
  As  As1       1.0  0.74900  0.57603  0.49389  1.0000
  As  As2       1.0  0.25100  0.57603  0.00611  1.0000
  As  As3       1.0  0.24900  0.07603  0.49389  1.0000
  As  As4       1.0  0.75100  0.07603  0.00611  1.0000
  As  As5       1.0  0.25100  0.42397  0.50611  1.0000
  As  As6       1.0  0.74900  0.42397  0.99389  1.0000
  As  As7       1.0  0.75100  0.92397  0.50611  1.0000
  As  As8       1.0  0.24900  0.92397  0.99389  1.0000
  Cu  Cu1       1.0  0.72664  0.27903  0.41625  1.0000
  Cu  Cu2       1.0  0.27336  0.27903  0.08375  1.0000
  Cu  Cu3       1.0  0.22664  0.77903  0.41625  1.0000
  Cu  Cu4       1.0  0.77336  0.77903  0.08375  1.0000
  Cu  Cu5       1.0  0.27336  0.72097  0.58375  1.0000
  Cu  Cu6       1.0  0.72664  0.72097  0.91625  1.0000
  Cu  Cu7       1.0  0.77336  0.22097  0.58375  1.0000
  Cu  Cu8       1.0  0.22664  0.22097  0.91625  1.0000
  O   O1        1.0  0.78236  0.63830  0.43633  1.0000
  O   O2        1.0  0.21764  0.63830  0.06367  1.0000
  O   O3        1.0  0.28236  0.13830  0.43633  1.0000
  O   O4        1.0  0.71764  0.13830  0.06367  1.0000
  O   O5        1.0  0.21764  0.36170  0.56367  1.0000
  O   O6        1.0  0.78236  0.36170  0.93633  1.0000
  O   O7        1.0  0.71764  0.86170  0.56367  1.0000
  O   O8        1.0  0.28236  0.86170  0.93633  1.0000
  O   O9        1.0  0.77275  0.61910  0.57588  1.0000
  O   O10       1.0  0.22725  0.61910  0.92412  1.0000
  O   O11       1.0  0.27275  0.11910  0.57588  1.0000
  O   O12       1.0  0.72725  0.11910  0.92412  1.0000
  O   O13       1.0  0.22725  0.38090  0.42412  1.0000
  O   O14       1.0  0.77275  0.38090  0.07588  1.0000
  O   O15       1.0  0.72725  0.88090  0.42412  1.0000
  O   O16       1.0  0.27275  0.88090  0.07588  1.0000
  O   O17       1.0  0.69264  0.63380  0.47480  1.0000
  O   O18       1.0  0.30736  0.63380  0.02520  1.0000
  O   O19       1.0  0.19264  0.13380  0.47480  1.0000
  O   O20       1.0  0.80736  0.13380  0.02520  1.0000
  O   O21       1.0  0.30736  0.36620  0.52520  1.0000
  O   O22       1.0  0.69264  0.36620  0.97480  1.0000
  O   O23       1.0  0.80736  0.86620  0.52520  1.0000
  O   O24       1.0  0.19264  0.86620  0.97480  1.0000
  O   O25       1.0  0.70352  0.68240  0.33955  1.0000
  O   O26       1.0  0.29648  0.68240  0.16045  1.0000
  O   O27       1.0  0.20352  0.18240  0.33955  1.0000
  O   O28       1.0  0.79648  0.18240  0.16045  1.0000
  O   O29       1.0  0.29648  0.31760  0.66045  1.0000
  O   O30       1.0  0.70352  0.31760  0.83955  1.0000
  O   O31       1.0  0.79648  0.81760  0.66045  1.0000
  O   O32       1.0  0.20352  0.81760  0.83955  1.0000
  O   O33       1.0  0.63845  0.84560  0.46091  1.0000
  O   O34       1.0  0.36155  0.84560  0.03909  1.0000
  O   O35       1.0  0.13845  0.34560  0.46091  1.0000
  O   O36       1.0  0.86155  0.34560  0.03909  1.0000
  O   O37       1.0  0.36155  0.15440  0.53909  1.0000
  O   O38       1.0  0.63845  0.15440  0.96091  1.0000
  O   O39       1.0  0.86155  0.65440  0.53909  1.0000
  O   O40       1.0  0.13845  0.65440  0.96091  1.0000
  O   O41       1.0  0.68278  0.64800  0.61325  1.0000
  O   O42       1.0  0.31722  0.64800  0.88675  1.0000
  O   O43       1.0  0.18278  0.14800  0.61325  1.0000
  O   O44       1.0  0.81722  0.14800  0.88675  1.0000
  O   O45       1.0  0.31722  0.35200  0.38675  1.0000
  O   O46       1.0  0.68278  0.35200  0.11325  1.0000
  O   O47       1.0  0.81722  0.85200  0.38675  1.0000
  O   O48       1.0  0.18278  0.85200  0.11325  1.0000
  O   O49       1.0  0.62052  0.86060  0.59452  1.0000
  O   O50       1.0  0.37948  0.86060  0.90548  1.0000
  O   O51       1.0  0.12052  0.36060  0.59452  1.0000
  O   O52       1.0  0.87948  0.36060  0.90548  1.0000
  O   O53       1.0  0.37948  0.13940  0.40548  1.0000
  O   O54       1.0  0.62052  0.13940  0.09452  1.0000
  O   O55       1.0  0.87948  0.63940  0.40548  1.0000
  O   O56       1.0  0.12052  0.63940  0.09452  1.0000
  O   O57       1.0  0.60007  0.63430  0.52282  1.0000
  O   O58       1.0  0.39993  0.63430  0.97718  1.0000
  O   O59       1.0  0.10007  0.13430  0.52282  1.0000
  O   O60       1.0  0.89993  0.13430  0.97718  1.0000
  O   O61       1.0  0.39993  0.36570  0.47718  1.0000
  O   O62       1.0  0.60007  0.36570  0.02282  1.0000
  O   O63       1.0  0.89993  0.86570  0.47718  1.0000
  O   O64       1.0  0.10007  0.86570  0.02282  1.0000
  O   O65       1.0  0.63768  0.88800  0.32431  1.0000
  O   O66       1.0  0.36232  0.88800  0.17569  1.0000
  O   O67       1.0  0.13768  0.38800  0.32431  1.0000
  O   O68       1.0  0.86232  0.38800  0.17569  1.0000
  O   O69       1.0  0.36232  0.11200  0.67569  1.0000
  O   O70       1.0  0.63768  0.11200  0.82431  1.0000
  O   O71       1.0  0.86232  0.61200  0.67569  1.0000
  O   O72       1.0  0.13768  0.61200  0.82431  1.0000
  O   O73       1.0  0.61356  0.64390  0.36365  1.0000
  O   O74       1.0  0.38644  0.64390  0.13635  1.0000
  O   O75       1.0  0.11356  0.14390  0.36365  1.0000
  O   O76       1.0  0.88644  0.14390  0.13635  1.0000
  O   O77       1.0  0.38644  0.35610  0.63635  1.0000
  O   O78       1.0  0.61356  0.35610  0.86365  1.0000
  O   O79       1.0  0.88644  0.85610  0.63635  1.0000
  O   O80       1.0  0.11356  0.85610  0.86365  1.0000
  O   O81       1.0  0.74904  0.41060  0.48953  1.0000
  O   O82       1.0  0.25096  0.41060  0.01047  1.0000
  O   O83       1.0  0.24904  0.91060  0.48953  1.0000
  O   O84       1.0  0.75096  0.91060  0.01047  1.0000
  O   O85       1.0  0.25096  0.58940  0.51047  1.0000
  O   O86       1.0  0.74904  0.58940  0.98953  1.0000
  O   O87       1.0  0.75096  0.08940  0.51047  1.0000
  O   O88       1.0  0.24904  0.08940  0.98953  1.0000
  O   O89       1.0  0.70392  0.12910  0.35163  1.0000
  O   O90       1.0  0.29608  0.12910  0.14837  1.0000
  O   O91       1.0  0.20392  0.62910  0.35163  1.0000
  O   O92       1.0  0.79608  0.62910  0.14837  1.0000
  O   O93       1.0  0.29608  0.87090  0.64837  1.0000
  O   O94       1.0  0.70392  0.87090  0.85163  1.0000
  O   O95       1.0  0.79608  0.37090  0.64837  1.0000
  O   O96       1.0  0.20392  0.37090  0.85163  1.0000
  H   H1        1.0  0.70970  0.04980  0.36540  1.0000
  H   H2        1.0  0.29030  0.04980  0.13460  1.0000
  H   H3        1.0  0.20970  0.54980  0.36540  1.0000
  H   H4        1.0  0.79030  0.54980  0.13460  1.0000
  H   H5        1.0  0.29030  0.95020  0.63460  1.0000
  H   H6        1.0  0.70970  0.95020  0.86540  1.0000
  H   H7        1.0  0.79030  0.45020  0.63460  1.0000
  H   H8        1.0  0.20970  0.45020  0.86540  1.0000
  H   H9        1.0  0.71270  0.13950  0.31350  1.0000
  H   H10       1.0  0.28730  0.13950  0.18650  1.0000
  H   H11       1.0  0.21270  0.63950  0.31350  1.0000
  H   H12       1.0  0.78730  0.63950  0.18650  1.0000
  H   H13       1.0  0.28730  0.86050  0.68650  1.0000
  H   H14       1.0  0.71270  0.86050  0.81350  1.0000
  H   H15       1.0  0.78730  0.36050  0.68650  1.0000
  H   H16       1.0  0.21270  0.36050  0.81350  1.0000
  O   O97       1.0  0.70020  0.42080  0.32061  1.0000
  O   O98       1.0  0.29980  0.42080  0.17939  1.0000
  O   O99       1.0  0.20020  0.92080  0.32061  1.0000
  O   O100      1.0  0.79980  0.92080  0.17939  1.0000
  O   O101      1.0  0.29980  0.57920  0.67939  1.0000
  O   O102      1.0  0.70020  0.57920  0.82061  1.0000
  O   O103      1.0  0.79980  0.07920  0.67939  1.0000
  O   O104      1.0  0.20020  0.07920  0.82061  1.0000
  H   H17       1.0  0.69490  0.49830  0.33140  1.0000
  H   H18       1.0  0.30510  0.49830  0.16860  1.0000
  H   H19       1.0  0.19490  0.99830  0.33140  1.0000
  H   H20       1.0  0.80510  0.99830  0.16860  1.0000
  H   H21       1.0  0.30510  0.50170  0.66860  1.0000
  H   H22       1.0  0.69490  0.50170  0.83140  1.0000
  H   H23       1.0  0.80510  0.00170  0.66860  1.0000
  H   H24       1.0  0.19490  0.00170  0.83140  1.0000
  H   H25       1.0  0.72090  0.41060  0.29450  1.0000
  H   H26       1.0  0.27910  0.41060  0.20550  1.0000
  H   H27       1.0  0.22090  0.91060  0.29450  1.0000
  H   H28       1.0  0.77910  0.91060  0.20550  1.0000
  H   H29       1.0  0.27910  0.58940  0.70550  1.0000
  H   H30       1.0  0.72090  0.58940  0.79450  1.0000
  H   H31       1.0  0.77910  0.08940  0.70550  1.0000
  H   H32       1.0  0.22090  0.08940  0.79450  1.0000
  O   O105      1.0  0.74414  0.90050  0.28349  1.0000
  O   O106      1.0  0.25586  0.90050  0.21651  1.0000
  O   O107      1.0  0.24414  0.40050  0.28349  1.0000
  O   O108      1.0  0.75586  0.40050  0.21651  1.0000
  O   O109      1.0  0.25586  0.09950  0.71651  1.0000
  O   O110      1.0  0.74414  0.09950  0.78349  1.0000
  O   O111      1.0  0.75586  0.59950  0.71651  1.0000
  O   O112      1.0  0.24414  0.59950  0.78349  1.0000
  O   O113      1.0  0.78660  0.66090  0.28810  1.0000
  O   O114      1.0  0.21340  0.66090  0.21190  1.0000
  O   O115      1.0  0.28660  0.16090  0.28810  1.0000
  O   O116      1.0  0.71340  0.16090  0.21190  1.0000
  O   O117      1.0  0.21340  0.33910  0.71190  1.0000
  O   O118      1.0  0.78660  0.33910  0.78810  1.0000
  O   O119      1.0  0.71340  0.83910  0.71190  1.0000
  O   O120      1.0  0.28660  0.83910  0.78810  1.0000
  N   N1        1.0  0.78855  0.27490  0.38371  1.0000
  N   N2        1.0  0.21145  0.27490  0.11629  1.0000
  N   N3        1.0  0.28855  0.77490  0.38371  1.0000
  N   N4        1.0  0.71145  0.77490  0.11629  1.0000
  N   N5        1.0  0.21145  0.72510  0.61629  1.0000
  N   N6        1.0  0.78855  0.72510  0.88371  1.0000
  N   N7        1.0  0.71145  0.22510  0.61629  1.0000
  N   N8        1.0  0.28855  0.22510  0.88371  1.0000
  N   N9        1.0  0.81238  0.38660  0.37378  1.0000
  N   N10       1.0  0.18762  0.38660  0.12622  1.0000
  N   N11       1.0  0.31238  0.88660  0.37378  1.0000
  N   N12       1.0  0.68762  0.88660  0.12622  1.0000
  N   N13       1.0  0.18762  0.61340  0.62622  1.0000
  N   N14       1.0  0.81238  0.61340  0.87378  1.0000
  N   N15       1.0  0.68762  0.11340  0.62622  1.0000
  N   N16       1.0  0.31238  0.11340  0.87378  1.0000
  H   H33       1.0  0.80530  0.46530  0.38850  1.0000
  H   H34       1.0  0.19470  0.46530  0.11150  1.0000
  H   H35       1.0  0.30530  0.96530  0.38850  1.0000
  H   H36       1.0  0.69470  0.96530  0.11150  1.0000
  H   H37       1.0  0.19470  0.53470  0.61150  1.0000
  H   H38       1.0  0.80530  0.53470  0.88850  1.0000
  H   H39       1.0  0.69470  0.03470  0.61150  1.0000
  H   H40       1.0  0.30530  0.03470  0.88850  1.0000
  N   N17       1.0  0.66408  0.27180  0.44623  1.0000
  N   N18       1.0  0.33592  0.27180  0.05377  1.0000
  N   N19       1.0  0.16408  0.77180  0.44623  1.0000
  N   N20       1.0  0.83592  0.77180  0.05377  1.0000
  N   N21       1.0  0.33592  0.72820  0.55377  1.0000
  N   N22       1.0  0.66408  0.72820  0.94623  1.0000
  N   N23       1.0  0.83592  0.22820  0.55377  1.0000
  N   N24       1.0  0.16408  0.22820  0.94623  1.0000
  N   N25       1.0  0.64267  0.37350  0.47196  1.0000
  N   N26       1.0  0.35733  0.37350  0.02804  1.0000
  N   N27       1.0  0.14267  0.87350  0.47196  1.0000
  N   N28       1.0  0.85733  0.87350  0.02804  1.0000
  N   N29       1.0  0.35733  0.62650  0.52804  1.0000
  N   N30       1.0  0.64267  0.62650  0.97196  1.0000
  N   N31       1.0  0.85733  0.12650  0.52804  1.0000
  N   N32       1.0  0.14267  0.12650  0.97196  1.0000
  H   H41       1.0  0.65260  0.45590  0.47220  1.0000
  H   H42       1.0  0.34740  0.45590  0.02780  1.0000
  H   H43       1.0  0.15260  0.95590  0.47220  1.0000
  H   H44       1.0  0.84740  0.95590  0.02780  1.0000
  H   H45       1.0  0.34740  0.54410  0.52780  1.0000
  H   H46       1.0  0.65260  0.54410  0.97220  1.0000
  H   H47       1.0  0.84740  0.04410  0.52780  1.0000
  H   H48       1.0  0.15260  0.04410  0.97220  1.0000
  C   C1        1.0  0.84778  0.36370  0.33910  1.0000
  C   C2        1.0  0.15222  0.36370  0.16090  1.0000
  C   C3        1.0  0.34778  0.86370  0.33910  1.0000
  C   C4        1.0  0.65222  0.86370  0.16090  1.0000
  C   C5        1.0  0.15222  0.63630  0.66090  1.0000
  C   C6        1.0  0.84778  0.63630  0.83910  1.0000
  C   C7        1.0  0.65222  0.13630  0.66090  1.0000
  C   C8        1.0  0.34778  0.13630  0.83910  1.0000
  H   H49       1.0  0.86920  0.42700  0.32610  1.0000
  H   H50       1.0  0.13080  0.42700  0.17390  1.0000
  H   H51       1.0  0.36920  0.92700  0.32610  1.0000
  H   H52       1.0  0.63080  0.92700  0.17390  1.0000
  H   H53       1.0  0.13080  0.57300  0.67390  1.0000
  H   H54       1.0  0.86920  0.57300  0.82610  1.0000
  H   H55       1.0  0.63080  0.07300  0.67390  1.0000
  H   H56       1.0  0.36920  0.07300  0.82610  1.0000
  C   C9        1.0  0.84723  0.22950  0.32560  1.0000
  C   C10       1.0  0.15277  0.22950  0.17440  1.0000
  C   C11       1.0  0.34723  0.72950  0.32560  1.0000
  C   C12       1.0  0.65277  0.72950  0.17440  1.0000
  C   C13       1.0  0.15277  0.77050  0.67440  1.0000
  C   C14       1.0  0.84723  0.77050  0.82560  1.0000
  C   C15       1.0  0.65277  0.27050  0.67440  1.0000
  C   C16       1.0  0.34723  0.27050  0.82560  1.0000
  H   H57       1.0  0.86810  0.18190  0.30160  1.0000
  H   H58       1.0  0.13190  0.18190  0.19840  1.0000
  H   H59       1.0  0.36810  0.68190  0.30160  1.0000
  H   H60       1.0  0.63190  0.68190  0.19840  1.0000
  H   H61       1.0  0.13190  0.81810  0.69840  1.0000
  H   H62       1.0  0.86810  0.81810  0.80160  1.0000
  H   H63       1.0  0.63190  0.31810  0.69840  1.0000
  H   H64       1.0  0.36810  0.31810  0.80160  1.0000
  C   C17       1.0  0.81032  0.17880  0.35410  1.0000
  C   C18       1.0  0.18968  0.17880  0.14590  1.0000
  C   C19       1.0  0.31032  0.67880  0.35410  1.0000
  C   C20       1.0  0.68968  0.67880  0.14590  1.0000
  C   C21       1.0  0.18968  0.82120  0.64590  1.0000
  C   C22       1.0  0.81032  0.82120  0.85410  1.0000
  C   C23       1.0  0.68968  0.32120  0.64590  1.0000
  C   C24       1.0  0.31032  0.32120  0.85410  1.0000
  H   H65       1.0  0.80150  0.08810  0.35290  1.0000
  H   H66       1.0  0.19850  0.08810  0.14710  1.0000
  H   H67       1.0  0.30150  0.58810  0.35290  1.0000
  H   H68       1.0  0.69850  0.58810  0.14710  1.0000
  H   H69       1.0  0.19850  0.91190  0.64710  1.0000
  H   H70       1.0  0.80150  0.91190  0.85290  1.0000
  H   H71       1.0  0.69850  0.41190  0.64710  1.0000
  H   H72       1.0  0.30150  0.41190  0.85290  1.0000
  C   C25       1.0  0.60451  0.33480  0.49710  1.0000
  C   C26       1.0  0.39549  0.33480  0.00290  1.0000
  C   C27       1.0  0.10451  0.83480  0.49710  1.0000
  C   C28       1.0  0.89549  0.83480  0.00290  1.0000
  C   C29       1.0  0.39549  0.66520  0.50290  1.0000
  C   C30       1.0  0.60451  0.66520  0.99710  1.0000
  C   C31       1.0  0.89549  0.16520  0.50290  1.0000
  C   C32       1.0  0.10451  0.16520  0.99710  1.0000
  H   H73       1.0  0.58390  0.38950  0.51810  1.0000
  H   H74       1.0  0.41610  0.38950  0.98190  1.0000
  H   H75       1.0  0.08390  0.88950  0.51810  1.0000
  H   H76       1.0  0.91610  0.88950  0.98190  1.0000
  H   H77       1.0  0.41610  0.61050  0.48190  1.0000
  H   H78       1.0  0.58390  0.61050  0.01810  1.0000
  H   H79       1.0  0.91610  0.11050  0.48190  1.0000
  H   H80       1.0  0.08390  0.11050  0.01810  1.0000
  C   C33       1.0  0.60065  0.19960  0.48670  1.0000
  C   C34       1.0  0.39935  0.19960  0.01330  1.0000
  C   C35       1.0  0.10065  0.69960  0.48670  1.0000
  C   C36       1.0  0.89935  0.69960  0.01330  1.0000
  C   C37       1.0  0.39935  0.80040  0.51330  1.0000
  C   C38       1.0  0.60065  0.80040  0.98670  1.0000
  C   C39       1.0  0.89935  0.30040  0.51330  1.0000
  C   C40       1.0  0.10065  0.30040  0.98670  1.0000
  H   H81       1.0  0.57700  0.14250  0.49880  1.0000
  H   H82       1.0  0.42300  0.14250  0.00120  1.0000
  H   H83       1.0  0.07700  0.64250  0.49880  1.0000
  H   H84       1.0  0.92300  0.64250  0.00120  1.0000
  H   H85       1.0  0.42300  0.85750  0.50120  1.0000
  H   H86       1.0  0.57700  0.85750  0.99880  1.0000
  H   H87       1.0  0.92300  0.35750  0.50120  1.0000
  H   H88       1.0  0.07700  0.35750  0.99880  1.0000
  C   C41       1.0  0.63826  0.16570  0.45530  1.0000
  C   C42       1.0  0.36174  0.16570  0.04470  1.0000
  C   C43       1.0  0.13826  0.66570  0.45530  1.0000
  C   C44       1.0  0.86174  0.66570  0.04470  1.0000
  C   C45       1.0  0.36174  0.83430  0.54470  1.0000
  C   C46       1.0  0.63826  0.83430  0.95530  1.0000
  C   C47       1.0  0.86174  0.33430  0.54470  1.0000
  C   C48       1.0  0.13826  0.33430  0.95530  1.0000
  H   H89       1.0  0.64500  0.07830  0.44180  1.0000
  H   H90       1.0  0.35500  0.07830  0.05820  1.0000
  H   H91       1.0  0.14500  0.57830  0.44180  1.0000
  H   H92       1.0  0.85500  0.57830  0.05820  1.0000
  H   H93       1.0  0.35500  0.92170  0.55820  1.0000
  H   H94       1.0  0.64500  0.92170  0.94180  1.0000
  H   H95       1.0  0.85500  0.42170  0.55820  1.0000
  H   H96       1.0  0.14500  0.42170  0.94180  1.0000
