data_image0
_chemical_formula_structural       Cu4S8O4C2O2C4O2C10
_chemical_formula_sum              "Cu4 S8 O8 C16"
_cell_length_a       7.792
_cell_length_b       9.587
_cell_length_c       14.788
_cell_angle_alpha    82.34
_cell_angle_beta     82.68
_cell_angle_gamma    73.47

_space_group_name_H-M_alt    "P 1"
_space_group_IT_number       1

loop_
  _space_group_symop_operation_xyz
  'x, y, z'

loop_
  _atom_site_type_symbol
  _atom_site_label
  _atom_site_symmetry_multiplicity
  _atom_site_fract_x
  _atom_site_fract_y
  _atom_site_fract_z
  _atom_site_occupancy
  Cu  Cu1       1.0  0.82660  0.54020  0.50940  1.0000
  Cu  Cu2       1.0  0.17340  0.45980  0.49060  1.0000
  Cu  Cu3       1.0  0.50530  0.69240  0.48700  1.0000
  Cu  Cu4       1.0  0.49470  0.30760  0.51300  1.0000
  S   S1        1.0  0.74420  0.78360  0.43340  1.0000
  S   S2        1.0  0.25580  0.21640  0.56660  1.0000
  S   S3        1.0  0.98900  0.42810  0.37440  1.0000
  S   S4        1.0  0.01100  0.57190  0.62560  1.0000
  S   S5        1.0  0.67470  0.38460  0.59060  1.0000
  S   S6        1.0  0.32530  0.61540  0.40940  1.0000
  S   S7        1.0  0.38610  0.77040  0.62570  1.0000
  S   S8        1.0  0.61390  0.22960  0.37430  1.0000
  O   O1        1.0  0.82930  0.91700  0.19410  1.0000
  O   O2        1.0  0.17070  0.08300  0.80590  1.0000
  O   O3        1.0  0.47910  0.28430  0.80680  1.0000
  O   O4        1.0  0.52090  0.71570  0.19320  1.0000
  C   C1        1.0  0.52840  0.46450  0.67710  1.0000
  C   C2        1.0  0.47160  0.53550  0.32290  1.0000
  O   O5        1.0  0.25260  0.62200  0.84290  1.0000
  O   O6        1.0  0.74740  0.37800  0.15710  1.0000
  C   C3        1.0  0.84220  0.72960  0.33040  1.0000
  C   C4        1.0  0.15780  0.27040  0.66960  1.0000
  C   C5        1.0  0.42640  0.60870  0.68940  1.0000
  C   C6        1.0  0.57360  0.39130  0.31060  1.0000
  O   O7        1.0  0.06790  0.59420  0.14390  1.0000
  O   O8        1.0  0.93210  0.40580  0.85610  1.0000
  C   C7        1.0  0.87230  0.79450  0.23630  1.0000
  C   C8        1.0  0.12770  0.20550  0.76370  1.0000
  C   C9        1.0  0.35390  0.56140  0.78250  1.0000
  C   C10       1.0  0.64610  0.43860  0.21750  1.0000
  C   C11       1.0  0.46230  0.40640  0.76560  1.0000
  C   C12       1.0  0.53770  0.59360  0.23440  1.0000
  C   C13       1.0  0.94200  0.58790  0.30770  1.0000
  C   C14       1.0  0.05800  0.41210  0.69230  1.0000
  C   C15       1.0  0.98210  0.64350  0.21220  1.0000
  C   C16       1.0  0.01790  0.35650  0.78780  1.0000
