data_image0
_chemical_formula_structural       Tb2Zn6O24N2O2N4O2H4O6N10O2C10H2C4N2C4O2C2O2H4C10H2C2H2C8H2C8H2C8H2C8H2C2H2C12H2C6H2C8H2C2H2O2C2H2C2H2C2H2O2C4H2C2H2C2H2C2H2C2H2C2H2C2H2C2H2C2H2C2H2C2H2C2H2C2H2C2H2C2H2C2H2C2H2C2H2C2H2C2H2C2H2C2H2
_chemical_formula_sum              "Tb2 Zn6 O44 N18 H82 C146"
_cell_length_a       10.8431
_cell_length_b       18.2389
_cell_length_c       20.7684
_cell_angle_alpha    115.666
_cell_angle_beta     95.3999
_cell_angle_gamma    94.5121

_space_group_name_H-M_alt    "P 1"
_space_group_IT_number       1

loop_
  _space_group_symop_operation_xyz
  'x, y, z'

loop_
  _atom_site_type_symbol
  _atom_site_label
  _atom_site_symmetry_multiplicity
  _atom_site_fract_x
  _atom_site_fract_y
  _atom_site_fract_z
  _atom_site_occupancy
  Tb  Tb1       1.0  0.34465  0.61120  0.99414  1.0000
  Tb  Tb2       1.0  0.65535  0.38880  0.00586  1.0000
  Zn  Zn1       1.0  0.82765  0.02697  0.40814  1.0000
  Zn  Zn2       1.0  0.17235  0.97303  0.59186  1.0000
  Zn  Zn3       1.0  0.86991  0.52084  0.38152  1.0000
  Zn  Zn4       1.0  0.13009  0.47916  0.61848  1.0000
  Zn  Zn5       1.0  0.19142  0.10996  0.08799  1.0000
  Zn  Zn6       1.0  0.80858  0.89004  0.91201  1.0000
  O   O1        1.0  0.51760  0.62863  0.07536  1.0000
  O   O2        1.0  0.48240  0.37137  0.92464  1.0000
  O   O3        1.0  0.58990  0.51537  0.07019  1.0000
  O   O4        1.0  0.41010  0.48463  0.92981  1.0000
  O   O5        1.0  0.14610  0.18778  0.05175  1.0000
  O   O6        1.0  0.85390  0.81222  0.94825  1.0000
  O   O7        1.0  0.32210  0.16894  0.17199  1.0000
  O   O8        1.0  0.67790  0.83106  0.82801  1.0000
  O   O9        1.0  0.79630  0.89924  0.22779  1.0000
  O   O10       1.0  0.20370  0.10076  0.77221  1.0000
  O   O11       1.0  0.15330  0.51386  0.95472  1.0000
  O   O12       1.0  0.84670  0.48614  0.04528  1.0000
  O   O13       1.0  0.78240  0.41169  0.35414  1.0000
  O   O14       1.0  0.21760  0.58831  0.64586  1.0000
  O   O15       1.0  0.27410  0.52201  0.04969  1.0000
  O   O16       1.0  0.72590  0.47799  0.95031  1.0000
  O   O17       1.0  0.74500  0.29881  0.90946  1.0000
  O   O18       1.0  0.25500  0.70119  0.09054  1.0000
  O   O19       1.0  0.80290  0.91134  0.34023  1.0000
  O   O20       1.0  0.19710  0.08866  0.65977  1.0000
  O   O21       1.0  0.33800  0.05877  0.18964  1.0000
  O   O22       1.0  0.66200  0.94123  0.81036  1.0000
  O   O23       1.0  0.80700  0.57245  0.32210  1.0000
  O   O24       1.0  0.19300  0.42755  0.67790  1.0000
  N   N1        1.0  0.06310  0.90179  0.49157  1.0000
  N   N2        1.0  0.93690  0.09821  0.50843  1.0000
  O   O25       1.0  0.33030  0.23580  0.03620  1.0000
  O   O26       1.0  0.66970  0.76420  0.96380  1.0000
  N   N3        1.0  0.97990  0.41907  0.53655  1.0000
  N   N4        1.0  0.02010  0.58093  0.46345  1.0000
  N   N5        1.0  0.88810  0.00552  0.92758  1.0000
  N   N6        1.0  0.11190  0.99448  0.07242  1.0000
  O   O27       1.0  0.45320  0.74288  0.01817  1.0000
  O   O28       1.0  0.54680  0.25712  0.98183  1.0000
  H   H1        1.0  0.52710  0.73800  0.00330  1.0000
  H   H2        1.0  0.47290  0.26200  0.99670  1.0000
  H   H3        1.0  0.46520  0.77600  0.06490  1.0000
  H   H4        1.0  0.53480  0.22400  0.93510  1.0000
  O   O29       1.0  0.82010  0.19509  0.82407  1.0000
  O   O30       1.0  0.17990  0.80491  0.17593  1.0000
  O   O31       1.0  0.58410  0.43270  0.33575  1.0000
  O   O32       1.0  0.41590  0.56730  0.66425  1.0000
  O   O33       1.0  0.99330  0.64110  0.33640  1.0000
  O   O34       1.0  0.00670  0.35890  0.66360  1.0000
  N   N7        1.0  0.71750  0.97656  0.99761  1.0000
  N   N8        1.0  0.28250  0.02344  0.00239  1.0000
  N   N9        1.0  0.97660  0.86965  0.85553  1.0000
  N   N10       1.0  0.02340  0.13035  0.14447  1.0000
  N   N11       1.0  0.26450  0.00151  0.51401  1.0000
  N   N12       1.0  0.73550  0.99849  0.48599  1.0000
  N   N13       1.0  0.96520  0.52377  0.66872  1.0000
  N   N14       1.0  0.03480  0.47623  0.33128  1.0000
  N   N15       1.0  0.99580  0.93300  0.61652  1.0000
  N   N16       1.0  0.00420  0.06700  0.38348  1.0000
  O   O35       1.0  0.71520  0.08080  0.36828  1.0000
  O   O36       1.0  0.28480  0.91920  0.63172  1.0000
  C   C1        1.0  0.92690  0.79930  0.35939  1.0000
  C   C2        1.0  0.07310  0.20070  0.64061  1.0000
  C   C3        1.0  0.68640  0.64400  0.16159  1.0000
  C   C4        1.0  0.31360  0.35600  0.83841  1.0000
  C   C5        1.0  0.85450  0.48290  0.62850  1.0000
  C   C6        1.0  0.14550  0.51710  0.37150  1.0000
  C   C7        1.0  0.37060  0.13070  0.20363  1.0000
  C   C8        1.0  0.62940  0.86930  0.79637  1.0000
  C   C9        1.0  0.71220  0.72840  0.18295  1.0000
  C   C10       1.0  0.28780  0.27160  0.81705  1.0000
  H   H5        1.0  0.67650  0.75070  0.15420  1.0000
  H   H6        1.0  0.32350  0.24930  0.84580  1.0000
  C   C11       1.0  0.86310  0.42420  0.55270  1.0000
  C   C12       1.0  0.13690  0.57580  0.44730  1.0000
  C   C13       1.0  0.83270  0.07030  0.96541  1.0000
  C   C14       1.0  0.16730  0.92970  0.03459  1.0000
  N   N17       1.0  0.21630  0.41260  0.51733  1.0000
  N   N18       1.0  0.78370  0.58740  0.48267  1.0000
  C   C15       1.0  0.59090  0.59150  0.09680  1.0000
  C   C16       1.0  0.40910  0.40850  0.90320  1.0000
  C   C17       1.0  0.00000  0.36640  0.47047  1.0000
  C   C18       1.0  0.00000  0.63360  0.52953  1.0000
  O   O37       1.0  0.41180  0.60270  0.88491  1.0000
  O   O38       1.0  0.58820  0.39730  0.11509  1.0000
  C   C19       1.0  0.82340  0.66030  0.26670  1.0000
  C   C20       1.0  0.17660  0.33970  0.73330  1.0000
  O   O39       1.0  0.18720  0.65910  0.93315  1.0000
  O   O40       1.0  0.81280  0.34090  0.06685  1.0000
  H   H7        1.0  0.11340  0.62540  0.91780  1.0000
  H   H8        1.0  0.88660  0.37460  0.08220  1.0000
  H   H9        1.0  0.21250  0.66160  0.89370  1.0000
  H   H10       1.0  0.78750  0.33840  0.10630  1.0000
  C   C21       1.0  0.21630  0.22970  0.02960  1.0000
  C   C22       1.0  0.78370  0.77030  0.97040  1.0000
  C   C23       1.0  0.63150  0.19130  0.36119  1.0000
  C   C24       1.0  0.36850  0.80870  0.63881  1.0000
  C   C25       1.0  0.22210  0.95190  0.44396  1.0000
  C   C26       1.0  0.77790  0.04810  0.55604  1.0000
  C   C27       1.0  0.79000  0.77900  0.24643  1.0000
  C   C28       1.0  0.21000  0.22100  0.75357  1.0000
  C   C29       1.0  0.88600  0.80570  0.42322  1.0000
  C   C30       1.0  0.11400  0.19430  0.57678  1.0000
  H   H11       1.0  0.81220  0.77500  0.42180  1.0000
  H   H12       1.0  0.18780  0.22500  0.57820  1.0000
  C   C31       1.0  0.53540  0.14550  0.30469  1.0000
  C   C32       1.0  0.46460  0.85450  0.69531  1.0000
  H   H13       1.0  0.50910  0.09140  0.29450  1.0000
  H   H14       1.0  0.49090  0.90860  0.70550  1.0000
  C   C33       1.0  0.84720  0.74580  0.28927  1.0000
  C   C34       1.0  0.15280  0.25420  0.71073  1.0000
  C   C35       1.0  0.97160  0.15710  0.93770  1.0000
  C   C36       1.0  0.02840  0.84290  0.06230  1.0000
  C   C37       1.0  0.67470  0.27240  0.37491  1.0000
  C   C38       1.0  0.32530  0.72760  0.62509  1.0000
  C   C39       1.0  0.03870  0.84510  0.36380  1.0000
  C   C40       1.0  0.96130  0.15490  0.63620  1.0000
  H   H15       1.0  0.06850  0.84150  0.32210  1.0000
  H   H16       1.0  0.93150  0.15850  0.67790  1.0000
  C   C41       1.0  0.10500  0.89620  0.43092  1.0000
  C   C42       1.0  0.89500  0.10380  0.56908  1.0000
  C   C43       1.0  0.47900  0.17950  0.26380  1.0000
  C   C44       1.0  0.52100  0.82050  0.73620  1.0000
  C   C45       1.0  0.13260  0.39910  0.98160  1.0000
  C   C46       1.0  0.86740  0.60090  0.01840  1.0000
  C   C47       1.0  0.87040  0.14740  0.97090  1.0000
  C   C48       1.0  0.12960  0.85260  0.02910  1.0000
  H   H17       1.0  0.82880  0.19170  0.99610  1.0000
  H   H18       1.0  0.17120  0.80830  0.00390  1.0000
  C   C49       1.0  0.96070  0.28850  0.92670  1.0000
  C   C50       1.0  0.03930  0.71150  0.07330  1.0000
  C   C51       1.0  0.03410  0.93510  0.85173  1.0000
  C   C52       1.0  0.96590  0.06490  0.14827  1.0000
  C   C53       1.0  0.62080  0.30540  0.33127  1.0000
  C   C54       1.0  0.37920  0.69460  0.66873  1.0000
  C   C55       1.0  0.19720  0.35270  0.00780  1.0000
  C   C56       1.0  0.80280  0.64730  0.99220  1.0000
  H   H19       1.0  0.27590  0.37420  0.03490  1.0000
  H   H20       1.0  0.72410  0.62580  0.96510  1.0000
  C   C57       1.0  0.18860  0.48350  0.99710  1.0000
  C   C58       1.0  0.81140  0.51650  0.00290  1.0000
  C   C59       1.0  0.02760  0.24120  0.95210  1.0000
  C   C60       1.0  0.97240  0.75880  0.04790  1.0000
  C   C61       1.0  0.98170  0.01310  0.89182  1.0000
  C   C62       1.0  0.01830  0.98690  0.10818  1.0000
  C   C63       1.0  0.90250  0.31550  0.41910  1.0000
  C   C64       1.0  0.09750  0.68450  0.58090  1.0000
  H   H21       1.0  0.91840  0.27720  0.37450  1.0000
  H   H22       1.0  0.08160  0.72280  0.62550  1.0000
  C   C65       1.0  0.74240  0.61120  0.20378  1.0000
  C   C66       1.0  0.25760  0.38880  0.79622  1.0000
  H   H23       1.0  0.72550  0.55520  0.18980  1.0000
  H   H24       1.0  0.27450  0.44480  0.81020  1.0000
  C   C67       1.0  0.88270  0.62270  0.31185  1.0000
  C   C68       1.0  0.11730  0.37730  0.68815  1.0000
  C   C69       1.0  0.14460  0.27400  0.99370  1.0000
  C   C70       1.0  0.85540  0.72600  0.00630  1.0000
  C   C71       1.0  0.66440  0.39090  0.34100  1.0000
  C   C72       1.0  0.33560  0.60910  0.65900  1.0000
  C   C73       1.0  0.73490  0.05430  0.00530  1.0000
  C   C74       1.0  0.26510  0.94570  0.99470  1.0000
  C   C75       1.0  0.83280  0.25710  0.88340  1.0000
  C   C76       1.0  0.16720  0.74290  0.11660  1.0000
  C   C77       1.0  0.01510  0.36700  0.94130  1.0000
  C   C78       1.0  0.98490  0.63300  0.05870  1.0000
  H   H25       1.0  0.97200  0.39820  0.92370  1.0000
  H   H26       1.0  0.02800  0.60180  0.07630  1.0000
  C   C79       1.0  0.13240  0.37010  0.45790  1.0000
  C   C80       1.0  0.86760  0.62990  0.54210  1.0000
  C   C81       1.0  0.91840  0.87460  0.56002  1.0000
  C   C82       1.0  0.08160  0.12540  0.43998  1.0000
  C   C83       1.0  0.76090  0.37710  0.50140  1.0000
  C   C84       1.0  0.23910  0.62290  0.49860  1.0000
  H   H27       1.0  0.68000  0.38310  0.51250  1.0000
  H   H28       1.0  0.32000  0.61690  0.48750  1.0000
  C   C85       1.0  0.79850  0.87100  0.27240  1.0000
  C   C86       1.0  0.20150  0.12900  0.72760  1.0000
  C   C87       1.0  0.78080  0.32150  0.43378  1.0000
  C   C88       1.0  0.21920  0.67850  0.56622  1.0000
  C   C89       1.0  0.95650  0.85820  0.48830  1.0000
  C   C90       1.0  0.04350  0.14180  0.51170  1.0000
  C   C91       1.0  0.67160  0.11450  0.04890  1.0000
  C   C92       1.0  0.32840  0.88550  0.95110  1.0000
  H   H29       1.0  0.68390  0.16700  0.05200  1.0000
  H   H30       1.0  0.31610  0.83300  0.94800  1.0000
  C   C93       1.0  0.52270  0.25960  0.27747  1.0000
  C   C94       1.0  0.47730  0.74040  0.72253  1.0000
  H   H31       1.0  0.48500  0.28270  0.24980  1.0000
  H   H32       1.0  0.51500  0.71730  0.75020  1.0000
  O   O41       1.0  0.69950  0.18570  0.47010  1.0000
  O   O42       1.0  0.30050  0.81430  0.52990  1.0000
  C   C95       1.0  0.02610  0.08860  0.89575  1.0000
  C   C96       1.0  0.97390  0.91140  0.10425  1.0000
  H   H33       1.0  0.09090  0.09330  0.87090  1.0000
  H   H34       1.0  0.90910  0.90670  0.12910  1.0000
  C   C97       1.0  0.13350  0.93020  0.81410  1.0000
  C   C98       1.0  0.86650  0.06980  0.18590  1.0000
  H   H35       1.0  0.17090  0.97620  0.81140  1.0000
  H   H36       1.0  0.82910  0.02380  0.18860  1.0000
  C   C99       1.0  0.36300  0.05870  0.53080  1.0000
  C   C100      1.0  0.63700  0.94130  0.46920  1.0000
  H   H37       1.0  0.38970  0.09470  0.57900  1.0000
  H   H38       1.0  0.61030  0.90530  0.42100  1.0000
  O   O43       1.0  0.30560  0.67070  0.83550  1.0000
  O   O44       1.0  0.69440  0.32930  0.16450  1.0000
  C   C101      1.0  0.69000  0.15170  0.40430  1.0000
  C   C102      1.0  0.31000  0.84830  0.59570  1.0000
  C   C103      1.0  0.17700  0.85470  0.78010  1.0000
  C   C104      1.0  0.82300  0.14530  0.21990  1.0000
  H   H39       1.0  0.24390  0.84960  0.75410  1.0000
  H   H40       1.0  0.75610  0.15040  0.24590  1.0000
  C   C105      1.0  0.28270  0.95530  0.38960  1.0000
  C   C106      1.0  0.71730  0.04470  0.61040  1.0000
  H   H41       1.0  0.25460  0.91920  0.34150  1.0000
  H   H42       1.0  0.74540  0.08080  0.65850  1.0000
  C   C107      1.0  0.57420  0.01760  0.08350  1.0000
  C   C108      1.0  0.42580  0.98240  0.91650  1.0000
  H   H43       1.0  0.52210  0.00420  0.11100  1.0000
  H   H44       1.0  0.47790  0.99580  0.88900  1.0000
  C   C109      1.0  0.58860  0.09610  0.08870  1.0000
  C   C110      1.0  0.41140  0.90390  0.91130  1.0000
  H   H45       1.0  0.54370  0.13580  0.11820  1.0000
  H   H46       1.0  0.45630  0.86420  0.88180  1.0000
  C   C111      1.0  0.12050  0.78790  0.78520  1.0000
  C   C112      1.0  0.87950  0.21210  0.21480  1.0000
  H   H47       1.0  0.14860  0.73710  0.76340  1.0000
  H   H48       1.0  0.85140  0.26290  0.23660  1.0000
  C   C113      1.0  0.81090  0.83650  0.56870  1.0000
  C   C114      1.0  0.18910  0.16350  0.43130  1.0000
  H   H49       1.0  0.76020  0.79500  0.52890  1.0000
  H   H50       1.0  0.23980  0.20500  0.47110  1.0000
  C   C115      1.0  0.96490  0.57660  0.73790  1.0000
  C   C116      1.0  0.03510  0.42340  0.26210  1.0000
  H   H51       1.0  0.04080  0.60430  0.76620  1.0000
  H   H52       1.0  0.95920  0.39570  0.23380  1.0000
  C   C117      1.0  0.74420  0.49490  0.65600  1.0000
  C   C118      1.0  0.25580  0.50510  0.34400  1.0000
  H   H53       1.0  0.66950  0.46550  0.62710  1.0000
  H   H54       1.0  0.33050  0.53450  0.37290  1.0000
  C   C119      1.0  0.96410  0.95580  0.68320  1.0000
  C   C120      1.0  0.03590  0.04420  0.31680  1.0000
  H   H55       1.0  0.01650  0.99680  0.72250  1.0000
  H   H56       1.0  0.98350  0.00320  0.27750  1.0000
  C   C121      1.0  0.02130  0.79800  0.82330  1.0000
  C   C122      1.0  0.97870  0.20200  0.17670  1.0000
  H   H57       1.0  0.98310  0.75270  0.82700  1.0000
  H   H58       1.0  0.01690  0.24730  0.17300  1.0000
  C   C123      1.0  0.63830  0.95960  0.03670  1.0000
  C   C124      1.0  0.36170  0.04040  0.96330  1.0000
  H   H59       1.0  0.62620  0.90640  0.03210  1.0000
  H   H60       1.0  0.37380  0.09360  0.96790  1.0000
  C   C125      1.0  0.42610  0.06600  0.47890  1.0000
  C   C126      1.0  0.57390  0.93400  0.52110  1.0000
  H   H61       1.0  0.49480  0.10590  0.49200  1.0000
  H   H62       1.0  0.50520  0.89410  0.50800  1.0000
  C   C127      1.0  0.16660  0.33490  0.38990  1.0000
  C   C128      1.0  0.83340  0.66510  0.61010  1.0000
  H   H63       1.0  0.10640  0.30560  0.34980  1.0000
  H   H64       1.0  0.89360  0.69440  0.65020  1.0000
  C   C129      1.0  0.77900  0.86060  0.63730  1.0000
  C   C130      1.0  0.22100  0.13940  0.36270  1.0000
  H   H65       1.0  0.70570  0.83650  0.64410  1.0000
  H   H66       1.0  0.29430  0.16350  0.35590  1.0000
  C   C131      1.0  0.38660  0.01390  0.40820  1.0000
  C   C132      1.0  0.61340  0.98610  0.59180  1.0000
  H   H67       1.0  0.42890  0.01750  0.37250  1.0000
  H   H68       1.0  0.57110  0.98250  0.62750  1.0000
  C   C133      1.0  0.85720  0.92080  0.69510  1.0000
  C   C134      1.0  0.14280  0.07920  0.30490  1.0000
  H   H69       1.0  0.83810  0.93750  0.74170  1.0000
  H   H70       1.0  0.16190  0.06250  0.25830  1.0000
  C   C135      1.0  0.33630  0.41950  0.50810  1.0000
  C   C136      1.0  0.66370  0.58050  0.49190  1.0000
  H   H71       1.0  0.39550  0.44840  0.54890  1.0000
  H   H72       1.0  0.60450  0.55160  0.45110  1.0000
  C   C137      1.0  0.29080  0.34350  0.38190  1.0000
  C   C138      1.0  0.70920  0.65650  0.61810  1.0000
  H   H73       1.0  0.31530  0.32040  0.33620  1.0000
  H   H74       1.0  0.68470  0.67960  0.66380  1.0000
  C   C139      1.0  0.37730  0.38640  0.44180  1.0000
  C   C140      1.0  0.62270  0.61360  0.55820  1.0000
  H   H75       1.0  0.46170  0.39310  0.43790  1.0000
  H   H76       1.0  0.53830  0.60690  0.56210  1.0000
  C   C141      1.0  0.85620  0.59160  0.76910  1.0000
  C   C142      1.0  0.14380  0.40840  0.23090  1.0000
  H   H77       1.0  0.85910  0.62840  0.81740  1.0000
  H   H78       1.0  0.14090  0.37160  0.18260  1.0000
  C   C143      1.0  0.74410  0.55090  0.72700  1.0000
  C   C144      1.0  0.25590  0.44910  0.27300  1.0000
  H   H79       1.0  0.66930  0.56090  0.74590  1.0000
  H   H80       1.0  0.33070  0.43910  0.25410  1.0000
  C   C145      1.0  0.39800  0.63540  0.84380  1.0000
  C   C146      1.0  0.60200  0.36460  0.15620  1.0000
  H   H81       1.0  0.46160  0.63400  0.81630  1.0000
  H   H82       1.0  0.53840  0.36600  0.18370  1.0000
