data_image0
_chemical_formula_structural       Zn8O48C24
_chemical_formula_sum              "Zn8 O48 C24"
_cell_length_a       15.847
_cell_length_b       9.685
_cell_length_c       18.333
_cell_angle_alpha    90
_cell_angle_beta     115.5
_cell_angle_gamma    90

_space_group_name_H-M_alt    "P 1"
_space_group_IT_number       1

loop_
  _space_group_symop_operation_xyz
  'x, y, z'

loop_
  _atom_site_type_symbol
  _atom_site_label
  _atom_site_symmetry_multiplicity
  _atom_site_fract_x
  _atom_site_fract_y
  _atom_site_fract_z
  _atom_site_occupancy
  Zn  Zn1       1.0  0.41800  0.12490  0.58610  1.0000
  Zn  Zn2       1.0  0.58200  0.12490  0.91390  1.0000
  Zn  Zn3       1.0  0.91800  0.62490  0.58610  1.0000
  Zn  Zn4       1.0  0.08200  0.62490  0.91390  1.0000
  Zn  Zn5       1.0  0.58200  0.87510  0.41390  1.0000
  Zn  Zn6       1.0  0.41800  0.87510  0.08610  1.0000
  Zn  Zn7       1.0  0.08200  0.37510  0.41390  1.0000
  Zn  Zn8       1.0  0.91800  0.37510  0.08610  1.0000
  O   O1        1.0  0.35840  0.28470  0.50240  1.0000
  O   O2        1.0  0.64160  0.28470  0.99760  1.0000
  O   O3        1.0  0.85840  0.78470  0.50240  1.0000
  O   O4        1.0  0.14160  0.78470  0.99760  1.0000
  O   O5        1.0  0.64160  0.71530  0.49760  1.0000
  O   O6        1.0  0.35840  0.71530  0.00240  1.0000
  O   O7        1.0  0.14160  0.21530  0.49760  1.0000
  O   O8        1.0  0.85840  0.21530  0.00240  1.0000
  O   O9        1.0  0.39360  0.96500  0.50250  1.0000
  O   O10       1.0  0.60640  0.96500  0.99750  1.0000
  O   O11       1.0  0.89360  0.46500  0.50250  1.0000
  O   O12       1.0  0.10640  0.46500  0.99750  1.0000
  O   O13       1.0  0.60640  0.03500  0.49750  1.0000
  O   O14       1.0  0.39360  0.03500  0.00250  1.0000
  O   O15       1.0  0.10640  0.53500  0.49750  1.0000
  O   O16       1.0  0.89360  0.53500  0.00250  1.0000
  O   O17       1.0  0.46690  0.26260  0.68270  1.0000
  O   O18       1.0  0.53310  0.26260  0.81730  1.0000
  O   O19       1.0  0.96690  0.76260  0.68270  1.0000
  O   O20       1.0  0.03310  0.76260  0.81730  1.0000
  O   O21       1.0  0.53310  0.73740  0.31730  1.0000
  O   O22       1.0  0.46690  0.73740  0.18270  1.0000
  O   O23       1.0  0.03310  0.23740  0.31730  1.0000
  O   O24       1.0  0.96690  0.23740  0.18270  1.0000
  O   O25       1.0  0.46620  0.98610  0.68350  1.0000
  O   O26       1.0  0.53380  0.98610  0.81650  1.0000
  O   O27       1.0  0.96620  0.48610  0.68350  1.0000
  O   O28       1.0  0.03380  0.48610  0.81650  1.0000
  O   O29       1.0  0.53380  0.01390  0.31650  1.0000
  O   O30       1.0  0.46620  0.01390  0.18350  1.0000
  O   O31       1.0  0.03380  0.51390  0.31650  1.0000
  O   O32       1.0  0.96620  0.51390  0.18350  1.0000
  O   O33       1.0  0.22170  0.38550  0.43120  1.0000
  O   O34       1.0  0.77830  0.38550  0.06880  1.0000
  O   O35       1.0  0.72170  0.88550  0.43120  1.0000
  O   O36       1.0  0.27830  0.88550  0.06880  1.0000
  O   O37       1.0  0.77830  0.61450  0.56880  1.0000
  O   O38       1.0  0.22170  0.61450  0.93120  1.0000
  O   O39       1.0  0.27830  0.11450  0.56880  1.0000
  O   O40       1.0  0.72170  0.11450  0.93120  1.0000
  O   O41       1.0  0.45920  0.86450  0.43130  1.0000
  O   O42       1.0  0.54080  0.86450  0.06870  1.0000
  O   O43       1.0  0.95920  0.36450  0.43130  1.0000
  O   O44       1.0  0.04080  0.36450  0.06870  1.0000
  O   O45       1.0  0.54080  0.13550  0.56870  1.0000
  O   O46       1.0  0.45920  0.13550  0.93130  1.0000
  O   O47       1.0  0.04080  0.63550  0.56870  1.0000
  O   O48       1.0  0.95920  0.63550  0.93130  1.0000
  C   C1        1.0  0.50000  0.20470  0.75000  1.0000
  C   C2        1.0  0.00000  0.70470  0.75000  1.0000
  C   C3        1.0  0.50000  0.79530  0.25000  1.0000
  C   C4        1.0  0.00000  0.29530  0.25000  1.0000
  C   C5        1.0  0.50000  0.04400  0.75000  1.0000
  C   C6        1.0  0.00000  0.54400  0.75000  1.0000
  C   C7        1.0  0.50000  0.95600  0.25000  1.0000
  C   C8        1.0  0.00000  0.45600  0.25000  1.0000
  C   C9        1.0  0.27270  0.30070  0.48080  1.0000
  C   C10       1.0  0.72730  0.30070  0.01920  1.0000
  C   C11       1.0  0.77270  0.80070  0.48080  1.0000
  C   C12       1.0  0.22730  0.80070  0.01920  1.0000
  C   C13       1.0  0.72730  0.69930  0.51920  1.0000
  C   C14       1.0  0.27270  0.69930  0.98080  1.0000
  C   C15       1.0  0.22730  0.19930  0.51920  1.0000
  C   C16       1.0  0.77270  0.19930  0.98080  1.0000
  C   C17       1.0  0.45750  0.95010  0.48070  1.0000
  C   C18       1.0  0.54250  0.95010  0.01930  1.0000
  C   C19       1.0  0.95750  0.45010  0.48070  1.0000
  C   C20       1.0  0.04250  0.45010  0.01930  1.0000
  C   C21       1.0  0.54250  0.04990  0.51930  1.0000
  C   C22       1.0  0.45750  0.04990  0.98070  1.0000
  C   C23       1.0  0.04250  0.54990  0.51930  1.0000
  C   C24       1.0  0.95750  0.54990  0.98070  1.0000
