data_image0
_chemical_formula_structural       Zn4O24C12
_chemical_formula_sum              "Zn4 O24 C12"
_cell_length_a       9.261
_cell_length_b       9.455
_cell_length_c       12.487
_cell_angle_alpha    83.93
_cell_angle_beta     88.01
_cell_angle_gamma    61.03

_space_group_name_H-M_alt    "P 1"
_space_group_IT_number       1

loop_
  _space_group_symop_operation_xyz
  'x, y, z'

loop_
  _atom_site_type_symbol
  _atom_site_label
  _atom_site_symmetry_multiplicity
  _atom_site_fract_x
  _atom_site_fract_y
  _atom_site_fract_z
  _atom_site_occupancy
  Zn  Zn1       1.0  0.57300  0.85540  0.76240  1.0000
  Zn  Zn2       1.0  0.42700  0.14460  0.23760  1.0000
  Zn  Zn3       1.0  0.24320  0.51050  0.75820  1.0000
  Zn  Zn4       1.0  0.75680  0.48950  0.24180  1.0000
  O   O1        1.0  0.39180  0.06030  0.67250  1.0000
  O   O2        1.0  0.60820  0.93970  0.32750  1.0000
  O   O3        1.0  0.55740  0.03530  0.85070  1.0000
  O   O4        1.0  0.44260  0.96470  0.14930  1.0000
  O   O5        1.0  0.77130  0.66430  0.84990  1.0000
  O   O6        1.0  0.22870  0.33570  0.15010  1.0000
  O   O7        1.0  0.77100  0.84980  0.67140  1.0000
  O   O8        1.0  0.22900  0.15020  0.32860  1.0000
  O   O9        1.0  0.54180  0.70200  0.66770  1.0000
  O   O10       1.0  0.45820  0.29800  0.33230  1.0000
  O   O11       1.0  0.39550  0.81670  0.85070  1.0000
  O   O12       1.0  0.60450  0.18330  0.14930  1.0000
  O   O13       1.0  0.25230  0.32900  0.67280  1.0000
  O   O14       1.0  0.74770  0.67100  0.32720  1.0000
  O   O15       1.0  0.40820  0.56030  0.66580  1.0000
  O   O16       1.0  0.59180  0.43970  0.33420  1.0000
  O   O17       1.0  0.04470  0.52850  0.85080  1.0000
  O   O18       1.0  0.95530  0.47150  0.14920  1.0000
  O   O19       1.0  0.42640  0.30490  0.84800  1.0000
  O   O20       1.0  0.57360  0.69510  0.15200  1.0000
  O   O21       1.0  0.04500  0.70460  0.66600  1.0000
  O   O22       1.0  0.95500  0.29540  0.33400  1.0000
  O   O23       1.0  0.26500  0.67180  0.85250  1.0000
  O   O24       1.0  0.73500  0.32820  0.14750  1.0000
  C   C1        1.0  0.44430  0.65480  0.70500  1.0000
  C   C2        1.0  0.55570  0.34520  0.29500  1.0000
  C   C3        1.0  0.36030  0.72090  0.81310  1.0000
  C   C4        1.0  0.63970  0.27910  0.18690  1.0000
  C   C5        1.0  0.90860  0.63500  0.81180  1.0000
  C   C6        1.0  0.09140  0.36500  0.18820  1.0000
  C   C7        1.0  0.90890  0.73900  0.70640  1.0000
  C   C8        1.0  0.09110  0.26100  0.29360  1.0000
  C   C9        1.0  0.35750  0.18980  0.71020  1.0000
  C   C10       1.0  0.64250  0.81020  0.28980  1.0000
  C   C11       1.0  0.45610  0.17610  0.81300  1.0000
  C   C12       1.0  0.54390  0.82390  0.18700  1.0000
