data_image0
_chemical_formula_structural       Sn4O24C12
_chemical_formula_sum              "Sn4 O24 C12"
_cell_length_a       8.427
_cell_length_b       14.257
_cell_length_c       8.868
_cell_angle_alpha    90
_cell_angle_beta     100.3
_cell_angle_gamma    90

_space_group_name_H-M_alt    "P 1"
_space_group_IT_number       1

loop_
  _space_group_symop_operation_xyz
  'x, y, z'

loop_
  _atom_site_type_symbol
  _atom_site_label
  _atom_site_symmetry_multiplicity
  _atom_site_fract_x
  _atom_site_fract_y
  _atom_site_fract_z
  _atom_site_occupancy
  Sn  Sn1       1.0  0.19440  0.40047  0.09075  1.0000
  Sn  Sn2       1.0  0.80560  0.90047  0.40925  1.0000
  Sn  Sn3       1.0  0.80560  0.59953  0.90925  1.0000
  Sn  Sn4       1.0  0.19440  0.09953  0.59075  1.0000
  O   O1        1.0  0.31910  0.28040  0.02230  1.0000
  O   O2        1.0  0.68090  0.78040  0.47770  1.0000
  O   O3        1.0  0.68090  0.71960  0.97770  1.0000
  O   O4        1.0  0.31910  0.21960  0.52230  1.0000
  O   O5        1.0  0.48500  0.44860  0.17390  1.0000
  O   O6        1.0  0.51500  0.94860  0.32610  1.0000
  O   O7        1.0  0.51500  0.55140  0.82610  1.0000
  O   O8        1.0  0.48500  0.05140  0.67390  1.0000
  O   O9        1.0  0.32700  0.16960  0.84900  1.0000
  O   O10       1.0  0.67300  0.66960  0.65100  1.0000
  O   O11       1.0  0.67300  0.83040  0.15100  1.0000
  O   O12       1.0  0.32700  0.33040  0.34900  1.0000
  O   O13       1.0  0.03860  0.34290  0.86620  1.0000
  O   O14       1.0  0.96140  0.84290  0.63380  1.0000
  O   O15       1.0  0.96140  0.65710  0.13380  1.0000
  O   O16       1.0  0.03860  0.15710  0.36620  1.0000
  O   O17       1.0  0.04280  0.23270  0.68810  1.0000
  O   O18       1.0  0.95720  0.73270  0.81190  1.0000
  O   O19       1.0  0.95720  0.76730  0.31190  1.0000
  O   O20       1.0  0.04280  0.26730  0.18810  1.0000
  O   O21       1.0  0.68500  0.53070  0.10820  1.0000
  O   O22       1.0  0.31500  0.03070  0.39180  1.0000
  O   O23       1.0  0.31500  0.46930  0.89180  1.0000
  O   O24       1.0  0.68500  0.96930  0.60820  1.0000
  C   C1        1.0  0.26230  0.23760  0.89740  1.0000
  C   C2        1.0  0.73770  0.73760  0.60260  1.0000
  C   C3        1.0  0.73770  0.76240  0.10260  1.0000
  C   C4        1.0  0.26230  0.26240  0.39740  1.0000
  C   C5        1.0  0.10000  0.27370  0.80780  1.0000
  C   C6        1.0  0.90000  0.77370  0.69220  1.0000
  C   C7        1.0  0.90000  0.72630  0.19220  1.0000
  C   C8        1.0  0.10000  0.22630  0.30780  1.0000
  C   C9        1.0  0.54900  0.49600  0.08200  1.0000
  C   C10       1.0  0.45100  0.99600  0.41800  1.0000
  C   C11       1.0  0.45100  0.50400  0.91800  1.0000
  C   C12       1.0  0.54900  0.00400  0.58200  1.0000
