data_image0
_chemical_formula_structural       Fe8Cl24O48C72
_chemical_formula_sum              "Fe8 Cl24 O48 C72"
_cell_length_a       20.2284
_cell_length_b       22.2315
_cell_length_c       14.4275
_cell_angle_alpha    90
_cell_angle_beta     107.677
_cell_angle_gamma    90

_space_group_name_H-M_alt    "P 1"
_space_group_IT_number       1

loop_
  _space_group_symop_operation_xyz
  'x, y, z'

loop_
  _atom_site_type_symbol
  _atom_site_label
  _atom_site_symmetry_multiplicity
  _atom_site_fract_x
  _atom_site_fract_y
  _atom_site_fract_z
  _atom_site_occupancy
  Fe  Fe1       1.0  0.22136  0.32606  0.39845  1.0000
  Fe  Fe2       1.0  0.77864  0.82606  0.10155  1.0000
  Fe  Fe3       1.0  0.77864  0.67394  0.60155  1.0000
  Fe  Fe4       1.0  0.22136  0.17394  0.89845  1.0000
  Fe  Fe5       1.0  0.23953  0.68296  0.40625  1.0000
  Fe  Fe6       1.0  0.76047  0.18296  0.09375  1.0000
  Fe  Fe7       1.0  0.76047  0.31704  0.59375  1.0000
  Fe  Fe8       1.0  0.23953  0.81704  0.90625  1.0000
  Cl  Cl1       1.0  0.36116  0.31697  0.75615  1.0000
  Cl  Cl2       1.0  0.63884  0.81697  0.74385  1.0000
  Cl  Cl3       1.0  0.63884  0.68303  0.24385  1.0000
  Cl  Cl4       1.0  0.36116  0.18303  0.25615  1.0000
  Cl  Cl5       1.0  0.08230  0.17902  0.53679  1.0000
  Cl  Cl6       1.0  0.91770  0.67902  0.96321  1.0000
  Cl  Cl7       1.0  0.91770  0.82098  0.46321  1.0000
  Cl  Cl8       1.0  0.08230  0.32098  0.03679  1.0000
  Cl  Cl9       1.0  0.09174  0.51218  0.46499  1.0000
  Cl  Cl10      1.0  0.90826  0.01218  0.03501  1.0000
  Cl  Cl11      1.0  0.90826  0.48782  0.53501  1.0000
  Cl  Cl12      1.0  0.09174  0.98782  0.96499  1.0000
  Cl  Cl13      1.0  0.38089  0.49983  0.37457  1.0000
  Cl  Cl14      1.0  0.61911  0.99983  0.12543  1.0000
  Cl  Cl15      1.0  0.61911  0.50017  0.62543  1.0000
  Cl  Cl16      1.0  0.38089  0.00017  0.87457  1.0000
  Cl  Cl17      1.0  0.10237  0.82292  0.55083  1.0000
  Cl  Cl18      1.0  0.89763  0.32292  0.94917  1.0000
  Cl  Cl19      1.0  0.89763  0.17708  0.44917  1.0000
  Cl  Cl20      1.0  0.10237  0.67708  0.05083  1.0000
  Cl  Cl21      1.0  0.38139  0.68468  0.75714  1.0000
  Cl  Cl22      1.0  0.61861  0.18468  0.74286  1.0000
  Cl  Cl23      1.0  0.61861  0.31532  0.24286  1.0000
  Cl  Cl24      1.0  0.38139  0.81532  0.25714  1.0000
  O   O1        1.0  0.16496  0.26559  0.45470  1.0000
  O   O2        1.0  0.83504  0.76559  0.04530  1.0000
  O   O3        1.0  0.83504  0.73441  0.54530  1.0000
  O   O4        1.0  0.16496  0.23441  0.95470  1.0000
  O   O5        1.0  0.28122  0.31875  0.54440  1.0000
  O   O6        1.0  0.71878  0.81875  0.95560  1.0000
  O   O7        1.0  0.71878  0.68125  0.45560  1.0000
  O   O8        1.0  0.28122  0.18125  0.04440  1.0000
  O   O9        1.0  0.27728  0.23330  0.84056  1.0000
  O   O10       1.0  0.72272  0.73330  0.65944  1.0000
  O   O11       1.0  0.72272  0.76670  0.15944  1.0000
  O   O12       1.0  0.27728  0.26670  0.34056  1.0000
  O   O13       1.0  0.16244  0.17704  0.75122  1.0000
  O   O14       1.0  0.83756  0.67704  0.74878  1.0000
  O   O15       1.0  0.83756  0.82296  0.24878  1.0000
  O   O16       1.0  0.16244  0.32296  0.25122  1.0000
  O   O17       1.0  0.16777  0.40190  0.42473  1.0000
  O   O18       1.0  0.83223  0.90190  0.07527  1.0000
  O   O19       1.0  0.83223  0.59810  0.57527  1.0000
  O   O20       1.0  0.16777  0.09810  0.92473  1.0000
  O   O21       1.0  0.18049  0.61296  0.43291  1.0000
  O   O22       1.0  0.81951  0.11296  0.06709  1.0000
  O   O23       1.0  0.81951  0.38704  0.56709  1.0000
  O   O24       1.0  0.18049  0.88704  0.93291  1.0000
  O   O25       1.0  0.29819  0.60832  0.39430  1.0000
  O   O26       1.0  0.70181  0.10832  0.10570  1.0000
  O   O27       1.0  0.70181  0.39168  0.60570  1.0000
  O   O28       1.0  0.29819  0.89168  0.89430  1.0000
  O   O29       1.0  0.28632  0.39768  0.38683  1.0000
  O   O30       1.0  0.71368  0.89768  0.11317  1.0000
  O   O31       1.0  0.71368  0.60232  0.61317  1.0000
  O   O32       1.0  0.28632  0.10232  0.88683  1.0000
  O   O33       1.0  0.18570  0.74189  0.45927  1.0000
  O   O34       1.0  0.81430  0.24189  0.04073  1.0000
  O   O35       1.0  0.81430  0.25811  0.54073  1.0000
  O   O36       1.0  0.18570  0.75811  0.95927  1.0000
  O   O37       1.0  0.18199  0.81809  0.76626  1.0000
  O   O38       1.0  0.81801  0.31809  0.73374  1.0000
  O   O39       1.0  0.81801  0.18191  0.23374  1.0000
  O   O40       1.0  0.18199  0.68191  0.26626  1.0000
  O   O41       1.0  0.29621  0.76319  0.85020  1.0000
  O   O42       1.0  0.70379  0.26319  0.64980  1.0000
  O   O43       1.0  0.70379  0.23681  0.14980  1.0000
  O   O44       1.0  0.29621  0.73681  0.35020  1.0000
  O   O45       1.0  0.30095  0.68740  0.54451  1.0000
  O   O46       1.0  0.69905  0.18740  0.95549  1.0000
  O   O47       1.0  0.69905  0.31260  0.45549  1.0000
  O   O48       1.0  0.30095  0.81260  0.04451  1.0000
  C   C1        1.0  0.18862  0.25467  0.54470  1.0000
  C   C2        1.0  0.81138  0.75467  0.95530  1.0000
  C   C3        1.0  0.81138  0.74533  0.45530  1.0000
  C   C4        1.0  0.18862  0.24533  0.04470  1.0000
  C   C5        1.0  0.25599  0.28672  0.59760  1.0000
  C   C6        1.0  0.74401  0.78672  0.90240  1.0000
  C   C7        1.0  0.74401  0.71328  0.40240  1.0000
  C   C8        1.0  0.25599  0.21328  0.09760  1.0000
  C   C9        1.0  0.28493  0.27927  0.69690  1.0000
  C   C10       1.0  0.71507  0.77927  0.80310  1.0000
  C   C11       1.0  0.71507  0.72073  0.30310  1.0000
  C   C12       1.0  0.28493  0.22073  0.19690  1.0000
  C   C13       1.0  0.25413  0.24212  0.74970  1.0000
  C   C14       1.0  0.74587  0.74212  0.75030  1.0000
  C   C15       1.0  0.74587  0.75788  0.25030  1.0000
  C   C16       1.0  0.25413  0.25788  0.24970  1.0000
  C   C17       1.0  0.18757  0.20943  0.69770  1.0000
  C   C18       1.0  0.81243  0.70943  0.80230  1.0000
  C   C19       1.0  0.81243  0.79057  0.30230  1.0000
  C   C20       1.0  0.18757  0.29057  0.19770  1.0000
  C   C21       1.0  0.15855  0.21704  0.59740  1.0000
  C   C22       1.0  0.84145  0.71704  0.90260  1.0000
  C   C23       1.0  0.84145  0.78296  0.40260  1.0000
  C   C24       1.0  0.15855  0.28296  0.09740  1.0000
  C   C25       1.0  0.19610  0.45187  0.42160  1.0000
  C   C26       1.0  0.80390  0.95187  0.07840  1.0000
  C   C27       1.0  0.80390  0.54813  0.57840  1.0000
  C   C28       1.0  0.19610  0.04813  0.92160  1.0000
  C   C29       1.0  0.16945  0.50798  0.43610  1.0000
  C   C30       1.0  0.83055  0.00798  0.06390  1.0000
  C   C31       1.0  0.83055  0.49202  0.56390  1.0000
  C   C32       1.0  0.16945  0.99202  0.93610  1.0000
  C   C33       1.0  0.20275  0.56110  0.42560  1.0000
  C   C34       1.0  0.79725  0.06110  0.07440  1.0000
  C   C35       1.0  0.79725  0.43890  0.57440  1.0000
  C   C36       1.0  0.20275  0.93890  0.92560  1.0000
  C   C37       1.0  0.27208  0.55820  0.40400  1.0000
  C   C38       1.0  0.72792  0.05820  0.09600  1.0000
  C   C39       1.0  0.72792  0.44180  0.59600  1.0000
  C   C40       1.0  0.27208  0.94180  0.90400  1.0000
  C   C41       1.0  0.30086  0.50270  0.39580  1.0000
  C   C42       1.0  0.69914  0.00270  0.10420  1.0000
  C   C43       1.0  0.69914  0.49730  0.60420  1.0000
  C   C44       1.0  0.30086  0.99730  0.89580  1.0000
  C   C45       1.0  0.26568  0.44955  0.40000  1.0000
  C   C46       1.0  0.73432  0.94955  0.10000  1.0000
  C   C47       1.0  0.73432  0.55045  0.60000  1.0000
  C   C48       1.0  0.26568  0.05045  0.90000  1.0000
  C   C49       1.0  0.20944  0.74910  0.55280  1.0000
  C   C50       1.0  0.79056  0.24910  0.94720  1.0000
  C   C51       1.0  0.79056  0.25090  0.44720  1.0000
  C   C52       1.0  0.20944  0.75090  0.05280  1.0000
  C   C53       1.0  0.17860  0.78407  0.60810  1.0000
  C   C54       1.0  0.82140  0.28407  0.89190  1.0000
  C   C55       1.0  0.82140  0.21593  0.39190  1.0000
  C   C56       1.0  0.17860  0.71593  0.10810  1.0000
  C   C57       1.0  0.20791  0.78850  0.70870  1.0000
  C   C58       1.0  0.79209  0.28850  0.79130  1.0000
  C   C59       1.0  0.79209  0.21150  0.29130  1.0000
  C   C60       1.0  0.20791  0.71150  0.20870  1.0000
  C   C61       1.0  0.27289  0.75680  0.75660  1.0000
  C   C62       1.0  0.72711  0.25680  0.74340  1.0000
  C   C63       1.0  0.72711  0.24320  0.24340  1.0000
  C   C64       1.0  0.27289  0.74320  0.25660  1.0000
  C   C65       1.0  0.30445  0.72272  0.70180  1.0000
  C   C66       1.0  0.69555  0.22272  0.79820  1.0000
  C   C67       1.0  0.69555  0.27728  0.29820  1.0000
  C   C68       1.0  0.30445  0.77728  0.20180  1.0000
  C   C69       1.0  0.27477  0.71762  0.60150  1.0000
  C   C70       1.0  0.72523  0.21762  0.89850  1.0000
  C   C71       1.0  0.72523  0.28238  0.39850  1.0000
  C   C72       1.0  0.27477  0.78238  0.10150  1.0000
