data_image0
_chemical_formula_structural       N8C8O8Ni4C8H8O16C8H8O8C8O8H16C8H8C16
_chemical_formula_sum              "N8 C56 O40 Ni4 H40"
_cell_length_a       7.323
_cell_length_b       22.223
_cell_length_c       16.991
_cell_angle_alpha    90
_cell_angle_beta     90
_cell_angle_gamma    90

_space_group_name_H-M_alt    "P 1"
_space_group_IT_number       1

loop_
  _space_group_symop_operation_xyz
  'x, y, z'

loop_
  _atom_site_type_symbol
  _atom_site_label
  _atom_site_symmetry_multiplicity
  _atom_site_fract_x
  _atom_site_fract_y
  _atom_site_fract_z
  _atom_site_occupancy
  N   N1        1.0  0.97570  0.52053  0.11551  1.0000
  N   N2        1.0  0.52430  0.47947  0.61551  1.0000
  N   N3        1.0  0.02430  0.02053  0.88449  1.0000
  N   N4        1.0  0.47570  0.97947  0.38449  1.0000
  N   N5        1.0  0.02430  0.47947  0.88449  1.0000
  N   N6        1.0  0.47570  0.52053  0.38449  1.0000
  N   N7        1.0  0.97570  0.97947  0.11551  1.0000
  N   N8        1.0  0.52430  0.02053  0.61551  1.0000
  C   C1        1.0  0.91440  0.57635  0.12770  1.0000
  C   C2        1.0  0.58560  0.42365  0.62770  1.0000
  C   C3        1.0  0.08560  0.07635  0.87230  1.0000
  C   C4        1.0  0.41440  0.92365  0.37230  1.0000
  C   C5        1.0  0.08560  0.42365  0.87230  1.0000
  C   C6        1.0  0.41440  0.57635  0.37230  1.0000
  C   C7        1.0  0.91440  0.92365  0.12770  1.0000
  C   C8        1.0  0.58560  0.07635  0.62770  1.0000
  O   O1        1.0  0.91230  0.58583  0.99024  1.0000
  O   O2        1.0  0.58770  0.41417  0.49024  1.0000
  O   O3        1.0  0.08770  0.08583  0.00976  1.0000
  O   O4        1.0  0.41230  0.91417  0.50976  1.0000
  O   O5        1.0  0.08770  0.41417  0.00976  1.0000
  O   O6        1.0  0.41230  0.58583  0.50976  1.0000
  O   O7        1.0  0.91230  0.91417  0.99024  1.0000
  O   O8        1.0  0.58770  0.08583  0.49024  1.0000
  Ni  Ni1       1.0  0.00000  0.50000  0.00000  1.0000
  Ni  Ni2       1.0  0.50000  0.50000  0.50000  1.0000
  Ni  Ni3       1.0  0.00000  0.00000  0.00000  1.0000
  Ni  Ni4       1.0  0.50000  0.00000  0.50000  1.0000
  C   C9        1.0  0.89180  0.59920  0.20190  1.0000
  C   C10       1.0  0.60820  0.40080  0.70190  1.0000
  C   C11       1.0  0.10820  0.09920  0.79810  1.0000
  C   C12       1.0  0.39180  0.90080  0.29810  1.0000
  C   C13       1.0  0.10820  0.40080  0.79810  1.0000
  C   C14       1.0  0.39180  0.59920  0.29810  1.0000
  C   C15       1.0  0.89180  0.90080  0.20190  1.0000
  C   C16       1.0  0.60820  0.09920  0.70190  1.0000
  H   H1        1.0  0.85000  0.63830  0.20920  1.0000
  H   H2        1.0  0.65000  0.36170  0.70920  1.0000
  H   H3        1.0  0.15000  0.13830  0.79080  1.0000
  H   H4        1.0  0.35000  0.86170  0.29080  1.0000
  H   H5        1.0  0.15000  0.36170  0.79080  1.0000
  H   H6        1.0  0.35000  0.63830  0.29080  1.0000
  H   H7        1.0  0.85000  0.86170  0.20920  1.0000
  H   H8        1.0  0.65000  0.13830  0.70920  1.0000
  O   O9        1.0  0.80890  0.66130  0.05939  1.0000
  O   O10       1.0  0.69110  0.33870  0.55939  1.0000
  O   O11       1.0  0.19110  0.16130  0.94061  1.0000
  O   O12       1.0  0.30890  0.83870  0.44061  1.0000
  O   O13       1.0  0.19110  0.33870  0.94061  1.0000
  O   O14       1.0  0.30890  0.66130  0.44061  1.0000
  O   O15       1.0  0.80890  0.83870  0.05939  1.0000
  O   O16       1.0  0.69110  0.16130  0.55939  1.0000
  O   O17       1.0  0.99860  0.47844  0.38626  1.0000
  O   O18       1.0  0.50140  0.52156  0.88626  1.0000
  O   O19       1.0  0.00140  0.97844  0.61374  1.0000
  O   O20       1.0  0.49860  0.02156  0.11374  1.0000
  O   O21       1.0  0.00140  0.52156  0.61374  1.0000
  O   O22       1.0  0.49860  0.47844  0.11374  1.0000
  O   O23       1.0  0.99860  0.02156  0.38626  1.0000
  O   O24       1.0  0.50140  0.97844  0.88626  1.0000
  C   C17       1.0  0.93210  0.56328  0.26540  1.0000
  C   C18       1.0  0.56790  0.43672  0.76540  1.0000
  C   C19       1.0  0.06790  0.06328  0.73460  1.0000
  C   C20       1.0  0.43210  0.93672  0.23460  1.0000
  C   C21       1.0  0.06790  0.43672  0.73460  1.0000
  C   C22       1.0  0.43210  0.56328  0.23460  1.0000
  C   C23       1.0  0.93210  0.93672  0.26540  1.0000
  C   C24       1.0  0.56790  0.06328  0.76540  1.0000
  H   H9        1.0  0.91620  0.57770  0.31630  1.0000
  H   H10       1.0  0.58380  0.42230  0.81630  1.0000
  H   H11       1.0  0.08380  0.07770  0.68370  1.0000
  H   H12       1.0  0.41620  0.92230  0.18370  1.0000
  H   H13       1.0  0.08380  0.42230  0.68370  1.0000
  H   H14       1.0  0.41620  0.57770  0.18370  1.0000
  H   H15       1.0  0.91620  0.92230  0.31630  1.0000
  H   H16       1.0  0.58380  0.07770  0.81630  1.0000
  O   O25       1.0  0.12970  0.41808  0.30196  1.0000
  O   O26       1.0  0.37030  0.58192  0.80196  1.0000
  O   O27       1.0  0.87030  0.91808  0.69804  1.0000
  O   O28       1.0  0.62970  0.08192  0.19804  1.0000
  O   O29       1.0  0.87030  0.58192  0.69804  1.0000
  O   O30       1.0  0.62970  0.41808  0.19804  1.0000
  O   O31       1.0  0.12970  0.08192  0.30196  1.0000
  O   O32       1.0  0.37030  0.91808  0.80196  1.0000
  C   C25       1.0  0.99590  0.50598  0.25320  1.0000
  C   C26       1.0  0.50410  0.49402  0.75320  1.0000
  C   C27       1.0  0.00410  0.00598  0.74680  1.0000
  C   C28       1.0  0.49590  0.99402  0.24680  1.0000
  C   C29       1.0  0.00410  0.49402  0.74680  1.0000
  C   C30       1.0  0.49590  0.50598  0.24680  1.0000
  C   C31       1.0  0.99590  0.99402  0.25320  1.0000
  C   C32       1.0  0.50410  0.00598  0.75320  1.0000
  O   O33       1.0  0.26580  0.53274  0.00863  1.0000
  O   O34       1.0  0.23420  0.46726  0.50863  1.0000
  O   O35       1.0  0.73420  0.03274  0.99137  1.0000
  O   O36       1.0  0.76580  0.96726  0.49137  1.0000
  O   O37       1.0  0.73420  0.46726  0.99137  1.0000
  O   O38       1.0  0.76580  0.53274  0.49137  1.0000
  O   O39       1.0  0.26580  0.96726  0.00863  1.0000
  O   O40       1.0  0.23420  0.03274  0.50863  1.0000
  H   H17       1.0  0.33880  0.52810  0.97020  1.0000
  H   H18       1.0  0.16120  0.47190  0.47020  1.0000
  H   H19       1.0  0.66120  0.02810  0.02980  1.0000
  H   H20       1.0  0.83880  0.97190  0.52980  1.0000
  H   H21       1.0  0.66120  0.47190  0.02980  1.0000
  H   H22       1.0  0.83880  0.52810  0.52980  1.0000
  H   H23       1.0  0.33880  0.97190  0.97020  1.0000
  H   H24       1.0  0.16120  0.02810  0.47020  1.0000
  H   H25       1.0  0.32400  0.52140  0.04930  1.0000
  H   H26       1.0  0.17600  0.47860  0.54930  1.0000
  H   H27       1.0  0.67600  0.02140  0.95070  1.0000
  H   H28       1.0  0.82400  0.97860  0.45070  1.0000
  H   H29       1.0  0.67600  0.47860  0.95070  1.0000
  H   H30       1.0  0.82400  0.52140  0.45070  1.0000
  H   H31       1.0  0.32400  0.97860  0.04930  1.0000
  H   H32       1.0  0.17600  0.02140  0.54930  1.0000
  C   C33       1.0  0.01700  0.48641  0.17680  1.0000
  C   C34       1.0  0.48300  0.51359  0.67680  1.0000
  C   C35       1.0  0.98300  0.98641  0.82320  1.0000
  C   C36       1.0  0.51700  0.01359  0.32320  1.0000
  C   C37       1.0  0.98300  0.51359  0.82320  1.0000
  C   C38       1.0  0.51700  0.48641  0.32320  1.0000
  C   C39       1.0  0.01700  0.01359  0.17680  1.0000
  C   C40       1.0  0.48300  0.98641  0.67680  1.0000
  H   H33       1.0  0.06190  0.44780  0.16800  1.0000
  H   H34       1.0  0.43810  0.55220  0.66800  1.0000
  H   H35       1.0  0.93810  0.94780  0.83200  1.0000
  H   H36       1.0  0.56190  0.05220  0.33200  1.0000
  H   H37       1.0  0.93810  0.55220  0.83200  1.0000
  H   H38       1.0  0.56190  0.44780  0.33200  1.0000
  H   H39       1.0  0.06190  0.05220  0.16800  1.0000
  H   H40       1.0  0.43810  0.94780  0.66800  1.0000
  C   C41       1.0  0.87520  0.61106  0.05420  1.0000
  C   C42       1.0  0.62480  0.38894  0.55420  1.0000
  C   C43       1.0  0.12480  0.11106  0.94580  1.0000
  C   C44       1.0  0.37520  0.88894  0.44580  1.0000
  C   C45       1.0  0.12480  0.38894  0.94580  1.0000
  C   C46       1.0  0.37520  0.61106  0.44580  1.0000
  C   C47       1.0  0.87520  0.88894  0.05420  1.0000
  C   C48       1.0  0.62480  0.11106  0.55420  1.0000
  C   C49       1.0  0.04510  0.46430  0.31880  1.0000
  C   C50       1.0  0.45490  0.53570  0.81880  1.0000
  C   C51       1.0  0.95490  0.96430  0.68120  1.0000
  C   C52       1.0  0.54510  0.03570  0.18120  1.0000
  C   C53       1.0  0.95490  0.53570  0.68120  1.0000
  C   C54       1.0  0.54510  0.46430  0.18120  1.0000
  C   C55       1.0  0.04510  0.03570  0.31880  1.0000
  C   C56       1.0  0.45490  0.96430  0.81880  1.0000
