data_image0
_chemical_formula_structural       Cd4S12N12C12
_chemical_formula_sum              "Cd4 S12 N12 C12"
_cell_length_a       10.219
_cell_length_b       10.575
_cell_length_c       20.572
_cell_angle_alpha    90
_cell_angle_beta     98.45
_cell_angle_gamma    90

_space_group_name_H-M_alt    "P 1"
_space_group_IT_number       1

loop_
  _space_group_symop_operation_xyz
  'x, y, z'

loop_
  _atom_site_type_symbol
  _atom_site_label
  _atom_site_symmetry_multiplicity
  _atom_site_fract_x
  _atom_site_fract_y
  _atom_site_fract_z
  _atom_site_occupancy
  Cd  Cd1       1.0  0.99500  0.00983  0.72434  1.0000
  Cd  Cd2       1.0  0.00500  0.50983  0.77566  1.0000
  Cd  Cd3       1.0  0.00500  0.99017  0.27566  1.0000
  Cd  Cd4       1.0  0.99500  0.49017  0.22434  1.0000
  S   S1        1.0  0.75840  0.13340  0.69170  1.0000
  S   S2        1.0  0.24160  0.63340  0.80830  1.0000
  S   S3        1.0  0.24160  0.86660  0.30830  1.0000
  S   S4        1.0  0.75840  0.36660  0.19170  1.0000
  S   S5        1.0  0.10030  0.36600  0.88200  1.0000
  S   S6        1.0  0.89970  0.86600  0.61800  1.0000
  S   S7        1.0  0.89970  0.63400  0.11800  1.0000
  S   S8        1.0  0.10030  0.13400  0.38200  1.0000
  S   S9        1.0  0.14010  0.14350  0.65050  1.0000
  S   S10       1.0  0.85990  0.64350  0.84950  1.0000
  S   S11       1.0  0.85990  0.85650  0.34950  1.0000
  S   S12       1.0  0.14010  0.35650  0.15050  1.0000
  N   N1        1.0  0.83400  0.36800  0.74640  1.0000
  N   N2        1.0  0.16600  0.86800  0.75360  1.0000
  N   N3        1.0  0.16600  0.63200  0.25360  1.0000
  N   N4        1.0  0.83400  0.13200  0.24640  1.0000
  N   N5        1.0  0.05800  0.13900  0.81310  1.0000
  N   N6        1.0  0.94200  0.63900  0.68690  1.0000
  N   N7        1.0  0.94200  0.86100  0.18690  1.0000
  N   N8        1.0  0.05800  0.36100  0.31310  1.0000
  N   N9        1.0  0.11500  0.38200  0.70330  1.0000
  N   N10       1.0  0.88500  0.88200  0.79670  1.0000
  N   N11       1.0  0.88500  0.61800  0.29670  1.0000
  N   N12       1.0  0.11500  0.11800  0.20330  1.0000
  C   C1        1.0  0.80400  0.27200  0.72360  1.0000
  C   C2        1.0  0.19600  0.77200  0.77640  1.0000
  C   C3        1.0  0.19600  0.72800  0.27640  1.0000
  C   C4        1.0  0.80400  0.22800  0.22360  1.0000
  C   C5        1.0  0.07700  0.23300  0.84150  1.0000
  C   C6        1.0  0.92300  0.73300  0.65850  1.0000
  C   C7        1.0  0.92300  0.76700  0.15850  1.0000
  C   C8        1.0  0.07700  0.26700  0.34150  1.0000
  C   C9        1.0  0.12500  0.28400  0.68180  1.0000
  C   C10       1.0  0.87500  0.78400  0.81820  1.0000
  C   C11       1.0  0.87500  0.71600  0.31820  1.0000
  C   C12       1.0  0.12500  0.21600  0.18180  1.0000
