data_image0
_chemical_formula_structural       Cd4O24N4H2N2H4N4H2N2H4N4H2N2H4N4H2N2H4C6H2C6H2C6H2C6H2C6H2C6H2C4H2C2H2C2H2C2H2C8H2C2H2C2H2C2H2C8H2C2H2C2H2C2H2C8H2C2H2C2H2C2H2C4
_chemical_formula_sum              "Cd4 O24 N24 H68 C92"
_cell_length_a       12.842
_cell_length_b       17.134
_cell_length_c       17.386
_cell_angle_alpha    66.845
_cell_angle_beta     85.878
_cell_angle_gamma    69.933

_space_group_name_H-M_alt    "P 1"
_space_group_IT_number       1

loop_
  _space_group_symop_operation_xyz
  'x, y, z'

loop_
  _atom_site_type_symbol
  _atom_site_label
  _atom_site_symmetry_multiplicity
  _atom_site_fract_x
  _atom_site_fract_y
  _atom_site_fract_z
  _atom_site_occupancy
  Cd  Cd1       1.0  0.39152  0.83441  0.49136  1.0000
  Cd  Cd2       1.0  0.60848  0.16559  0.50864  1.0000
  Cd  Cd3       1.0  0.79301  0.78318  0.96123  1.0000
  Cd  Cd4       1.0  0.20699  0.21682  0.03877  1.0000
  O   O1        1.0  0.46540  0.81350  0.62220  1.0000
  O   O2        1.0  0.53460  0.18650  0.37780  1.0000
  O   O3        1.0  0.42330  0.69970  0.62440  1.0000
  O   O4        1.0  0.57670  0.30030  0.37560  1.0000
  O   O5        1.0  0.62510  0.39500  0.98160  1.0000
  O   O6        1.0  0.37490  0.60500  0.01840  1.0000
  O   O7        1.0  0.49430  0.42520  0.88820  1.0000
  O   O8        1.0  0.50570  0.57480  0.11180  1.0000
  O   O9        1.0  0.72930  0.65450  0.97790  1.0000
  O   O10       1.0  0.27070  0.34550  0.02210  1.0000
  O   O11       1.0  0.68180  0.77940  0.86520  1.0000
  O   O12       1.0  0.31820  0.22060  0.13480  1.0000
  O   O13       1.0  0.56740  0.77800  0.46160  1.0000
  O   O14       1.0  0.43260  0.22200  0.53840  1.0000
  O   O15       1.0  0.46940  0.83880  0.34730  1.0000
  O   O16       1.0  0.53060  0.16120  0.65270  1.0000
  O   O17       1.0  0.96990  0.61810  0.47970  1.0000
  O   O18       1.0  0.03010  0.38190  0.52030  1.0000
  O   O19       1.0  0.05860  0.63850  0.36210  1.0000
  O   O20       1.0  0.94140  0.36150  0.63790  1.0000
  O   O21       1.0  0.83070  0.73910  0.09870  1.0000
  O   O22       1.0  0.16930  0.26090  0.90130  1.0000
  O   O23       1.0  0.65200  0.81400  0.08770  1.0000
  O   O24       1.0  0.34800  0.18600  0.91230  1.0000
  N   N1        1.0  0.25510  0.81030  0.44570  1.0000
  N   N2        1.0  0.74490  0.18970  0.55430  1.0000
  N   N3        1.0  0.17450  0.73450  0.40740  1.0000
  N   N4        1.0  0.82550  0.26550  0.59260  1.0000
  H   H1        1.0  0.15830  0.68970  0.40780  1.0000
  H   H2        1.0  0.84170  0.31030  0.59220  1.0000
  N   N5        1.0  0.29730  0.65420  0.52840  1.0000
  N   N6        1.0  0.70270  0.34580  0.47160  1.0000
  H   H3        1.0  0.34340  0.65380  0.56220  1.0000
  H   H4        1.0  0.65660  0.34620  0.43780  1.0000
  H   H5        1.0  0.28560  0.60520  0.53620  1.0000
  H   H6        1.0  0.71440  0.39480  0.46380  1.0000
  N   N7        1.0  0.34740  0.98220  0.45310  1.0000
  N   N8        1.0  0.65260  0.01780  0.54690  1.0000
  N   N9        1.0  0.35790  0.11880  0.41660  1.0000
  N   N10       1.0  0.64210  0.88120  0.58340  1.0000
  H   H7        1.0  0.38380  0.16240  0.39670  1.0000
  H   H8        1.0  0.61620  0.83760  0.60330  1.0000
  N   N11       1.0  0.50680  0.00920  0.38990  1.0000
  N   N12       1.0  0.49320  0.99080  0.61010  1.0000
  H   H9        1.0  0.53530  0.95530  0.39120  1.0000
  H   H10       1.0  0.46470  0.04470  0.60880  1.0000
  H   H11       1.0  0.54200  0.04660  0.36920  1.0000
  H   H12       1.0  0.45800  0.95340  0.63080  1.0000
  N   N13       1.0  0.73670  0.93360  0.90550  1.0000
  N   N14       1.0  0.26330  0.06640  0.09450  1.0000
  N   N15       1.0  0.66650  0.07790  0.81930  1.0000
  N   N16       1.0  0.33350  0.92210  0.18070  1.0000
  H   H13       1.0  0.62850  0.12520  0.77750  1.0000
  H   H14       1.0  0.37150  0.87480  0.22250  1.0000
  N   N17       1.0  0.62100  0.97050  0.78910  1.0000
  N   N18       1.0  0.37900  0.02950  0.21090  1.0000
  H   H15       1.0  0.62690  0.91510  0.80250  1.0000
  H   H16       1.0  0.37310  0.08490  0.19750  1.0000
  H   H17       1.0  0.58100  0.01210  0.74480  1.0000
  H   H18       1.0  0.41900  0.98790  0.25520  1.0000
  N   N19       1.0  0.97130  0.72990  0.93830  1.0000
  N   N20       1.0  0.02870  0.27010  0.06170  1.0000
  N   N21       1.0  0.15590  0.66490  0.95680  1.0000
  N   N22       1.0  0.84410  0.33510  0.04320  1.0000
  H   H19       1.0  0.22160  0.63930  0.98160  1.0000
  H   H20       1.0  0.77840  0.36070  0.01840  1.0000
  N   N23       1.0  0.05950  0.69090  0.06860  1.0000
  N   N24       1.0  0.94050  0.30910  0.93140  1.0000
  H   H21       1.0  0.99730  0.71240  0.08770  1.0000
  H   H22       1.0  0.00270  0.28760  0.91230  1.0000
  H   H23       1.0  0.12030  0.66720  0.09980  1.0000
  H   H24       1.0  0.87970  0.33280  0.90020  1.0000
  C   C1        1.0  0.46480  0.73360  0.66070  1.0000
  C   C2        1.0  0.53520  0.26640  0.33930  1.0000
  C   C3        1.0  0.51570  0.68060  0.74790  1.0000
  C   C4        1.0  0.48430  0.31940  0.25210  1.0000
  C   C5        1.0  0.51370  0.59340  0.79090  1.0000
  C   C6        1.0  0.48630  0.40660  0.20910  1.0000
  H   H25       1.0  0.47740  0.57000  0.76560  1.0000
  H   H26       1.0  0.52260  0.43000  0.23440  1.0000
  C   C7        1.0  0.56550  0.54060  0.87160  1.0000
  C   C8        1.0  0.43450  0.45940  0.12840  1.0000
  C   C9        1.0  0.56300  0.44550  0.91800  1.0000
  C   C10       1.0  0.43700  0.55450  0.08200  1.0000
  C   C11       1.0  0.61800  0.57680  0.90870  1.0000
  C   C12       1.0  0.38200  0.42320  0.09130  1.0000
  H   H27       1.0  0.65180  0.54240  0.96270  1.0000
  H   H28       1.0  0.34820  0.45760  0.03730  1.0000
  C   C13       1.0  0.62090  0.66370  0.86670  1.0000
  C   C14       1.0  0.37910  0.33630  0.13330  1.0000
  C   C15       1.0  0.68050  0.70070  0.90680  1.0000
  C   C16       1.0  0.31950  0.29930  0.09320  1.0000
  C   C17       1.0  0.56950  0.71410  0.78710  1.0000
  C   C18       1.0  0.43050  0.28590  0.21290  1.0000
  H   H29       1.0  0.57100  0.77230  0.75880  1.0000
  H   H30       1.0  0.42900  0.22770  0.24120  1.0000
  C   C19       1.0  0.55960  0.79330  0.38700  1.0000
  C   C20       1.0  0.44040  0.20670  0.61300  1.0000
  C   C21       1.0  0.66190  0.76110  0.34490  1.0000
  C   C22       1.0  0.33810  0.23890  0.65510  1.0000
  C   C23       1.0  0.76310  0.71780  0.39000  1.0000
  C   C24       1.0  0.23690  0.28220  0.61000  1.0000
  H   H31       1.0  0.76690  0.70540  0.44700  1.0000
  H   H32       1.0  0.23310  0.29460  0.55300  1.0000
  C   C25       1.0  0.85870  0.69280  0.35200  1.0000
  C   C26       1.0  0.14130  0.30720  0.64800  1.0000
  C   C27       1.0  0.97050  0.64630  0.40150  1.0000
  C   C28       1.0  0.02950  0.35370  0.59850  1.0000
  C   C29       1.0  0.85310  0.70940  0.26640  1.0000
  C   C30       1.0  0.14690  0.29060  0.73360  1.0000
  H   H33       1.0  0.91780  0.69280  0.24010  1.0000
  H   H34       1.0  0.08220  0.30720  0.75990  1.0000
  C   C31       1.0  0.75070  0.75060  0.22110  1.0000
  C   C32       1.0  0.24930  0.24940  0.77890  1.0000
  C   C33       1.0  0.74300  0.77030  0.12890  1.0000
  C   C34       1.0  0.25700  0.22970  0.87110  1.0000
  C   C35       1.0  0.65570  0.77570  0.26070  1.0000
  C   C36       1.0  0.34430  0.22430  0.73930  1.0000
  H   H35       1.0  0.58680  0.80280  0.23070  1.0000
  H   H36       1.0  0.41320  0.19720  0.76930  1.0000
  C   C37       1.0  0.18450  0.87090  0.37270  1.0000
  C   C38       1.0  0.81550  0.12910  0.62730  1.0000
  C   C39       1.0  0.15970  0.96210  0.32880  1.0000
  C   C40       1.0  0.84030  0.03790  0.67120  1.0000
  H   H37       1.0  0.19340  0.99440  0.34440  1.0000
  H   H38       1.0  0.80660  0.00560  0.65560  1.0000
  C   C41       1.0  0.08360  0.00390  0.26140  1.0000
  C   C42       1.0  0.91640  0.99610  0.73860  1.0000
  H   H39       1.0  0.06610  0.06550  0.23020  1.0000
  H   H40       1.0  0.93390  0.93450  0.76980  1.0000
  C   C43       1.0  0.03220  0.95690  0.23860  1.0000
  C   C44       1.0  0.96780  0.04310  0.76140  1.0000
  H   H41       1.0  0.97940  0.98780  0.19320  1.0000
  H   H42       1.0  0.02060  0.01220  0.80680  1.0000
  C   C45       1.0  0.05690  0.86650  0.28090  1.0000
  C   C46       1.0  0.94310  0.13350  0.71910  1.0000
  H   H43       1.0  0.02290  0.83500  0.26440  1.0000
  H   H44       1.0  0.97710  0.16500  0.73560  1.0000
  C   C47       1.0  0.13330  0.82300  0.34840  1.0000
  C   C48       1.0  0.86670  0.17700  0.65160  1.0000
  C   C49       1.0  0.24360  0.73120  0.46360  1.0000
  C   C50       1.0  0.75640  0.26880  0.53640  1.0000
  C   C51       1.0  0.25220  0.03740  0.47420  1.0000
  C   C52       1.0  0.74780  0.96260  0.52580  1.0000
  C   C53       1.0  0.15760  0.01920  0.50880  1.0000
  C   C54       1.0  0.84240  0.98080  0.49120  1.0000
  H   H45       1.0  0.14960  0.96360  0.52150  1.0000
  H   H46       1.0  0.85040  0.03640  0.47850  1.0000
  C   C55       1.0  0.07550  0.08960  0.52360  1.0000
  C   C56       1.0  0.92450  0.91040  0.47640  1.0000
  H   H47       1.0  0.01240  0.08000  0.54930  1.0000
  H   H48       1.0  0.98760  0.92000  0.45070  1.0000
  C   C57       1.0  0.08670  0.17340  0.50040  1.0000
  C   C58       1.0  0.91330  0.82660  0.49960  1.0000
  H   H49       1.0  0.03020  0.21870  0.51070  1.0000
  H   H50       1.0  0.96980  0.78130  0.48930  1.0000
  C   C59       1.0  0.17610  0.19190  0.46370  1.0000
  C   C60       1.0  0.82390  0.80810  0.53630  1.0000
  H   H51       1.0  0.18230  0.24860  0.44810  1.0000
  H   H52       1.0  0.81770  0.75140  0.55190  1.0000
  C   C61       1.0  0.25700  0.12320  0.45080  1.0000
  C   C62       1.0  0.74300  0.87680  0.54920  1.0000
  C   C63       1.0  0.40890  0.03440  0.41980  1.0000
  C   C64       1.0  0.59110  0.96560  0.58020  1.0000
  C   C65       1.0  0.77240  0.98590  0.93350  1.0000
  C   C66       1.0  0.22760  0.01410  0.06650  1.0000
  C   C67       1.0  0.83920  0.96100  0.00290  1.0000
  C   C68       1.0  0.16080  0.03900  0.99710  1.0000
  H   H53       1.0  0.86760  0.90060  0.03950  1.0000
  H   H54       1.0  0.13240  0.09940  0.96050  1.0000
  C   C69       1.0  0.86480  0.02750  0.01860  1.0000
  C   C70       1.0  0.13520  0.97250  0.98140  1.0000
  H   H55       1.0  0.90780  0.01230  0.06660  1.0000
  H   H56       1.0  0.09220  0.98770  0.93340  1.0000
  C   C71       1.0  0.82400  0.11650  0.96020  1.0000
  C   C72       1.0  0.17600  0.88350  0.03980  1.0000
  H   H57       1.0  0.84470  0.15990  0.96820  1.0000
  H   H58       1.0  0.15530  0.84010  0.03180  1.0000
  C   C73       1.0  0.75570  0.14230  0.89280  1.0000
  C   C74       1.0  0.24430  0.85770  0.10720  1.0000
  H   H59       1.0  0.72680  0.20260  0.85620  1.0000
  H   H60       1.0  0.27320  0.79740  0.14380  1.0000
  C   C75       1.0  0.72930  0.07590  0.87910  1.0000
  C   C76       1.0  0.27070  0.92410  0.12090  1.0000
  C   C77       1.0  0.67390  0.99180  0.83700  1.0000
  C   C78       1.0  0.32610  0.00820  0.16300  1.0000
  C   C79       1.0  0.01340  0.72190  0.86450  1.0000
  C   C80       1.0  0.98660  0.27810  0.13550  1.0000
  C   C81       1.0  0.95950  0.75150  0.78760  1.0000
  C   C82       1.0  0.04050  0.24850  0.21240  1.0000
  H   H61       1.0  0.88260  0.77890  0.77900  1.0000
  H   H62       1.0  0.11740  0.22110  0.22100  1.0000
  C   C83       1.0  0.02640  0.73840  0.72120  1.0000
  C   C84       1.0  0.97360  0.26160  0.27880  1.0000
  H   H63       1.0  0.99210  0.75630  0.66880  1.0000
  H   H64       1.0  0.00790  0.24370  0.33120  1.0000
  C   C85       1.0  0.13850  0.70060  0.73320  1.0000
  C   C86       1.0  0.86150  0.29940  0.26680  1.0000
  H   H65       1.0  0.17980  0.69550  0.68820  1.0000
  H   H66       1.0  0.82020  0.30450  0.31180  1.0000
  C   C87       1.0  0.19200  0.66990  0.80980  1.0000
  C   C88       1.0  0.80800  0.33010  0.19020  1.0000
  H   H67       1.0  0.26870  0.64120  0.81840  1.0000
  H   H68       1.0  0.73130  0.35880  0.18160  1.0000
  C   C89       1.0  0.12900  0.68280  0.87400  1.0000
  C   C90       1.0  0.87100  0.31720  0.12600  1.0000
  C   C91       1.0  0.06160  0.69430  0.99110  1.0000
  C   C92       1.0  0.93840  0.30570  0.00890  1.0000
