data_image0
_chemical_formula_structural       Cu4N4O4N4C8N8C8N8O4N4O4
_chemical_formula_sum              "Cu4 N28 O12 C16"
_cell_length_a       10.9601
_cell_length_b       13.1817
_cell_length_c       16.0836
_cell_angle_alpha    90
_cell_angle_beta     102.141
_cell_angle_gamma    90

_space_group_name_H-M_alt    "P 1"
_space_group_IT_number       1

loop_
  _space_group_symop_operation_xyz
  'x, y, z'

loop_
  _atom_site_type_symbol
  _atom_site_label
  _atom_site_symmetry_multiplicity
  _atom_site_fract_x
  _atom_site_fract_y
  _atom_site_fract_z
  _atom_site_occupancy
  Cu  Cu1       1.0  0.27457  0.23421  0.68936  1.0000
  Cu  Cu2       1.0  0.72543  0.73421  0.81064  1.0000
  Cu  Cu3       1.0  0.72543  0.76579  0.31064  1.0000
  Cu  Cu4       1.0  0.27457  0.26579  0.18936  1.0000
  N   N1        1.0  0.27500  0.21660  0.07379  1.0000
  N   N2        1.0  0.72500  0.71660  0.42621  1.0000
  N   N3        1.0  0.72500  0.78340  0.92621  1.0000
  N   N4        1.0  0.27500  0.28340  0.57379  1.0000
  O   O1        1.0  0.08860  0.27253  0.67025  1.0000
  O   O2        1.0  0.91140  0.77253  0.82975  1.0000
  O   O3        1.0  0.91140  0.72747  0.32975  1.0000
  O   O4        1.0  0.08860  0.22747  0.17025  1.0000
  N   N5        1.0  0.26740  0.18040  0.80217  1.0000
  N   N6        1.0  0.73260  0.68040  0.69783  1.0000
  N   N7        1.0  0.73260  0.81960  0.19783  1.0000
  N   N8        1.0  0.26740  0.31960  0.30217  1.0000
  C   C1        1.0  0.28880  0.18050  0.01330  1.0000
  C   C2        1.0  0.71120  0.68050  0.48670  1.0000
  C   C3        1.0  0.71120  0.81950  0.98670  1.0000
  C   C4        1.0  0.28880  0.31950  0.51330  1.0000
  C   C5        1.0  0.28560  0.16220  0.87231  1.0000
  C   C6        1.0  0.71440  0.66220  0.62769  1.0000
  C   C7        1.0  0.71440  0.83780  0.12769  1.0000
  C   C8        1.0  0.28560  0.33780  0.37231  1.0000
  N   N9        1.0  0.42730  0.14940  0.69020  1.0000
  N   N10       1.0  0.57270  0.64940  0.80980  1.0000
  N   N11       1.0  0.57270  0.85060  0.30980  1.0000
  N   N12       1.0  0.42730  0.35060  0.19020  1.0000
  N   N13       1.0  0.65680  0.87960  0.75979  1.0000
  N   N14       1.0  0.34320  0.37960  0.74021  1.0000
  N   N15       1.0  0.34320  0.12040  0.24021  1.0000
  N   N16       1.0  0.65680  0.62040  0.25979  1.0000
  C   C9        1.0  0.51260  0.10040  0.70420  1.0000
  C   C10       1.0  0.48740  0.60040  0.79580  1.0000
  C   C11       1.0  0.48740  0.89960  0.29580  1.0000
  C   C12       1.0  0.51260  0.39960  0.20420  1.0000
  C   C13       1.0  0.63260  0.96070  0.74110  1.0000
  C   C14       1.0  0.36740  0.46070  0.75890  1.0000
  C   C15       1.0  0.36740  0.03930  0.25890  1.0000
  C   C16       1.0  0.63260  0.53930  0.24110  1.0000
  N   N17       1.0  0.30920  0.12970  0.94931  1.0000
  N   N18       1.0  0.69080  0.62970  0.55069  1.0000
  N   N19       1.0  0.69080  0.87030  0.05069  1.0000
  N   N20       1.0  0.30920  0.37030  0.44931  1.0000
  N   N21       1.0  0.61780  0.05460  0.71700  1.0000
  N   N22       1.0  0.38220  0.55460  0.78300  1.0000
  N   N23       1.0  0.38220  0.94540  0.28300  1.0000
  N   N24       1.0  0.61780  0.44540  0.21700  1.0000
  O   O5        1.0  0.91960  0.20450  0.60560  1.0000
  O   O6        1.0  0.08040  0.70450  0.89440  1.0000
  O   O7        1.0  0.08040  0.79550  0.39440  1.0000
  O   O8        1.0  0.91960  0.29550  0.10560  1.0000
  N   N25       1.0  0.03188  0.20258  0.63451  1.0000
  N   N26       1.0  0.96812  0.70258  0.86549  1.0000
  N   N27       1.0  0.96812  0.79742  0.36549  1.0000
  N   N28       1.0  0.03188  0.29742  0.13451  1.0000
  O   O9        1.0  0.08950  0.12460  0.62653  1.0000
  O   O10       1.0  0.91050  0.62460  0.87347  1.0000
  O   O11       1.0  0.91050  0.87540  0.37347  1.0000
  O   O12       1.0  0.08950  0.37540  0.12653  1.0000
