data_image0
_chemical_formula_structural       C16O36H8Cd4
_chemical_formula_sum              "C16 O36 H8 Cd4"
_cell_length_a       9.6172
_cell_length_b       11.7826
_cell_length_c       12.2734
_cell_angle_alpha    90
_cell_angle_beta     99.295
_cell_angle_gamma    90

_space_group_name_H-M_alt    "P 1"
_space_group_IT_number       1

loop_
  _space_group_symop_operation_xyz
  'x, y, z'

loop_
  _atom_site_type_symbol
  _atom_site_label
  _atom_site_symmetry_multiplicity
  _atom_site_fract_x
  _atom_site_fract_y
  _atom_site_fract_z
  _atom_site_occupancy
  C   C1        1.0  0.20030  0.25150  0.78240  1.0000
  C   C2        1.0  0.29970  0.75150  0.71760  1.0000
  C   C3        1.0  0.79970  0.74850  0.21760  1.0000
  C   C4        1.0  0.70030  0.24850  0.28240  1.0000
  C   C5        1.0  0.29960  0.20870  0.70470  1.0000
  C   C6        1.0  0.20040  0.70870  0.79530  1.0000
  C   C7        1.0  0.70040  0.79130  0.29530  1.0000
  C   C8        1.0  0.79960  0.29130  0.20470  1.0000
  C   C9        1.0  0.50580  0.93440  0.00120  1.0000
  C   C10       1.0  0.99420  0.43440  0.49880  1.0000
  C   C11       1.0  0.49420  0.06560  0.99880  1.0000
  C   C12       1.0  0.00580  0.56560  0.50120  1.0000
  C   C13       1.0  0.93680  0.99930  0.95290  1.0000
  C   C14       1.0  0.56320  0.49930  0.54710  1.0000
  C   C15       1.0  0.06320  0.00070  0.04710  1.0000
  C   C16       1.0  0.43680  0.50070  0.45290  1.0000
  O   O1        1.0  0.31310  0.10350  0.69660  1.0000
  O   O2        1.0  0.18690  0.60350  0.80340  1.0000
  O   O3        1.0  0.68690  0.89650  0.30340  1.0000
  O   O4        1.0  0.81310  0.39650  0.19660  1.0000
  O   O5        1.0  0.36110  0.28280  0.65640  1.0000
  O   O6        1.0  0.13890  0.78280  0.84360  1.0000
  O   O7        1.0  0.63890  0.71720  0.34360  1.0000
  O   O8        1.0  0.86110  0.21720  0.15640  1.0000
  O   O9        1.0  0.19430  0.35620  0.79690  1.0000
  O   O10       1.0  0.30570  0.85620  0.70310  1.0000
  O   O11       1.0  0.80570  0.64380  0.20310  1.0000
  O   O12       1.0  0.69430  0.14380  0.29690  1.0000
  O   O13       1.0  0.13190  0.17900  0.82620  1.0000
  O   O14       1.0  0.36810  0.67900  0.67380  1.0000
  O   O15       1.0  0.86810  0.82100  0.17380  1.0000
  O   O16       1.0  0.63190  0.32100  0.32620  1.0000
  O   O17       1.0  0.96450  0.98410  0.85720  1.0000
  O   O18       1.0  0.53550  0.48410  0.64280  1.0000
  O   O19       1.0  0.03550  0.01590  0.14280  1.0000
  O   O20       1.0  0.46450  0.51590  0.35720  1.0000
  O   O21       1.0  0.81720  0.01300  0.97690  1.0000
  O   O22       1.0  0.68280  0.51300  0.52310  1.0000
  O   O23       1.0  0.18280  0.98700  0.02310  1.0000
  O   O24       1.0  0.31720  0.48700  0.47690  1.0000
  O   O25       1.0  0.41870  0.88120  0.93270  1.0000
  O   O26       1.0  0.08130  0.38120  0.56730  1.0000
  O   O27       1.0  0.58130  0.11880  0.06730  1.0000
  O   O28       1.0  0.91870  0.61880  0.43270  1.0000
  O   O29       1.0  0.60020  0.89230  0.06880  1.0000
  O   O30       1.0  0.89980  0.39230  0.43120  1.0000
  O   O31       1.0  0.39980  0.10770  0.93120  1.0000
  O   O32       1.0  0.10020  0.60770  0.56880  1.0000
  O   O33       1.0  0.04330  0.97490  0.65200  1.0000
  O   O34       1.0  0.45670  0.47490  0.84800  1.0000
  O   O35       1.0  0.95670  0.02510  0.34800  1.0000
  O   O36       1.0  0.54330  0.52510  0.15200  1.0000
  H   H1        1.0  0.05400  0.93200  0.60040  1.0000
  H   H2        1.0  0.44600  0.43200  0.89960  1.0000
  H   H3        1.0  0.94600  0.06800  0.39960  1.0000
  H   H4        1.0  0.55400  0.56800  0.10040  1.0000
  H   H5        1.0  0.00700  0.03500  0.62610  1.0000
  H   H6        1.0  0.49300  0.53500  0.87390  1.0000
  H   H7        1.0  0.99300  0.96500  0.37390  1.0000
  H   H8        1.0  0.50700  0.46500  0.12610  1.0000
  Cd  Cd1       1.0  0.21337  0.98248  0.82941  1.0000
  Cd  Cd2       1.0  0.28663  0.48248  0.67059  1.0000
  Cd  Cd3       1.0  0.78663  0.01752  0.17059  1.0000
  Cd  Cd4       1.0  0.71337  0.51752  0.32941  1.0000
