data_image0
_chemical_formula_structural       U8S12O78H4O2H4C8H2C2H2C2H2C2H2C8H2C2H2C2H2C2H2C8H2C2H2C2H2C2H2C8H2C2H2C2H2C2H2C8H2C2H2C2H2C2H2C8H2C2H2C2H2C2H2
_chemical_formula_sum              "U8 S12 O80 H56 C84"
_cell_length_a       19.555
_cell_length_b       19.7854
_cell_length_c       22.858
_cell_angle_alpha    67.635
_cell_angle_beta     65.121
_cell_angle_gamma    60.589

_space_group_name_H-M_alt    "P 1"
_space_group_IT_number       1

loop_
  _space_group_symop_operation_xyz
  'x, y, z'

loop_
  _atom_site_type_symbol
  _atom_site_label
  _atom_site_symmetry_multiplicity
  _atom_site_fract_x
  _atom_site_fract_y
  _atom_site_fract_z
  _atom_site_occupancy
  U   U1        1.0  0.08734  0.31978  0.85811  1.0000
  U   U2        1.0  0.91266  0.68022  0.14189  1.0000
  U   U3        1.0  0.90245  0.20259  0.12396  1.0000
  U   U4        1.0  0.09755  0.79741  0.87604  1.0000
  U   U5        1.0  0.59509  0.28053  0.36872  1.0000
  U   U6        1.0  0.40491  0.71947  0.63128  1.0000
  U   U7        1.0  0.40172  0.22347  0.62278  1.0000
  U   U8        1.0  0.59828  0.77653  0.37722  1.0000
  S   S1        1.0  0.72868  0.38731  0.09295  1.0000
  S   S2        1.0  0.27132  0.61269  0.90705  1.0000
  S   S3        1.0  0.25910  0.13174  0.88780  1.0000
  S   S4        1.0  0.74090  0.86826  0.11220  1.0000
  S   S5        1.0  0.05102  0.49971  0.72973  1.0000
  S   S6        1.0  0.94898  0.50029  0.27027  1.0000
  S   S7        1.0  0.95148  0.02741  0.25573  1.0000
  S   S8        1.0  0.04852  0.97259  0.74427  1.0000
  S   S9        1.0  0.52675  0.01484  0.65448  1.0000
  S   S10       1.0  0.47325  0.98516  0.34552  1.0000
  S   S11       1.0  0.47990  0.49292  0.33957  1.0000
  S   S12       1.0  0.52010  0.50708  0.66043  1.0000
  O   O1        1.0  0.12368  0.36583  0.88392  1.0000
  O   O2        1.0  0.87632  0.63417  0.11608  1.0000
  O   O3        1.0  0.05372  0.27183  0.83139  1.0000
  O   O4        1.0  0.94628  0.72817  0.16861  1.0000
  O   O5        1.0  0.92685  0.25555  0.15380  1.0000
  O   O6        1.0  0.07315  0.74445  0.84620  1.0000
  O   O7        1.0  0.87570  0.15187  0.09364  1.0000
  O   O8        1.0  0.12430  0.84813  0.90636  1.0000
  O   O9        1.0  0.65046  0.27456  0.41557  1.0000
  O   O10       1.0  0.34954  0.72544  0.58443  1.0000
  O   O11       1.0  0.54121  0.28329  0.32157  1.0000
  O   O12       1.0  0.45879  0.71671  0.67843  1.0000
  O   O13       1.0  0.45370  0.22122  0.67070  1.0000
  O   O14       1.0  0.54630  0.77878  0.32930  1.0000
  O   O15       1.0  0.34660  0.22833  0.57585  1.0000
  O   O16       1.0  0.65340  0.77167  0.42415  1.0000
  O   O17       1.0  0.95445  0.37416  0.93084  1.0000
  O   O18       1.0  0.04555  0.62584  0.06916  1.0000
  O   O19       1.0  0.90747  0.29424  0.02104  1.0000
  O   O20       1.0  0.09253  0.70576  0.97896  1.0000
  O   O21       1.0  0.77061  0.30619  0.12848  1.0000
  O   O22       1.0  0.22939  0.69381  0.87152  1.0000
  O   O23       1.0  0.72570  0.38738  0.03051  1.0000
  O   O24       1.0  0.27430  0.61262  0.96949  1.0000
  O   O25       1.0  0.65047  0.42552  0.13780  1.0000
  O   O26       1.0  0.34953  0.57448  0.86220  1.0000
  O   O27       1.0  0.08336  0.22790  0.96135  1.0000
  O   O28       1.0  0.91664  0.77210  0.03865  1.0000
  O   O29       1.0  0.03880  0.15241  0.05652  1.0000
  O   O30       1.0  0.96120  0.84759  0.94348  1.0000
  O   O31       1.0  0.21736  0.21167  0.85080  1.0000
  O   O32       1.0  0.78264  0.78833  0.14920  1.0000
  O   O33       1.0  0.26530  0.13399  0.94750  1.0000
  O   O34       1.0  0.73470  0.86601  0.05250  1.0000
  O   O35       1.0  0.33572  0.09059  0.84336  1.0000
  O   O36       1.0  0.66428  0.90941  0.15664  1.0000
  O   O37       1.0  0.18491  0.32822  0.74869  1.0000
  O   O38       1.0  0.81509  0.67178  0.25131  1.0000
  O   O39       1.0  0.29090  0.33812  0.66214  1.0000
  O   O40       1.0  0.70910  0.66188  0.33786  1.0000
  O   O41       1.0  0.02651  0.44598  0.79335  1.0000
  O   O42       1.0  0.97349  0.55402  0.20665  1.0000
  O   O43       1.0  0.98865  0.57994  0.72685  1.0000
  O   O44       1.0  0.01135  0.42006  0.27315  1.0000
  O   O45       1.0  0.07680  0.46675  0.67369  1.0000
  O   O46       1.0  0.92320  0.53325  0.32631  1.0000
  O   O47       1.0  0.80337  0.18697  0.23121  1.0000
  O   O48       1.0  0.19663  0.81303  0.76879  1.0000
  O   O49       1.0  0.70746  0.17068  0.32552  1.0000
  O   O50       1.0  0.29254  0.82932  0.67448  1.0000
  O   O51       1.0  0.96894  0.07841  0.18886  1.0000
  O   O52       1.0  0.03106  0.92159  0.81114  1.0000
  O   O53       1.0  0.92167  0.06905  0.30702  1.0000
  O   O54       1.0  0.07833  0.93095  0.69298  1.0000
  O   O55       1.0  0.02134  0.95229  0.26062  1.0000
  O   O56       1.0  0.97866  0.04771  0.73938  1.0000
  O   O57       1.0  0.57280  0.16620  0.44163  1.0000
  O   O58       1.0  0.42720  0.83380  0.55837  1.0000
  O   O59       1.0  0.52490  0.16368  0.54816  1.0000
  O   O60       1.0  0.47510  0.83632  0.45184  1.0000
  O   O61       1.0  0.44505  0.08235  0.65641  1.0000
  O   O62       1.0  0.55495  0.91765  0.34359  1.0000
  O   O63       1.0  0.58580  0.03598  0.65722  1.0000
  O   O64       1.0  0.41420  0.96402  0.34278  1.0000
  O   O65       1.0  0.51630  0.94526  0.70297  1.0000
  O   O66       1.0  0.48370  0.05474  0.29703  1.0000
  O   O67       1.0  0.47087  0.34244  0.44073  1.0000
  O   O68       1.0  0.52913  0.65756  0.55927  1.0000
  O   O69       1.0  0.42650  0.33496  0.54836  1.0000
  O   O70       1.0  0.57350  0.66504  0.45164  1.0000
  O   O71       1.0  0.55762  0.42111  0.33862  1.0000
  O   O72       1.0  0.44238  0.57889  0.66138  1.0000
  O   O73       1.0  0.41803  0.48033  0.33117  1.0000
  O   O74       1.0  0.58197  0.51967  0.66883  1.0000
  O   O75       1.0  0.49660  0.56111  0.29447  1.0000
  O   O76       1.0  0.50340  0.43889  0.70553  1.0000
  O   O77       1.0  0.68513  0.32800  0.26358  1.0000
  O   O78       1.0  0.31487  0.67200  0.73642  1.0000
  H   H1        1.0  0.73900  0.30790  0.23110  1.0000
  H   H2        1.0  0.26100  0.69210  0.76890  1.0000
  H   H3        1.0  0.66030  0.36720  0.23860  1.0000
  H   H4        1.0  0.33970  0.63280  0.76140  1.0000
  O   O79       1.0  0.30334  0.17995  0.72221  1.0000
  O   O80       1.0  0.69666  0.82005  0.27779  1.0000
  H   H5        1.0  0.26560  0.22810  0.73500  1.0000
  H   H6        1.0  0.73440  0.77190  0.26500  1.0000
  H   H7        1.0  0.32270  0.14950  0.75520  1.0000
  H   H8        1.0  0.67730  0.85050  0.24480  1.0000
  C   C1        1.0  0.91120  0.36150  0.98970  1.0000
  C   C2        1.0  0.08880  0.63850  0.01030  1.0000
  C   C3        1.0  0.86490  0.42880  0.02400  1.0000
  C   C4        1.0  0.13510  0.57120  0.97600  1.0000
  C   C5        1.0  0.78940  0.44030  0.07440  1.0000
  C   C6        1.0  0.21060  0.55970  0.92560  1.0000
  C   C7        1.0  0.75500  0.50150  0.10710  1.0000
  C   C8        1.0  0.24500  0.49850  0.89290  1.0000
  H   H9        1.0  0.70370  0.50990  0.14040  1.0000
  H   H10       1.0  0.29630  0.49010  0.85960  1.0000
  C   C9        1.0  0.79560  0.55020  0.09130  1.0000
  C   C10       1.0  0.20440  0.44980  0.90870  1.0000
  H   H11       1.0  0.77270  0.59080  0.11460  1.0000
  H   H12       1.0  0.22730  0.40920  0.88540  1.0000
  C   C11       1.0  0.86930  0.53980  0.04160  1.0000
  C   C12       1.0  0.13070  0.46020  0.95840  1.0000
  H   H13       1.0  0.89660  0.57360  0.03040  1.0000
  H   H14       1.0  0.10340  0.42640  0.96960  1.0000
  C   C13       1.0  0.90330  0.47950  0.00810  1.0000
  C   C14       1.0  0.09670  0.52050  0.99190  1.0000
  H   H15       1.0  0.95350  0.47290  0.97370  1.0000
  H   H16       1.0  0.04650  0.52710  0.02630  1.0000
  C   C15       1.0  0.08060  0.16210  0.99630  1.0000
  C   C16       1.0  0.91940  0.83790  0.00370  1.0000
  C   C17       1.0  0.12360  0.09180  0.96560  1.0000
  C   C18       1.0  0.87640  0.90820  0.03440  1.0000
  C   C19       1.0  0.19690  0.07970  0.91190  1.0000
  C   C20       1.0  0.80310  0.92030  0.08810  1.0000
  C   C21       1.0  0.22680  0.01720  0.88150  1.0000
  C   C22       1.0  0.77320  0.98280  0.11850  1.0000
  H   H17       1.0  0.27550  0.00900  0.84540  1.0000
  H   H18       1.0  0.72450  0.99100  0.15460  1.0000
  C   C23       1.0  0.18590  0.96670  0.90350  1.0000
  C   C24       1.0  0.81410  0.03330  0.09650  1.0000
  H   H19       1.0  0.20580  0.92540  0.88170  1.0000
  H   H20       1.0  0.79420  0.07460  0.11830  1.0000
  C   C25       1.0  0.11690  0.97700  0.95690  1.0000
  C   C26       1.0  0.88310  0.02300  0.04310  1.0000
  H   H21       1.0  0.08970  0.94200  0.97260  1.0000
  H   H22       1.0  0.91030  0.05800  0.02740  1.0000
  C   C27       1.0  0.08650  0.03860  0.98800  1.0000
  C   C28       1.0  0.91350  0.96140  0.01200  1.0000
  H   H23       1.0  0.03930  0.04430  0.02540  1.0000
  H   H24       1.0  0.96070  0.95570  0.97460  1.0000
  C   C29       1.0  0.23100  0.36480  0.70900  1.0000
  C   C30       1.0  0.76900  0.63520  0.29100  1.0000
  C   C31       1.0  0.21640  0.44240  0.71890  1.0000
  C   C32       1.0  0.78360  0.55760  0.28110  1.0000
  C   C33       1.0  0.13950  0.50450  0.73050  1.0000
  C   C34       1.0  0.86050  0.49550  0.26950  1.0000
  C   C35       1.0  0.13120  0.57320  0.74000  1.0000
  C   C36       1.0  0.86880  0.42680  0.26000  1.0000
  H   H25       1.0  0.07860  0.61520  0.74840  1.0000
  H   H26       1.0  0.92140  0.38480  0.25160  1.0000
  C   C37       1.0  0.19860  0.58200  0.73760  1.0000
  C   C38       1.0  0.80140  0.41800  0.26240  1.0000
  H   H27       1.0  0.19210  0.62950  0.74460  1.0000
  H   H28       1.0  0.80790  0.37050  0.25540  1.0000
  C   C39       1.0  0.27610  0.52050  0.72490  1.0000
  C   C40       1.0  0.72390  0.47950  0.27510  1.0000
  H   H29       1.0  0.32280  0.52580  0.72280  1.0000
  H   H30       1.0  0.67720  0.47420  0.27720  1.0000
  C   C41       1.0  0.28410  0.45140  0.71520  1.0000
  C   C42       1.0  0.71590  0.54860  0.28480  1.0000
  H   H31       1.0  0.33690  0.40970  0.70580  1.0000
  H   H32       1.0  0.66310  0.59030  0.29420  1.0000
  C   C43       1.0  0.76640  0.14480  0.27750  1.0000
  C   C44       1.0  0.23360  0.85520  0.72250  1.0000
  C   C45       1.0  0.78890  0.06180  0.27450  1.0000
  C   C46       1.0  0.21110  0.93820  0.72550  1.0000
  C   C47       1.0  0.86980  0.00580  0.26260  1.0000
  C   C48       1.0  0.13020  0.99420  0.73740  1.0000
  C   C49       1.0  0.88560  0.92940  0.26040  1.0000
  C   C50       1.0  0.11440  0.07060  0.73960  1.0000
  H   H33       1.0  0.94010  0.89010  0.25400  1.0000
  H   H34       1.0  0.05990  0.10990  0.74600  1.0000
  C   C51       1.0  0.82260  0.91090  0.26760  1.0000
  C   C52       1.0  0.17740  0.08910  0.73240  1.0000
  H   H35       1.0  0.83420  0.85990  0.26380  1.0000
  H   H36       1.0  0.16580  0.14010  0.73620  1.0000
  C   C53       1.0  0.74230  0.96700  0.28020  1.0000
  C   C54       1.0  0.25770  0.03300  0.71980  1.0000
  H   H37       1.0  0.69900  0.95380  0.28590  1.0000
  H   H38       1.0  0.30100  0.04620  0.71410  1.0000
  C   C55       1.0  0.72530  0.04090  0.28460  1.0000
  C   C56       1.0  0.27470  0.95910  0.71540  1.0000
  H   H39       1.0  0.67010  0.07840  0.29460  1.0000
  H   H40       1.0  0.32990  0.92160  0.70540  1.0000
  C   C57       1.0  0.55550  0.13040  0.50070  1.0000
  C   C58       1.0  0.44450  0.86960  0.49930  1.0000
  C   C59       1.0  0.57420  0.04340  0.51290  1.0000
  C   C60       1.0  0.42580  0.95660  0.48710  1.0000
  C   C61       1.0  0.56370  0.99080  0.57560  1.0000
  C   C62       1.0  0.43630  0.00920  0.42440  1.0000
  C   C63       1.0  0.58480  0.91190  0.57870  1.0000
  C   C64       1.0  0.41520  0.08810  0.42130  1.0000
  H   H41       1.0  0.57770  0.87650  0.62070  1.0000
  H   H42       1.0  0.42230  0.12350  0.37930  1.0000
  C   C65       1.0  0.61600  0.88300  0.52190  1.0000
  C   C66       1.0  0.38400  0.11700  0.47810  1.0000
  H   H43       1.0  0.63060  0.82860  0.52520  1.0000
  H   H44       1.0  0.36940  0.17140  0.47480  1.0000
  C   C67       1.0  0.62560  0.93410  0.46110  1.0000
  C   C68       1.0  0.37440  0.06590  0.53890  1.0000
  H   H45       1.0  0.64640  0.91530  0.42200  1.0000
  H   H46       1.0  0.35360  0.08470  0.57800  1.0000
  C   C69       1.0  0.60480  0.01300  0.45710  1.0000
  C   C70       1.0  0.39520  0.98700  0.54290  1.0000
  H   H47       1.0  0.61170  0.04770  0.41470  1.0000
  H   H48       1.0  0.38830  0.95230  0.58530  1.0000
  C   C71       1.0  0.44020  0.37320  0.48960  1.0000
  C   C72       1.0  0.55980  0.62680  0.51040  1.0000
  C   C73       1.0  0.42030  0.46000  0.48110  1.0000
  C   C74       1.0  0.57970  0.54000  0.51890  1.0000
  C   C75       1.0  0.43930  0.51310  0.42070  1.0000
  C   C76       1.0  0.56070  0.48690  0.57930  1.0000
  C   C77       1.0  0.42370  0.58910  0.42120  1.0000
  C   C78       1.0  0.57630  0.41090  0.57880  1.0000
  H   H49       1.0  0.43800  0.62450  0.38080  1.0000
  H   H50       1.0  0.56200  0.37550  0.61920  1.0000
  C   C79       1.0  0.38720  0.61410  0.48050  1.0000
  C   C80       1.0  0.61280  0.38590  0.51950  1.0000
  H   H51       1.0  0.37620  0.66660  0.48010  1.0000
  H   H52       1.0  0.62380  0.33340  0.51990  1.0000
  C   C81       1.0  0.36690  0.56420  0.53900  1.0000
  C   C82       1.0  0.63310  0.43580  0.46100  1.0000
  H   H53       1.0  0.34180  0.58150  0.57930  1.0000
  H   H54       1.0  0.65820  0.41850  0.42070  1.0000
  C   C83       1.0  0.38360  0.48810  0.53880  1.0000
  C   C84       1.0  0.61640  0.51190  0.46120  1.0000
  H   H55       1.0  0.36940  0.45340  0.57970  1.0000
  H   H56       1.0  0.63060  0.54660  0.42030  1.0000
