data_image0
_chemical_formula_structural       U2S8O30H2O2H2O2H2O2H2O2H4O2H4O2H4C4H2C8H2C2H4C4H2C4H2C6H4C4H2C4H2C6H4C4H2C4H2C6H4
_chemical_formula_sum              "U2 S8 O42 H52 C56"
_cell_length_a       13.711
_cell_length_b       13.9471
_cell_length_c       22.3786
_cell_angle_alpha    105.108
_cell_angle_beta     100.002
_cell_angle_gamma    96.077

_space_group_name_H-M_alt    "P 1"
_space_group_IT_number       1

loop_
  _space_group_symop_operation_xyz
  'x, y, z'

loop_
  _atom_site_type_symbol
  _atom_site_label
  _atom_site_symmetry_multiplicity
  _atom_site_fract_x
  _atom_site_fract_y
  _atom_site_fract_z
  _atom_site_occupancy
  U   U1        1.0  0.95413  0.25133  0.80717  1.0000
  U   U2        1.0  0.04587  0.74867  0.19283  1.0000
  S   S1        1.0  0.80606  0.44701  0.77158  1.0000
  S   S2        1.0  0.19394  0.55299  0.22842  1.0000
  S   S3        1.0  0.97953  0.99519  0.82010  1.0000
  S   S4        1.0  0.02047  0.00481  0.17990  1.0000
  S   S5        1.0  0.44984  0.97965  0.81052  1.0000
  S   S6        1.0  0.55016  0.02035  0.18948  1.0000
  S   S7        1.0  0.30873  0.47049  0.82056  1.0000
  S   S8        1.0  0.69127  0.52951  0.17944  1.0000
  O   O1        1.0  0.98090  0.32835  0.88608  1.0000
  O   O2        1.0  0.01910  0.67165  0.11392  1.0000
  O   O3        1.0  0.92360  0.17383  0.72859  1.0000
  O   O4        1.0  0.07640  0.82617  0.27141  1.0000
  O   O5        1.0  0.83210  0.34860  0.77723  1.0000
  O   O6        1.0  0.16790  0.65140  0.22277  1.0000
  O   O7        1.0  0.88140  0.49730  0.74642  1.0000
  O   O8        1.0  0.11860  0.50270  0.25358  1.0000
  O   O9        1.0  0.70450  0.43320  0.73578  1.0000
  O   O10       1.0  0.29550  0.56680  0.26422  1.0000
  O   O11       1.0  0.99620  0.10692  0.83860  1.0000
  O   O12       1.0  0.00380  0.89308  0.16140  1.0000
  O   O13       1.0  0.89550  0.95200  0.76726  1.0000
  O   O14       1.0  0.10450  0.04800  0.23274  1.0000
  O   O15       1.0  0.07090  0.95600  0.80968  1.0000
  O   O16       1.0  0.92910  0.04400  0.19032  1.0000
  O   O17       1.0  0.36130  0.90320  0.78439  1.0000
  O   O18       1.0  0.63870  0.09680  0.21561  1.0000
  O   O19       1.0  0.42380  0.08080  0.83122  1.0000
  O   O20       1.0  0.57620  0.91920  0.16878  1.0000
  O   O21       1.0  0.51940  0.97720  0.76826  1.0000
  O   O22       1.0  0.48060  0.02280  0.23174  1.0000
  O   O23       1.0  0.27870  0.53760  0.78312  1.0000
  O   O24       1.0  0.72130  0.46240  0.21688  1.0000
  O   O25       1.0  0.22540  0.43960  0.84921  1.0000
  O   O26       1.0  0.77460  0.56040  0.15079  1.0000
  O   O27       1.0  0.34820  0.38460  0.78732  1.0000
  O   O28       1.0  0.65180  0.61540  0.21268  1.0000
  O   O29       1.0  0.81230  0.68910  0.03141  1.0000
  O   O30       1.0  0.18770  0.31090  0.96859  1.0000
  H   H1        1.0  0.85830  0.74320  0.03530  1.0000
  H   H2        1.0  0.14170  0.25680  0.96470  1.0000
  O   O31       1.0  0.84410  0.88160  0.03094  1.0000
  O   O32       1.0  0.15590  0.11840  0.96906  1.0000
  H   H3        1.0  0.79450  0.90880  0.04240  1.0000
  H   H4        1.0  0.20550  0.09120  0.95760  1.0000
  O   O33       1.0  0.66030  0.91840  0.04707  1.0000
  O   O34       1.0  0.33970  0.08160  0.95293  1.0000
  H   H5        1.0  0.64590  0.85910  0.04900  1.0000
  H   H6        1.0  0.35410  0.14090  0.95100  1.0000
  O   O35       1.0  0.62220  0.71800  0.03720  1.0000
  O   O36       1.0  0.37780  0.28200  0.96280  1.0000
  H   H7        1.0  0.67950  0.70400  0.03800  1.0000
  H   H8        1.0  0.32050  0.29600  0.96200  1.0000
  O   O37       1.0  0.80630  0.18470  0.83024  1.0000
  O   O38       1.0  0.19370  0.81530  0.16976  1.0000
  H   H9        1.0  0.76440  0.13280  0.80880  1.0000
  H   H10       1.0  0.23560  0.86720  0.19120  1.0000
  H   H11       1.0  0.76980  0.20700  0.85900  1.0000
  H   H12       1.0  0.23020  0.79300  0.14100  1.0000
  O   O39       1.0  0.13040  0.25120  0.81307  1.0000
  O   O40       1.0  0.86960  0.74880  0.18693  1.0000
  H   H13       1.0  0.17940  0.30710  0.82850  1.0000
  H   H14       1.0  0.82060  0.69290  0.17150  1.0000
  H   H15       1.0  0.16340  0.21280  0.82620  1.0000
  H   H16       1.0  0.83660  0.78720  0.17380  1.0000
  O   O41       1.0  0.03510  0.39270  0.77491  1.0000
  O   O42       1.0  0.96490  0.60730  0.22509  1.0000
  H   H17       1.0  0.99410  0.43880  0.77070  1.0000
  H   H18       1.0  0.00590  0.56120  0.22930  1.0000
  H   H19       1.0  0.10260  0.43380  0.78950  1.0000
  H   H20       1.0  0.89740  0.56620  0.21050  1.0000
  C   C1        1.0  0.80980  0.52090  0.84910  1.0000
  C   C2        1.0  0.19020  0.47910  0.15090  1.0000
  C   C3        1.0  0.88230  0.60580  0.87710  1.0000
  C   C4        1.0  0.11770  0.39420  0.12290  1.0000
  H   H21       1.0  0.93010  0.62410  0.85440  1.0000
  H   H22       1.0  0.06990  0.37590  0.14560  1.0000
  C   C5        1.0  0.88500  0.66470  0.93880  1.0000
  C   C6        1.0  0.11500  0.33530  0.06120  1.0000
  C   C7        1.0  0.81270  0.63450  0.97029  1.0000
  C   C8        1.0  0.18730  0.36550  0.02971  1.0000
  C   C9        1.0  0.73940  0.54910  0.94240  1.0000
  C   C10       1.0  0.26060  0.45090  0.05760  1.0000
  C   C11       1.0  0.74010  0.49220  0.88160  1.0000
  C   C12       1.0  0.25990  0.50780  0.11840  1.0000
  H   H23       1.0  0.69220  0.43290  0.86200  1.0000
  H   H24       1.0  0.30780  0.56710  0.13800  1.0000
  C   C13       1.0  0.96590  0.75670  0.96780  1.0000
  C   C14       1.0  0.03410  0.24330  0.03220  1.0000
  H   H25       1.0  0.97920  0.77120  0.01450  1.0000
  H   H26       1.0  0.02080  0.22880  0.98550  1.0000
  H   H27       1.0  0.02860  0.74130  0.95390  1.0000
  H   H28       1.0  0.97140  0.25870  0.04610  1.0000
  C   C15       1.0  0.93860  0.84970  0.95036  1.0000
  C   C16       1.0  0.06140  0.15030  0.04964  1.0000
  C   C17       1.0  0.97360  0.87910  0.90186  1.0000
  C   C18       1.0  0.02640  0.12090  0.09814  1.0000
  H   H29       1.0  0.01690  0.84140  0.87990  1.0000
  H   H30       1.0  0.98310  0.15860  0.12010  1.0000
  C   C19       1.0  0.94570  0.96230  0.88569  1.0000
  C   C20       1.0  0.05430  0.03770  0.11431  1.0000
  C   C21       1.0  0.88060  0.01720  0.91574  1.0000
  C   C22       1.0  0.11940  0.98280  0.08426  1.0000
  H   H31       1.0  0.86060  0.07330  0.90300  1.0000
  H   H32       1.0  0.13940  0.92670  0.09700  1.0000
  C   C23       1.0  0.84450  0.99040  0.96426  1.0000
  C   C24       1.0  0.15550  0.00960  0.03574  1.0000
  C   C25       1.0  0.87520  0.90800  0.98167  1.0000
  C   C26       1.0  0.12480  0.09200  0.01833  1.0000
  C   C27       1.0  0.76760  0.04680  0.99387  1.0000
  C   C28       1.0  0.23240  0.95320  0.00613  1.0000
  H   H33       1.0  0.77460  0.11540  0.98880  1.0000
  H   H34       1.0  0.22540  0.88460  0.01120  1.0000
  H   H35       1.0  0.78040  0.05300  0.03970  1.0000
  H   H36       1.0  0.21960  0.94700  0.96030  1.0000
  C   C29       1.0  0.66100  0.99200  0.96296  1.0000
  C   C30       1.0  0.33900  0.00800  0.03704  1.0000
  C   C31       1.0  0.61120  0.00410  0.90660  1.0000
  C   C32       1.0  0.38880  0.99590  0.09340  1.0000
  H   H37       1.0  0.64390  0.04670  0.88670  1.0000
  H   H38       1.0  0.35610  0.95330  0.11330  1.0000
  C   C33       1.0  0.51420  0.95470  0.87900  1.0000
  C   C34       1.0  0.48580  0.04530  0.12100  1.0000
  C   C35       1.0  0.46590  0.89210  0.90760  1.0000
  C   C36       1.0  0.53410  0.10790  0.09240  1.0000
  H   H39       1.0  0.39930  0.85900  0.88840  1.0000
  H   H40       1.0  0.60070  0.14100  0.11160  1.0000
  C   C37       1.0  0.51330  0.87700  0.96370  1.0000
  C   C38       1.0  0.48670  0.12300  0.03630  1.0000
  C   C39       1.0  0.61120  0.92790  0.99064  1.0000
  C   C40       1.0  0.38880  0.07210  0.00936  1.0000
  C   C41       1.0  0.45880  0.80900  0.99420  1.0000
  C   C42       1.0  0.54120  0.19100  0.00580  1.0000
  H   H41       1.0  0.38700  0.81650  0.98800  1.0000
  H   H42       1.0  0.61300  0.18350  0.01200  1.0000
  H   H43       1.0  0.48710  0.82940  0.04030  1.0000
  H   H44       1.0  0.51290  0.17060  0.95970  1.0000
  C   C43       1.0  0.46810  0.69890  0.96583  1.0000
  C   C44       1.0  0.53190  0.30110  0.03417  1.0000
  C   C45       1.0  0.39440  0.63970  0.91447  1.0000
  C   C46       1.0  0.60560  0.36030  0.08553  1.0000
  H   H45       1.0  0.33730  0.66660  0.89960  1.0000
  H   H46       1.0  0.66270  0.33340  0.10040  1.0000
  C   C47       1.0  0.40470  0.54170  0.88510  1.0000
  C   C48       1.0  0.59530  0.45830  0.11490  1.0000
  C   C49       1.0  0.48750  0.50250  0.90625  1.0000
  C   C50       1.0  0.51250  0.49750  0.09375  1.0000
  H   H47       1.0  0.49290  0.43490  0.88600  1.0000
  H   H48       1.0  0.50710  0.56510  0.11400  1.0000
  C   C51       1.0  0.56350  0.55950  0.95650  1.0000
  C   C52       1.0  0.43650  0.44050  0.04350  1.0000
  C   C53       1.0  0.55080  0.65810  0.98595  1.0000
  C   C54       1.0  0.44920  0.34190  0.01405  1.0000
  C   C55       1.0  0.65820  0.51920  0.97590  1.0000
  C   C56       1.0  0.34180  0.48080  0.02410  1.0000
  H   H49       1.0  0.64340  0.44500  0.96530  1.0000
  H   H50       1.0  0.35660  0.55500  0.03470  1.0000
  H   H51       1.0  0.68280  0.54600  0.02230  1.0000
  H   H52       1.0  0.31720  0.45400  0.97770  1.0000
