data_image0
_chemical_formula_structural       C36Fe6O72Li18
_chemical_formula_sum              "C36 Fe6 O72 Li18"
_cell_length_a       11.5273
_cell_length_b       11.5273
_cell_length_c       15.169
_cell_angle_alpha    90
_cell_angle_beta     90
_cell_angle_gamma    120

_space_group_name_H-M_alt    "P 1"
_space_group_IT_number       1

loop_
  _space_group_symop_operation_xyz
  'x, y, z'

loop_
  _atom_site_type_symbol
  _atom_site_label
  _atom_site_symmetry_multiplicity
  _atom_site_fract_x
  _atom_site_fract_y
  _atom_site_fract_z
  _atom_site_occupancy
  C   C1        1.0  0.04760  0.26430  0.20960  1.0000
  C   C2        1.0  0.73570  0.78330  0.20960  1.0000
  C   C3        1.0  0.21670  0.95240  0.20960  1.0000
  C   C4        1.0  0.26430  0.04760  0.29040  1.0000
  C   C5        1.0  0.78330  0.73570  0.29040  1.0000
  C   C6        1.0  0.95240  0.21670  0.29040  1.0000
  C   C7        1.0  0.71427  0.59763  0.54293  1.0000
  C   C8        1.0  0.40237  0.11663  0.54293  1.0000
  C   C9        1.0  0.88337  0.28573  0.54293  1.0000
  C   C10       1.0  0.93097  0.38093  0.62373  1.0000
  C   C11       1.0  0.44997  0.06903  0.62373  1.0000
  C   C12       1.0  0.61907  0.55003  0.62373  1.0000
  C   C13       1.0  0.38093  0.93097  0.87627  1.0000
  C   C14       1.0  0.06903  0.44997  0.87627  1.0000
  C   C15       1.0  0.55003  0.61907  0.87627  1.0000
  C   C16       1.0  0.59763  0.71427  0.95707  1.0000
  C   C17       1.0  0.11663  0.40237  0.95707  1.0000
  C   C18       1.0  0.28573  0.88337  0.95707  1.0000
  C   C19       1.0  0.95240  0.73570  0.79040  1.0000
  C   C20       1.0  0.26430  0.21670  0.79040  1.0000
  C   C21       1.0  0.78330  0.04760  0.79040  1.0000
  C   C22       1.0  0.73570  0.95240  0.70960  1.0000
  C   C23       1.0  0.21670  0.26430  0.70960  1.0000
  C   C24       1.0  0.04760  0.78330  0.70960  1.0000
  C   C25       1.0  0.28573  0.40237  0.45707  1.0000
  C   C26       1.0  0.59763  0.88337  0.45707  1.0000
  C   C27       1.0  0.11663  0.71427  0.45707  1.0000
  C   C28       1.0  0.06903  0.61907  0.37627  1.0000
  C   C29       1.0  0.55003  0.93097  0.37627  1.0000
  C   C30       1.0  0.38093  0.44997  0.37627  1.0000
  C   C31       1.0  0.61907  0.06903  0.12373  1.0000
  C   C32       1.0  0.93097  0.55003  0.12373  1.0000
  C   C33       1.0  0.44997  0.38093  0.12373  1.0000
  C   C34       1.0  0.40237  0.28573  0.04293  1.0000
  C   C35       1.0  0.88337  0.59763  0.04293  1.0000
  C   C36       1.0  0.71427  0.11663  0.04293  1.0000
  Fe  Fe1       1.0  0.00000  0.00000  0.25000  1.0000
  Fe  Fe2       1.0  0.66667  0.33333  0.58333  1.0000
  Fe  Fe3       1.0  0.33333  0.66667  0.91667  1.0000
  Fe  Fe4       1.0  0.00000  0.00000  0.75000  1.0000
  Fe  Fe5       1.0  0.33333  0.66667  0.41667  1.0000
  Fe  Fe6       1.0  0.66667  0.33333  0.08333  1.0000
  O   O1        1.0  0.09270  0.38180  0.18380  1.0000
  O   O2        1.0  0.61820  0.71090  0.18380  1.0000
  O   O3        1.0  0.28910  0.90730  0.18380  1.0000
  O   O4        1.0  0.38180  0.09270  0.31620  1.0000
  O   O5        1.0  0.71090  0.61820  0.31620  1.0000
  O   O6        1.0  0.90730  0.28910  0.31620  1.0000
  O   O7        1.0  0.75937  0.71513  0.51713  1.0000
  O   O8        1.0  0.28487  0.04423  0.51713  1.0000
  O   O9        1.0  0.95577  0.24063  0.51713  1.0000
  O   O10       1.0  0.04847  0.42603  0.64953  1.0000
  O   O11       1.0  0.37757  0.95153  0.64953  1.0000
  O   O12       1.0  0.57397  0.62243  0.64953  1.0000
  O   O13       1.0  0.42603  0.04847  0.85047  1.0000
  O   O14       1.0  0.95153  0.37757  0.85047  1.0000
  O   O15       1.0  0.62243  0.57397  0.85047  1.0000
  O   O16       1.0  0.71513  0.75937  0.98287  1.0000
  O   O17       1.0  0.04423  0.28487  0.98287  1.0000
  O   O18       1.0  0.24063  0.95577  0.98287  1.0000
  O   O19       1.0  0.90730  0.61820  0.81620  1.0000
  O   O20       1.0  0.38180  0.28910  0.81620  1.0000
  O   O21       1.0  0.71090  0.09270  0.81620  1.0000
  O   O22       1.0  0.61820  0.90730  0.68380  1.0000
  O   O23       1.0  0.28910  0.38180  0.68380  1.0000
  O   O24       1.0  0.09270  0.71090  0.68380  1.0000
  O   O25       1.0  0.24063  0.28487  0.48287  1.0000
  O   O26       1.0  0.71513  0.95577  0.48287  1.0000
  O   O27       1.0  0.04423  0.75937  0.48287  1.0000
  O   O28       1.0  0.95153  0.57397  0.35047  1.0000
  O   O29       1.0  0.62243  0.04847  0.35047  1.0000
  O   O30       1.0  0.42603  0.37757  0.35047  1.0000
  O   O31       1.0  0.57397  0.95153  0.14953  1.0000
  O   O32       1.0  0.04847  0.62243  0.14953  1.0000
  O   O33       1.0  0.37757  0.42603  0.14953  1.0000
  O   O34       1.0  0.28487  0.24063  0.01713  1.0000
  O   O35       1.0  0.95577  0.71513  0.01713  1.0000
  O   O36       1.0  0.75937  0.04423  0.01713  1.0000
  O   O37       1.0  0.07230  0.17850  0.17470  1.0000
  O   O38       1.0  0.82150  0.89380  0.17470  1.0000
  O   O39       1.0  0.10620  0.92770  0.17470  1.0000
  O   O40       1.0  0.17850  0.07230  0.32530  1.0000
  O   O41       1.0  0.89380  0.82150  0.32530  1.0000
  O   O42       1.0  0.92770  0.10620  0.32530  1.0000
  O   O43       1.0  0.73897  0.51183  0.50803  1.0000
  O   O44       1.0  0.48817  0.22713  0.50803  1.0000
  O   O45       1.0  0.77287  0.26103  0.50803  1.0000
  O   O46       1.0  0.84517  0.40563  0.65863  1.0000
  O   O47       1.0  0.56047  0.15483  0.65863  1.0000
  O   O48       1.0  0.59437  0.43953  0.65863  1.0000
  O   O49       1.0  0.40563  0.84517  0.84137  1.0000
  O   O50       1.0  0.15483  0.56047  0.84137  1.0000
  O   O51       1.0  0.43953  0.59437  0.84137  1.0000
  O   O52       1.0  0.51183  0.73897  0.99197  1.0000
  O   O53       1.0  0.22713  0.48817  0.99197  1.0000
  O   O54       1.0  0.26103  0.77287  0.99197  1.0000
  O   O55       1.0  0.92770  0.82150  0.82530  1.0000
  O   O56       1.0  0.17850  0.10620  0.82530  1.0000
  O   O57       1.0  0.89380  0.07230  0.82530  1.0000
  O   O58       1.0  0.82150  0.92770  0.67470  1.0000
  O   O59       1.0  0.10620  0.17850  0.67470  1.0000
  O   O60       1.0  0.07230  0.89380  0.67470  1.0000
  O   O61       1.0  0.26103  0.48817  0.49197  1.0000
  O   O62       1.0  0.51183  0.77287  0.49197  1.0000
  O   O63       1.0  0.22713  0.73897  0.49197  1.0000
  O   O64       1.0  0.15483  0.59437  0.34137  1.0000
  O   O65       1.0  0.43953  0.84517  0.34137  1.0000
  O   O66       1.0  0.40563  0.56047  0.34137  1.0000
  O   O67       1.0  0.59437  0.15483  0.15863  1.0000
  O   O68       1.0  0.84517  0.43953  0.15863  1.0000
  O   O69       1.0  0.56047  0.40563  0.15863  1.0000
  O   O70       1.0  0.48817  0.26103  0.00803  1.0000
  O   O71       1.0  0.77287  0.51183  0.00803  1.0000
  O   O72       1.0  0.73897  0.22713  0.00803  1.0000
  Li  Li1       1.0  0.00000  0.46600  0.25000  1.0000
  Li  Li2       1.0  0.53400  0.53400  0.25000  1.0000
  Li  Li3       1.0  0.46600  0.00000  0.25000  1.0000
  Li  Li4       1.0  0.66667  0.79933  0.58333  1.0000
  Li  Li5       1.0  0.20067  0.86733  0.58333  1.0000
  Li  Li6       1.0  0.13267  0.33333  0.58333  1.0000
  Li  Li7       1.0  0.33333  0.13267  0.91667  1.0000
  Li  Li8       1.0  0.86733  0.20067  0.91667  1.0000
  Li  Li9       1.0  0.79933  0.66667  0.91667  1.0000
  Li  Li10      1.0  0.00000  0.53400  0.75000  1.0000
  Li  Li11      1.0  0.46600  0.46600  0.75000  1.0000
  Li  Li12      1.0  0.53400  0.00000  0.75000  1.0000
  Li  Li13      1.0  0.33333  0.20067  0.41667  1.0000
  Li  Li14      1.0  0.79933  0.13267  0.41667  1.0000
  Li  Li15      1.0  0.86733  0.66667  0.41667  1.0000
  Li  Li16      1.0  0.66667  0.86733  0.08333  1.0000
  Li  Li17      1.0  0.13267  0.79933  0.08333  1.0000
  Li  Li18      1.0  0.20067  0.33333  0.08333  1.0000
