data_image0
_chemical_formula_structural       Au4S4N4C4Au4S4N4C4N4S4C12N4S4C12
_chemical_formula_sum              "Au8 S16 N16 C32"
_cell_length_a       9.6338
_cell_length_b       22.019
_cell_length_c       11.351
_cell_angle_alpha    90
_cell_angle_beta     91.513
_cell_angle_gamma    90

_space_group_name_H-M_alt    "P 1"
_space_group_IT_number       1

loop_
  _space_group_symop_operation_xyz
  'x, y, z'

loop_
  _atom_site_type_symbol
  _atom_site_label
  _atom_site_symmetry_multiplicity
  _atom_site_fract_x
  _atom_site_fract_y
  _atom_site_fract_z
  _atom_site_occupancy
  Au  Au1       1.0  0.89003  0.75142  0.51009  1.0000
  Au  Au2       1.0  0.10997  0.25142  0.98991  1.0000
  Au  Au3       1.0  0.10997  0.24858  0.48991  1.0000
  Au  Au4       1.0  0.89003  0.74858  0.01009  1.0000
  S   S1        1.0  0.73022  0.82859  0.51336  1.0000
  S   S2        1.0  0.26978  0.32859  0.98664  1.0000
  S   S3        1.0  0.26978  0.17141  0.48664  1.0000
  S   S4        1.0  0.73022  0.67141  0.01336  1.0000
  N   N1        1.0  0.64500  0.98090  0.59190  1.0000
  N   N2        1.0  0.35500  0.48090  0.90810  1.0000
  N   N3        1.0  0.35500  0.01910  0.40810  1.0000
  N   N4        1.0  0.64500  0.51910  0.09190  1.0000
  C   C1        1.0  0.73490  0.87060  0.38500  1.0000
  C   C2        1.0  0.26510  0.37060  0.11500  1.0000
  C   C3        1.0  0.26510  0.12940  0.61500  1.0000
  C   C4        1.0  0.73490  0.62940  0.88500  1.0000
  Au  Au5       1.0  0.86941  0.74773  0.26552  1.0000
  Au  Au6       1.0  0.13059  0.24773  0.23448  1.0000
  Au  Au7       1.0  0.13059  0.25227  0.73448  1.0000
  Au  Au8       1.0  0.86941  0.75227  0.76552  1.0000
  S   S5        1.0  0.80394  0.84847  0.25328  1.0000
  S   S6        1.0  0.19606  0.34847  0.24672  1.0000
  S   S7        1.0  0.19606  0.15153  0.74672  1.0000
  S   S8        1.0  0.80394  0.65153  0.75328  1.0000
  N   N5        1.0  0.60410  0.99280  0.21010  1.0000
  N   N6        1.0  0.39590  0.49280  0.28990  1.0000
  N   N7        1.0  0.39590  0.00720  0.78990  1.0000
  N   N8        1.0  0.60410  0.50720  0.71010  1.0000
  C   C5        1.0  0.67590  0.92870  0.39160  1.0000
  C   C6        1.0  0.32410  0.42870  0.10840  1.0000
  C   C7        1.0  0.32410  0.07130  0.60840  1.0000
  C   C8        1.0  0.67590  0.57130  0.89160  1.0000
  N   N9        1.0  0.21130  0.52940  0.58410  1.0000
  N   N10       1.0  0.78870  0.02940  0.91590  1.0000
  N   N11       1.0  0.78870  0.47060  0.41590  1.0000
  N   N12       1.0  0.21130  0.97060  0.08410  1.0000
  S   S9        1.0  0.04925  0.67386  0.51687  1.0000
  S   S10       1.0  0.95075  0.17386  0.98313  1.0000
  S   S11       1.0  0.95075  0.32614  0.48313  1.0000
  S   S12       1.0  0.04925  0.82614  0.01687  1.0000
  C   C9        1.0  0.65550  0.95700  0.50300  1.0000
  C   C10       1.0  0.34450  0.45700  0.99700  1.0000
  C   C11       1.0  0.34450  0.04300  0.49700  1.0000
  C   C12       1.0  0.65550  0.54300  0.00300  1.0000
  C   C13       1.0  0.08020  0.56970  0.39990  1.0000
  C   C14       1.0  0.91980  0.06970  0.10010  1.0000
  C   C15       1.0  0.91980  0.43030  0.60010  1.0000
  C   C16       1.0  0.08020  0.93030  0.89990  1.0000
  C   C17       1.0  0.02220  0.62780  0.39580  1.0000
  C   C18       1.0  0.97780  0.12780  0.10420  1.0000
  C   C19       1.0  0.97780  0.37220  0.60420  1.0000
  C   C20       1.0  0.02220  0.87220  0.89580  1.0000
  N   N13       1.0  0.05160  0.49730  0.22430  1.0000
  N   N14       1.0  0.94840  0.99730  0.27570  1.0000
  N   N15       1.0  0.94840  0.50270  0.77570  1.0000
  N   N16       1.0  0.05160  0.00270  0.72430  1.0000
  S   S13       1.0  0.93179  0.64640  0.26644  1.0000
  S   S14       1.0  0.06821  0.14640  0.23356  1.0000
  S   S15       1.0  0.06821  0.35360  0.73356  1.0000
  S   S16       1.0  0.93179  0.85360  0.76644  1.0000
  C   C21       1.0  0.63900  0.96380  0.29000  1.0000
  C   C22       1.0  0.36100  0.46380  0.21000  1.0000
  C   C23       1.0  0.36100  0.03620  0.71000  1.0000
  C   C24       1.0  0.63900  0.53620  0.79000  1.0000
  C   C25       1.0  0.06560  0.52980  0.30320  1.0000
  C   C26       1.0  0.93440  0.02980  0.19680  1.0000
  C   C27       1.0  0.93440  0.47020  0.69680  1.0000
  C   C28       1.0  0.06560  0.97020  0.80320  1.0000
  C   C29       1.0  0.15250  0.54790  0.50320  1.0000
  C   C30       1.0  0.84750  0.04790  0.99680  1.0000
  C   C31       1.0  0.84750  0.45210  0.49680  1.0000
  C   C32       1.0  0.15250  0.95210  0.00320  1.0000
