data_image0
_chemical_formula_structural       Au8S16N16C32
_chemical_formula_sum              "Au8 S16 N16 C32"
_cell_length_a       10.5756
_cell_length_b       23.18
_cell_length_c       11.6908
_cell_angle_alpha    90
_cell_angle_beta     99.794
_cell_angle_gamma    90

_space_group_name_H-M_alt    "P 1"
_space_group_IT_number       1

loop_
  _space_group_symop_operation_xyz
  'x, y, z'

loop_
  _atom_site_type_symbol
  _atom_site_label
  _atom_site_symmetry_multiplicity
  _atom_site_fract_x
  _atom_site_fract_y
  _atom_site_fract_z
  _atom_site_occupancy
  Au  Au1       1.0  0.79222  0.75400  0.27398  1.0000
  Au  Au2       1.0  0.20778  0.25400  0.22602  1.0000
  Au  Au3       1.0  0.20778  0.24600  0.72602  1.0000
  Au  Au4       1.0  0.79222  0.74600  0.77398  1.0000
  Au  Au5       1.0  0.79142  0.74347  0.51468  1.0000
  Au  Au6       1.0  0.20858  0.24347  0.98532  1.0000
  Au  Au7       1.0  0.20858  0.25653  0.48532  1.0000
  Au  Au8       1.0  0.79142  0.75653  0.01468  1.0000
  S   S1        1.0  0.90130  0.66898  0.26968  1.0000
  S   S2        1.0  0.09870  0.16898  0.23032  1.0000
  S   S3        1.0  0.09870  0.33102  0.73032  1.0000
  S   S4        1.0  0.90130  0.83102  0.76968  1.0000
  S   S5        1.0  0.95280  0.67576  0.53839  1.0000
  S   S6        1.0  0.04720  0.17576  0.96161  1.0000
  S   S7        1.0  0.04720  0.32424  0.46161  1.0000
  S   S8        1.0  0.95280  0.82424  0.03839  1.0000
  S   S9        1.0  0.68290  0.83983  0.26046  1.0000
  S   S10       1.0  0.31710  0.33983  0.23954  1.0000
  S   S11       1.0  0.31710  0.16017  0.73954  1.0000
  S   S12       1.0  0.68290  0.66017  0.76046  1.0000
  S   S13       1.0  0.62630  0.80878  0.50554  1.0000
  S   S14       1.0  0.37370  0.30878  0.99446  1.0000
  S   S15       1.0  0.37370  0.19122  0.49446  1.0000
  S   S16       1.0  0.62630  0.69122  0.00554  1.0000
  N   N1        1.0  0.08600  0.54090  0.22880  1.0000
  N   N2        1.0  0.91400  0.04090  0.27120  1.0000
  N   N3        1.0  0.91400  0.45910  0.77120  1.0000
  N   N4        1.0  0.08600  0.95910  0.72880  1.0000
  N   N5        1.0  0.14290  0.54120  0.59540  1.0000
  N   N6        1.0  0.85710  0.04120  0.90460  1.0000
  N   N7        1.0  0.85710  0.45880  0.40460  1.0000
  N   N8        1.0  0.14290  0.95880  0.09540  1.0000
  N   N9        1.0  0.50480  0.97080  0.20710  1.0000
  N   N10       1.0  0.49520  0.47080  0.29290  1.0000
  N   N11       1.0  0.49520  0.02920  0.79290  1.0000
  N   N12       1.0  0.50480  0.52920  0.70710  1.0000
  N   N13       1.0  0.42960  0.92990  0.55410  1.0000
  N   N14       1.0  0.57040  0.42990  0.94590  1.0000
  N   N15       1.0  0.57040  0.07010  0.44590  1.0000
  N   N16       1.0  0.42960  0.57010  0.05410  1.0000
  C   C1        1.0  0.96610  0.64400  0.40660  1.0000
  C   C2        1.0  0.03390  0.14400  0.09340  1.0000
  C   C3        1.0  0.03390  0.35600  0.59340  1.0000
  C   C4        1.0  0.96610  0.85600  0.90660  1.0000
  C   C5        1.0  0.03800  0.59360  0.41040  1.0000
  C   C6        1.0  0.96200  0.09360  0.08960  1.0000
  C   C7        1.0  0.96200  0.40640  0.58960  1.0000
  C   C8        1.0  0.03800  0.90640  0.91040  1.0000
  C   C9        1.0  0.06140  0.56470  0.30760  1.0000
  C   C10       1.0  0.93860  0.06470  0.19240  1.0000
  C   C11       1.0  0.93860  0.43530  0.69240  1.0000
  C   C12       1.0  0.06140  0.93530  0.80760  1.0000
  C   C13       1.0  0.09590  0.56650  0.51580  1.0000
  C   C14       1.0  0.90410  0.06650  0.98420  1.0000
  C   C15       1.0  0.90410  0.43350  0.48420  1.0000
  C   C16       1.0  0.09590  0.93350  0.01580  1.0000
  C   C17       1.0  0.61330  0.85170  0.38230  1.0000
  C   C18       1.0  0.38670  0.35170  0.11770  1.0000
  C   C19       1.0  0.38670  0.14830  0.61770  1.0000
  C   C20       1.0  0.61330  0.64830  0.88230  1.0000
  C   C21       1.0  0.54030  0.90080  0.38100  1.0000
  C   C22       1.0  0.45970  0.40080  0.11900  1.0000
  C   C23       1.0  0.45970  0.09920  0.61900  1.0000
  C   C24       1.0  0.54030  0.59920  0.88100  1.0000
  C   C25       1.0  0.52100  0.93970  0.28430  1.0000
  C   C26       1.0  0.47900  0.43970  0.21570  1.0000
  C   C27       1.0  0.47900  0.06030  0.71570  1.0000
  C   C28       1.0  0.52100  0.56030  0.78430  1.0000
  C   C29       1.0  0.47890  0.91630  0.47740  1.0000
  C   C30       1.0  0.52110  0.41630  0.02260  1.0000
  C   C31       1.0  0.52110  0.08370  0.52260  1.0000
  C   C32       1.0  0.47890  0.58370  0.97740  1.0000
