data_image0
_chemical_formula_structural       Au8C8S8C8S8C8N8C8N8
_chemical_formula_sum              "Au8 C32 S16 N16"
_cell_length_a       17.112
_cell_length_b       12.896
_cell_length_c       11.447
_cell_angle_alpha    90
_cell_angle_beta     90.276
_cell_angle_gamma    90

_space_group_name_H-M_alt    "P 1"
_space_group_IT_number       1

loop_
  _space_group_symop_operation_xyz
  'x, y, z'

loop_
  _atom_site_type_symbol
  _atom_site_label
  _atom_site_symmetry_multiplicity
  _atom_site_fract_x
  _atom_site_fract_y
  _atom_site_fract_z
  _atom_site_occupancy
  Au  Au1       1.0  0.49055  0.48591  0.37950  1.0000
  Au  Au2       1.0  0.50945  0.48591  0.12050  1.0000
  Au  Au3       1.0  0.99055  0.98591  0.37950  1.0000
  Au  Au4       1.0  0.00945  0.98591  0.12050  1.0000
  Au  Au5       1.0  0.50945  0.51409  0.62050  1.0000
  Au  Au6       1.0  0.49055  0.51409  0.87950  1.0000
  Au  Au7       1.0  0.00945  0.01409  0.62050  1.0000
  Au  Au8       1.0  0.99055  0.01409  0.87950  1.0000
  C   C1        1.0  0.59970  0.30630  0.51120  1.0000
  C   C2        1.0  0.40030  0.30630  0.98880  1.0000
  C   C3        1.0  0.09970  0.80630  0.51120  1.0000
  C   C4        1.0  0.90030  0.80630  0.98880  1.0000
  C   C5        1.0  0.40030  0.69370  0.48880  1.0000
  C   C6        1.0  0.59970  0.69370  0.01120  1.0000
  C   C7        1.0  0.90030  0.19370  0.48880  1.0000
  C   C8        1.0  0.09970  0.19370  0.01120  1.0000
  S   S1        1.0  0.56195  0.33599  0.37578  1.0000
  S   S2        1.0  0.43805  0.33599  0.12422  1.0000
  S   S3        1.0  0.06195  0.83599  0.37578  1.0000
  S   S4        1.0  0.93805  0.83599  0.12422  1.0000
  S   S5        1.0  0.43805  0.66401  0.62422  1.0000
  S   S6        1.0  0.56195  0.66401  0.87578  1.0000
  S   S7        1.0  0.93805  0.16401  0.62422  1.0000
  S   S8        1.0  0.06195  0.16401  0.87578  1.0000
  C   C9        1.0  0.64520  0.21610  0.51590  1.0000
  C   C10       1.0  0.35480  0.21610  0.98410  1.0000
  C   C11       1.0  0.14520  0.71610  0.51590  1.0000
  C   C12       1.0  0.85480  0.71610  0.98410  1.0000
  C   C13       1.0  0.35480  0.78390  0.48410  1.0000
  C   C14       1.0  0.64520  0.78390  0.01590  1.0000
  C   C15       1.0  0.85480  0.28390  0.48410  1.0000
  C   C16       1.0  0.14520  0.28390  0.01590  1.0000
  S   S9        1.0  0.58622  0.36989  0.64003  1.0000
  S   S10       1.0  0.41378  0.36989  0.85997  1.0000
  S   S11       1.0  0.08622  0.86989  0.64003  1.0000
  S   S12       1.0  0.91378  0.86989  0.85997  1.0000
  S   S13       1.0  0.41378  0.63011  0.35997  1.0000
  S   S14       1.0  0.58622  0.63011  0.14003  1.0000
  S   S15       1.0  0.91378  0.13011  0.35997  1.0000
  S   S16       1.0  0.08622  0.13011  0.14003  1.0000
  C   C17       1.0  0.68270  0.18170  0.62160  1.0000
  C   C18       1.0  0.31730  0.18170  0.87840  1.0000
  C   C19       1.0  0.18270  0.68170  0.62160  1.0000
  C   C20       1.0  0.81730  0.68170  0.87840  1.0000
  C   C21       1.0  0.31730  0.81830  0.37840  1.0000
  C   C22       1.0  0.68270  0.81830  0.12160  1.0000
  C   C23       1.0  0.81730  0.31830  0.37840  1.0000
  C   C24       1.0  0.18270  0.31830  0.12160  1.0000
  N   N1        1.0  0.71310  0.15300  0.70490  1.0000
  N   N2        1.0  0.28690  0.15300  0.79510  1.0000
  N   N3        1.0  0.21310  0.65300  0.70490  1.0000
  N   N4        1.0  0.78690  0.65300  0.79510  1.0000
  N   N5        1.0  0.28690  0.84700  0.29510  1.0000
  N   N6        1.0  0.71310  0.84700  0.20490  1.0000
  N   N7        1.0  0.78690  0.34700  0.29510  1.0000
  N   N8        1.0  0.21310  0.34700  0.20490  1.0000
  C   C25       1.0  0.65700  0.15510  0.41560  1.0000
  C   C26       1.0  0.34300  0.15510  0.08440  1.0000
  C   C27       1.0  0.15700  0.65510  0.41560  1.0000
  C   C28       1.0  0.84300  0.65510  0.08440  1.0000
  C   C29       1.0  0.34300  0.84490  0.58440  1.0000
  C   C30       1.0  0.65700  0.84490  0.91560  1.0000
  C   C31       1.0  0.84300  0.34490  0.58440  1.0000
  C   C32       1.0  0.15700  0.34490  0.91560  1.0000
  N   N9        1.0  0.66650  0.10620  0.33070  1.0000
  N   N10       1.0  0.33350  0.10620  0.16930  1.0000
  N   N11       1.0  0.16650  0.60620  0.33070  1.0000
  N   N12       1.0  0.83350  0.60620  0.16930  1.0000
  N   N13       1.0  0.33350  0.89380  0.66930  1.0000
  N   N14       1.0  0.66650  0.89380  0.83070  1.0000
  N   N15       1.0  0.83350  0.39380  0.66930  1.0000
  N   N16       1.0  0.16650  0.39380  0.83070  1.0000
