data_image0
_chemical_formula_structural       O4C4O4Co4O16C4H8C8N4C4H8C4H8
_chemical_formula_sum              "O24 C24 Co4 H24 N4"
_cell_length_a       8.403
_cell_length_b       10.165
_cell_length_c       11.23
_cell_angle_alpha    90
_cell_angle_beta     90
_cell_angle_gamma    90

_space_group_name_H-M_alt    "P 1"
_space_group_IT_number       1

loop_
  _space_group_symop_operation_xyz
  'x, y, z'

loop_
  _atom_site_type_symbol
  _atom_site_label
  _atom_site_symmetry_multiplicity
  _atom_site_fract_x
  _atom_site_fract_y
  _atom_site_fract_z
  _atom_site_occupancy
  O   O1        1.0  0.08260  0.30440  0.73450  1.0000
  O   O2        1.0  0.41740  0.69560  0.23450  1.0000
  O   O3        1.0  0.91740  0.80440  0.76550  1.0000
  O   O4        1.0  0.58260  0.19560  0.26550  1.0000
  C   C1        1.0  0.10360  0.42430  0.71160  1.0000
  C   C2        1.0  0.39640  0.57570  0.21160  1.0000
  C   C3        1.0  0.89640  0.92430  0.78840  1.0000
  C   C4        1.0  0.60360  0.07570  0.28840  1.0000
  O   O5        1.0  0.43680  0.85240  0.45520  1.0000
  O   O6        1.0  0.06320  0.14760  0.95520  1.0000
  O   O7        1.0  0.56320  0.35240  0.04480  1.0000
  O   O8        1.0  0.93680  0.64760  0.54480  1.0000
  Co  Co1       1.0  0.09555  0.70669  0.68193  1.0000
  Co  Co2       1.0  0.40445  0.29331  0.18193  1.0000
  Co  Co3       1.0  0.90445  0.20669  0.81807  1.0000
  Co  Co4       1.0  0.59555  0.79331  0.31807  1.0000
  O   O9        1.0  0.03510  0.51900  0.75920  1.0000
  O   O10       1.0  0.46490  0.48100  0.25920  1.0000
  O   O11       1.0  0.96490  0.01900  0.74080  1.0000
  O   O12       1.0  0.53510  0.98100  0.24080  1.0000
  O   O13       1.0  0.25090  0.75160  0.81690  1.0000
  O   O14       1.0  0.24910  0.24840  0.31690  1.0000
  O   O15       1.0  0.74910  0.25160  0.68310  1.0000
  O   O16       1.0  0.75090  0.74840  0.18310  1.0000
  O   O17       1.0  0.22040  0.83680  0.56660  1.0000
  O   O18       1.0  0.27960  0.16320  0.06660  1.0000
  O   O19       1.0  0.77960  0.33680  0.93340  1.0000
  O   O20       1.0  0.72040  0.66320  0.43340  1.0000
  O   O21       1.0  0.48860  0.71340  0.88890  1.0000
  O   O22       1.0  0.01140  0.28660  0.38890  1.0000
  O   O23       1.0  0.51140  0.21340  0.61110  1.0000
  O   O24       1.0  0.98860  0.78660  0.11110  1.0000
  C   C5        1.0  0.41390  0.59490  0.71580  1.0000
  C   C6        1.0  0.08610  0.40510  0.21580  1.0000
  C   C7        1.0  0.58610  0.09490  0.78420  1.0000
  C   C8        1.0  0.91390  0.90510  0.28420  1.0000
  H   H1        1.0  0.42656  0.50998  0.75201  1.0000
  H   H2        1.0  0.07344  0.49002  0.25201  1.0000
  H   H3        1.0  0.57344  0.00998  0.74799  1.0000
  H   H4        1.0  0.92656  0.99002  0.24799  1.0000
  H   H5        1.0  0.51281  0.61672  0.67782  1.0000
  H   H6        1.0  0.98719  0.38328  0.17782  1.0000
  H   H7        1.0  0.48719  0.11672  0.82218  1.0000
  H   H8        1.0  0.01281  0.88328  0.32218  1.0000
  C   C9        1.0  0.38240  0.69500  0.81420  1.0000
  C   C10       1.0  0.11760  0.30500  0.31420  1.0000
  C   C11       1.0  0.61760  0.19500  0.68580  1.0000
  C   C12       1.0  0.88240  0.80500  0.18580  1.0000
  C   C13       1.0  0.33600  0.78700  0.51090  1.0000
  C   C14       1.0  0.16400  0.21300  0.01090  1.0000
  C   C15       1.0  0.66400  0.28700  0.98910  1.0000
  C   C16       1.0  0.83600  0.71300  0.48910  1.0000
  N   N1        1.0  0.29000  0.58490  0.62410  1.0000
  N   N2        1.0  0.21000  0.41510  0.12410  1.0000
  N   N3        1.0  0.71000  0.08490  0.87590  1.0000
  N   N4        1.0  0.79000  0.91510  0.37590  1.0000
  C   C17       1.0  0.34290  0.63740  0.50870  1.0000
  C   C18       1.0  0.15710  0.36260  0.00870  1.0000
  C   C19       1.0  0.65710  0.13740  0.99130  1.0000
  C   C20       1.0  0.84290  0.86260  0.49130  1.0000
  H   H9        1.0  0.44970  0.60873  0.49281  1.0000
  H   H10       1.0  0.05030  0.39127  0.99281  1.0000
  H   H11       1.0  0.55030  0.10873  0.00719  1.0000
  H   H12       1.0  0.94970  0.89127  0.50719  1.0000
  H   H13       1.0  0.27551  0.60471  0.44633  1.0000
  H   H14       1.0  0.22449  0.39529  0.94633  1.0000
  H   H15       1.0  0.72449  0.10471  0.05367  1.0000
  H   H16       1.0  0.77551  0.89529  0.55367  1.0000
  C   C21       1.0  0.22570  0.45160  0.61490  1.0000
  C   C22       1.0  0.27430  0.54840  0.11490  1.0000
  C   C23       1.0  0.77430  0.95160  0.88510  1.0000
  C   C24       1.0  0.72570  0.04840  0.38510  1.0000
  H   H17       1.0  0.17603  0.44096  0.53846  1.0000
  H   H18       1.0  0.32397  0.55904  0.03846  1.0000
  H   H19       1.0  0.82397  0.94096  0.96154  1.0000
  H   H20       1.0  0.67603  0.05904  0.46154  1.0000
  H   H21       1.0  0.31113  0.38926  0.62045  1.0000
  H   H22       1.0  0.18887  0.61074  0.12045  1.0000
  H   H23       1.0  0.68887  0.88926  0.87955  1.0000
  H   H24       1.0  0.81113  0.11074  0.37955  1.0000
