data_image0
_chemical_formula_structural       Zn8O52H8C8H4C4H4C12H4C4H4C4B4
_chemical_formula_sum              "Zn8 O52 H24 C32 B4"
_cell_length_a       14.0368
_cell_length_b       7.9837
_cell_length_c       17.5127
_cell_angle_alpha    90
_cell_angle_beta     106.58
_cell_angle_gamma    90

_space_group_name_H-M_alt    "P 1"
_space_group_IT_number       1

loop_
  _space_group_symop_operation_xyz
  'x, y, z'

loop_
  _atom_site_type_symbol
  _atom_site_label
  _atom_site_symmetry_multiplicity
  _atom_site_fract_x
  _atom_site_fract_y
  _atom_site_fract_z
  _atom_site_occupancy
  Zn  Zn1       1.0  0.34491  0.33379  0.46919  1.0000
  Zn  Zn2       1.0  0.65509  0.83379  0.03081  1.0000
  Zn  Zn3       1.0  0.65509  0.66621  0.53081  1.0000
  Zn  Zn4       1.0  0.34491  0.16621  0.96919  1.0000
  Zn  Zn5       1.0  0.10121  0.86636  0.32783  1.0000
  Zn  Zn6       1.0  0.89879  0.36636  0.17217  1.0000
  Zn  Zn7       1.0  0.89879  0.13364  0.67217  1.0000
  Zn  Zn8       1.0  0.10121  0.63364  0.82783  1.0000
  O   O1        1.0  0.07929  0.21630  0.50052  1.0000
  O   O2        1.0  0.92071  0.71630  0.99948  1.0000
  O   O3        1.0  0.92071  0.78370  0.49948  1.0000
  O   O4        1.0  0.07929  0.28370  0.00052  1.0000
  O   O5        1.0  0.23945  0.27820  0.52383  1.0000
  O   O6        1.0  0.76055  0.77820  0.97617  1.0000
  O   O7        1.0  0.76055  0.72180  0.47617  1.0000
  O   O8        1.0  0.23945  0.22180  0.02383  1.0000
  O   O9        1.0  0.21340  0.43320  0.38450  1.0000
  O   O10       1.0  0.78660  0.93320  0.11550  1.0000
  O   O11       1.0  0.78660  0.56680  0.61550  1.0000
  O   O12       1.0  0.21340  0.06680  0.88450  1.0000
  O   O13       1.0  0.13180  0.65930  0.42260  1.0000
  O   O14       1.0  0.86820  0.15930  0.07740  1.0000
  O   O15       1.0  0.86820  0.34070  0.57740  1.0000
  O   O16       1.0  0.13180  0.84070  0.92260  1.0000
  O   O17       1.0  0.00810  0.67940  0.27544  1.0000
  O   O18       1.0  0.99190  0.17940  0.22456  1.0000
  O   O19       1.0  0.99190  0.32060  0.72456  1.0000
  O   O20       1.0  0.00810  0.82060  0.77544  1.0000
  O   O21       1.0  0.92889  0.44620  0.28604  1.0000
  O   O22       1.0  0.07111  0.94620  0.21396  1.0000
  O   O23       1.0  0.07111  0.55380  0.71396  1.0000
  O   O24       1.0  0.92889  0.05380  0.78604  1.0000
  O   O25       1.0  0.54145  0.66590  0.42373  1.0000
  O   O26       1.0  0.45855  0.16590  0.07627  1.0000
  O   O27       1.0  0.45855  0.33410  0.57627  1.0000
  O   O28       1.0  0.54145  0.83410  0.92373  1.0000
  O   O29       1.0  0.43659  0.45240  0.41377  1.0000
  O   O30       1.0  0.56341  0.95240  0.08623  1.0000
  O   O31       1.0  0.56341  0.54760  0.58623  1.0000
  O   O32       1.0  0.43659  0.04760  0.91377  1.0000
  O   O33       1.0  0.31408  0.63400  0.47531  1.0000
  O   O34       1.0  0.68592  0.13400  0.02469  1.0000
  O   O35       1.0  0.68592  0.36600  0.52469  1.0000
  O   O36       1.0  0.31408  0.86600  0.97531  1.0000
  O   O37       1.0  0.24281  0.72260  0.34426  1.0000
  O   O38       1.0  0.75719  0.22260  0.15574  1.0000
  O   O39       1.0  0.75719  0.27740  0.65574  1.0000
  O   O40       1.0  0.24281  0.77740  0.84426  1.0000
  O   O41       1.0  0.20675  0.02880  0.38813  1.0000
  O   O42       1.0  0.79325  0.52880  0.11187  1.0000
  O   O43       1.0  0.79325  0.97120  0.61187  1.0000
  O   O44       1.0  0.20675  0.47120  0.88813  1.0000
  O   O45       1.0  0.36698  0.09890  0.43074  1.0000
  O   O46       1.0  0.63302  0.59890  0.06926  1.0000
  O   O47       1.0  0.63302  0.90110  0.56926  1.0000
  O   O48       1.0  0.36698  0.40110  0.93074  1.0000
  O   O49       1.0  0.00400  0.96070  0.38816  1.0000
  O   O50       1.0  0.99600  0.46070  0.11184  1.0000
  O   O51       1.0  0.99600  0.03930  0.61184  1.0000
  O   O52       1.0  0.00400  0.53930  0.88816  1.0000
  H   H1        1.0  0.03630  0.98270  0.43600  1.0000
  H   H2        1.0  0.96370  0.48270  0.06400  1.0000
  H   H3        1.0  0.96370  0.01730  0.56400  1.0000
  H   H4        1.0  0.03630  0.51730  0.93600  1.0000
  H   H5        1.0  0.95960  0.88800  0.38770  1.0000
  H   H6        1.0  0.04040  0.38800  0.11230  1.0000
  H   H7        1.0  0.04040  0.11200  0.61230  1.0000
  H   H8        1.0  0.95960  0.61200  0.88770  1.0000
  C   C1        1.0  0.14950  0.28200  0.48120  1.0000
  C   C2        1.0  0.85050  0.78200  0.01880  1.0000
  C   C3        1.0  0.85050  0.71800  0.51880  1.0000
  C   C4        1.0  0.14950  0.21800  0.98120  1.0000
  C   C5        1.0  0.12580  0.37010  0.40035  1.0000
  C   C6        1.0  0.87420  0.87010  0.09965  1.0000
  C   C7        1.0  0.87420  0.62990  0.59965  1.0000
  C   C8        1.0  0.12580  0.12990  0.90035  1.0000
  H   H9        1.0  0.09150  0.29260  0.35800  1.0000
  H   H10       1.0  0.90850  0.79260  0.14200  1.0000
  H   H11       1.0  0.90850  0.70740  0.64200  1.0000
  H   H12       1.0  0.09150  0.20740  0.85800  1.0000
  C   C9        1.0  0.06150  0.52740  0.39821  1.0000
  C   C10       1.0  0.93850  0.02740  0.10179  1.0000
  C   C11       1.0  0.93850  0.47260  0.60179  1.0000
  C   C12       1.0  0.06150  0.97260  0.89821  1.0000
  H   H13       1.0  0.02180  0.51580  0.43570  1.0000
  H   H14       1.0  0.97820  0.01580  0.06430  1.0000
  H   H15       1.0  0.97820  0.48420  0.56430  1.0000
  H   H16       1.0  0.02180  0.98420  0.93570  1.0000
  C   C13       1.0  0.99380  0.55550  0.31360  1.0000
  C   C14       1.0  0.00620  0.05550  0.18640  1.0000
  C   C15       1.0  0.00620  0.44450  0.68640  1.0000
  C   C16       1.0  0.99380  0.94450  0.81360  1.0000
  C   C17       1.0  0.46080  0.60350  0.42791  1.0000
  C   C18       1.0  0.53920  0.10350  0.07209  1.0000
  C   C19       1.0  0.53920  0.39650  0.57209  1.0000
  C   C20       1.0  0.46080  0.89650  0.92791  1.0000
  C   C21       1.0  0.38770  0.72240  0.45083  1.0000
  C   C22       1.0  0.61230  0.22240  0.04917  1.0000
  C   C23       1.0  0.61230  0.27760  0.54917  1.0000
  C   C24       1.0  0.38770  0.77760  0.95083  1.0000
  H   H17       1.0  0.42370  0.79850  0.49320  1.0000
  H   H18       1.0  0.57630  0.29850  0.00680  1.0000
  H   H19       1.0  0.57630  0.20150  0.50680  1.0000
  H   H20       1.0  0.42370  0.70150  0.99320  1.0000
  C   C25       1.0  0.32810  0.82340  0.37801  1.0000
  C   C26       1.0  0.67190  0.32340  0.12199  1.0000
  C   C27       1.0  0.67190  0.17660  0.62199  1.0000
  C   C28       1.0  0.32810  0.67660  0.87801  1.0000
  H   H21       1.0  0.36700  0.83550  0.33990  1.0000
  H   H22       1.0  0.63300  0.33550  0.16010  1.0000
  H   H23       1.0  0.63300  0.16450  0.66010  1.0000
  H   H24       1.0  0.36700  0.66450  0.83990  1.0000
  C   C29       1.0  0.29780  0.99750  0.40112  1.0000
  C   C30       1.0  0.70220  0.49750  0.09888  1.0000
  C   C31       1.0  0.70220  0.00250  0.59888  1.0000
  C   C32       1.0  0.29780  0.50250  0.90112  1.0000
  B   B1        1.0  0.22610  0.61200  0.40760  1.0000
  B   B2        1.0  0.77390  0.11200  0.09240  1.0000
  B   B3        1.0  0.77390  0.38800  0.59240  1.0000
  B   B4        1.0  0.22610  0.88800  0.90760  1.0000
