data_image0
_chemical_formula_structural       Zn8O50H4O2H4O2H4C4H2C2H2C6H2C2H2C6H2C2H2C6H2C2H2C2B4
_chemical_formula_sum              "Zn8 O54 H28 C32 B4"
_cell_length_a       7.9322
_cell_length_b       14.625
_cell_length_c       18.0381
_cell_angle_alpha    77.355
_cell_angle_beta     88.457
_cell_angle_gamma    85.098

_space_group_name_H-M_alt    "P 1"
_space_group_IT_number       1

loop_
  _space_group_symop_operation_xyz
  'x, y, z'

loop_
  _atom_site_type_symbol
  _atom_site_label
  _atom_site_symmetry_multiplicity
  _atom_site_fract_x
  _atom_site_fract_y
  _atom_site_fract_z
  _atom_site_occupancy
  Zn  Zn1       1.0  0.71308  0.69066  0.19741  1.0000
  Zn  Zn2       1.0  0.28692  0.30934  0.80259  1.0000
  Zn  Zn3       1.0  0.14160  0.93776  0.20614  1.0000
  Zn  Zn4       1.0  0.85840  0.06224  0.79386  1.0000
  Zn  Zn5       1.0  0.61193  0.14975  0.24834  1.0000
  Zn  Zn6       1.0  0.38807  0.85025  0.75166  1.0000
  Zn  Zn7       1.0  0.10077  0.38894  0.27990  1.0000
  Zn  Zn8       1.0  0.89923  0.61106  0.72010  1.0000
  O   O1        1.0  0.40110  0.55007  0.35641  1.0000
  O   O2        1.0  0.59890  0.44993  0.64359  1.0000
  O   O3        1.0  0.61480  0.62310  0.29610  1.0000
  O   O4        1.0  0.38520  0.37690  0.70390  1.0000
  O   O5        1.0  0.41870  0.71974  0.18038  1.0000
  O   O6        1.0  0.58130  0.28026  0.81962  1.0000
  O   O7        1.0  0.30560  0.81152  0.26370  1.0000
  O   O8        1.0  0.69440  0.18848  0.73630  1.0000
  O   O9        1.0  0.99890  0.83058  0.20212  1.0000
  O   O10       1.0  0.00110  0.16942  0.79788  1.0000
  O   O11       1.0  0.95320  0.67959  0.24389  1.0000
  O   O12       1.0  0.04680  0.32041  0.75611  1.0000
  O   O13       1.0  0.80270  0.92097  0.03572  1.0000
  O   O14       1.0  0.19730  0.07903  0.96428  1.0000
  O   O15       1.0  0.76110  0.77505  0.09547  1.0000
  O   O16       1.0  0.23890  0.22495  0.90453  1.0000
  O   O17       1.0  0.59750  0.83071  0.21208  1.0000
  O   O18       1.0  0.40250  0.16929  0.78792  1.0000
  O   O19       1.0  0.36260  0.89199  0.13586  1.0000
  O   O20       1.0  0.63740  0.10801  0.86414  1.0000
  O   O21       1.0  0.31260  0.03290  0.20680  1.0000
  O   O22       1.0  0.68740  0.96710  0.79320  1.0000
  O   O23       1.0  0.53920  0.10207  0.15714  1.0000
  O   O24       1.0  0.46080  0.89793  0.84286  1.0000
  O   O25       1.0  0.04810  0.98017  0.29984  1.0000
  O   O26       1.0  0.95190  0.01983  0.70016  1.0000
  O   O27       1.0  0.82050  0.06050  0.24188  1.0000
  O   O28       1.0  0.17950  0.93950  0.75812  1.0000
  O   O29       1.0  0.80500  0.18710  0.32793  1.0000
  O   O30       1.0  0.19500  0.81290  0.67207  1.0000
  O   O31       1.0  0.02610  0.25708  0.25533  1.0000
  O   O32       1.0  0.97390  0.74292  0.74467  1.0000
  O   O33       1.0  0.16640  0.29513  0.37666  1.0000
  O   O34       1.0  0.83360  0.70487  0.62334  1.0000
  O   O35       1.0  0.27080  0.14770  0.41963  1.0000
  O   O36       1.0  0.72920  0.85230  0.58037  1.0000
  O   O37       1.0  0.33570  0.40427  0.23206  1.0000
  O   O38       1.0  0.66430  0.59573  0.76794  1.0000
  O   O39       1.0  0.42950  0.25238  0.25778  1.0000
  O   O40       1.0  0.57050  0.74762  0.74222  1.0000
  O   O41       1.0  0.73650  0.28343  0.20372  1.0000
  O   O42       1.0  0.26350  0.71657  0.79628  1.0000
  O   O43       1.0  0.80950  0.35915  0.29826  1.0000
  O   O44       1.0  0.19050  0.64085  0.70174  1.0000
  O   O45       1.0  0.97280  0.47383  0.19054  1.0000
  O   O46       1.0  0.02720  0.52617  0.80946  1.0000
  O   O47       1.0  0.74170  0.56860  0.15474  1.0000
  O   O48       1.0  0.25830  0.43140  0.84526  1.0000
  O   O49       1.0  0.03810  0.01300  0.10378  1.0000
  O   O50       1.0  0.96190  0.98700  0.89622  1.0000
  H   H1        1.0  0.02340  0.97530  0.07520  1.0000
  H   H2        1.0  0.97660  0.02470  0.92480  1.0000
  H   H3        1.0  0.10550  0.05300  0.08220  1.0000
  H   H4        1.0  0.89450  0.94700  0.91780  1.0000
  O   O51       1.0  0.50930  0.05790  0.33849  1.0000
  O   O52       1.0  0.49070  0.94210  0.66151  1.0000
  H   H5        1.0  0.54970  0.05060  0.38280  1.0000
  H   H6        1.0  0.45030  0.94940  0.61720  1.0000
  H   H7        1.0  0.42690  0.02750  0.33130  1.0000
  H   H8        1.0  0.57310  0.97250  0.66870  1.0000
  O   O53       1.0  0.09130  0.49882  0.33482  1.0000
  O   O54       1.0  0.90870  0.50118  0.66518  1.0000
  H   H9        1.0  0.18890  0.51910  0.33350  1.0000
  H   H10       1.0  0.81110  0.48090  0.66650  1.0000
  H   H11       1.0  0.02100  0.54270  0.31250  1.0000
  H   H12       1.0  0.97900  0.45730  0.68750  1.0000
  C   C1        1.0  0.46120  0.60650  0.30270  1.0000
  C   C2        1.0  0.53880  0.39350  0.69730  1.0000
  C   C3        1.0  0.33720  0.66030  0.24125  1.0000
  C   C4        1.0  0.66280  0.33970  0.75875  1.0000
  H   H13       1.0  0.27270  0.61630  0.22200  1.0000
  H   H14       1.0  0.72730  0.38370  0.77800  1.0000
  C   C5        1.0  0.21640  0.72920  0.27550  1.0000
  C   C6        1.0  0.78360  0.27080  0.72450  1.0000
  H   H15       1.0  0.20200  0.70410  0.33010  1.0000
  H   H16       1.0  0.79800  0.29590  0.66990  1.0000
  C   C7        1.0  0.04390  0.74870  0.23740  1.0000
  C   C8        1.0  0.95610  0.25130  0.76260  1.0000
  C   C9        1.0  0.74430  0.86350  0.08950  1.0000
  C   C10       1.0  0.25570  0.13650  0.91050  1.0000
  C   C11       1.0  0.65120  0.90290  0.15210  1.0000
  C   C12       1.0  0.34880  0.09710  0.84790  1.0000
  H   H17       1.0  0.72380  0.94270  0.17200  1.0000
  H   H18       1.0  0.27620  0.05730  0.82800  1.0000
  C   C13       1.0  0.48560  0.96000  0.12180  1.0000
  C   C14       1.0  0.51440  0.04000  0.87820  1.0000
  H   H19       1.0  0.49550  0.98660  0.06720  1.0000
  H   H20       1.0  0.50450  0.01340  0.93280  1.0000
  C   C15       1.0  0.44070  0.03800  0.16500  1.0000
  C   C16       1.0  0.55930  0.96200  0.83500  1.0000
  C   C17       1.0  0.93390  0.04750  0.28980  1.0000
  C   C18       1.0  0.06610  0.95250  0.71020  1.0000
  C   C19       1.0  0.94720  0.12080  0.33830  1.0000
  C   C20       1.0  0.05280  0.87920  0.66170  1.0000
  H   H21       1.0  0.96100  0.09020  0.39210  1.0000
  H   H22       1.0  0.03900  0.90980  0.60790  1.0000
  C   C21       1.0  0.09860  0.17890  0.30890  1.0000
  C   C22       1.0  0.90140  0.82110  0.69110  1.0000
  H   H23       1.0  0.18100  0.14200  0.28350  1.0000
  H   H24       1.0  0.81900  0.85800  0.71650  1.0000
  C   C23       1.0  0.18470  0.21000  0.37340  1.0000
  C   C24       1.0  0.81530  0.79000  0.62660  1.0000
  C   C25       1.0  0.44830  0.33760  0.23260  1.0000
  C   C26       1.0  0.55170  0.66240  0.76740  1.0000
  C   C27       1.0  0.62150  0.36500  0.19990  1.0000
  C   C28       1.0  0.37850  0.63500  0.80010  1.0000
  H   H25       1.0  0.60930  0.39930  0.14700  1.0000
  H   H26       1.0  0.39070  0.60070  0.85300  1.0000
  C   C29       1.0  0.70820  0.42470  0.24560  1.0000
  C   C30       1.0  0.29180  0.57530  0.75440  1.0000
  H   H27       1.0  0.62320  0.45850  0.27230  1.0000
  H   H28       1.0  0.37680  0.54150  0.72770  1.0000
  C   C31       1.0  0.81640  0.49450  0.19330  1.0000
  C   C32       1.0  0.18360  0.50550  0.80670  1.0000
  B   B1        1.0  0.42110  0.81320  0.19770  1.0000
  B   B2        1.0  0.57890  0.18680  0.80230  1.0000
  B   B3        1.0  0.84600  0.27150  0.27180  1.0000
  B   B4        1.0  0.15400  0.72850  0.72820  1.0000
