data_image0
_chemical_formula_structural       Yb2O18N2H4N2H4C4H2C2H2C4H2C2H2C8H2C6H2C2H2C6H2
_chemical_formula_sum              "Yb2 O18 N4 H24 C34"
_cell_length_a       8.4034
_cell_length_b       10.5334
_cell_length_c       14.3515
_cell_angle_alpha    100.83
_cell_angle_beta     103.41
_cell_angle_gamma    101.56

_space_group_name_H-M_alt    "P 1"
_space_group_IT_number       1

loop_
  _space_group_symop_operation_xyz
  'x, y, z'

loop_
  _atom_site_type_symbol
  _atom_site_label
  _atom_site_symmetry_multiplicity
  _atom_site_fract_x
  _atom_site_fract_y
  _atom_site_fract_z
  _atom_site_occupancy
  Yb  Yb1       1.0  0.15434  0.15948  0.17018  1.0000
  Yb  Yb2       1.0  0.84566  0.84052  0.82982  1.0000
  O   O1        1.0  0.15240  0.95250  0.09604  1.0000
  O   O2        1.0  0.84760  0.04750  0.90396  1.0000
  O   O3        1.0  0.96950  0.79040  0.97183  1.0000
  O   O4        1.0  0.03050  0.20960  0.02817  1.0000
  O   O5        1.0  0.07520  0.32600  0.25876  1.0000
  O   O6        1.0  0.92480  0.67400  0.74124  1.0000
  O   O7        1.0  0.21980  0.49560  0.38750  1.0000
  O   O8        1.0  0.78020  0.50440  0.61250  1.0000
  O   O9        1.0  0.16720  0.07590  0.31692  1.0000
  O   O10       1.0  0.83280  0.92410  0.68308  1.0000
  O   O11       1.0  0.40690  0.14510  0.28506  1.0000
  O   O12       1.0  0.59310  0.85490  0.71494  1.0000
  O   O13       1.0  0.35430  0.36080  0.18849  1.0000
  O   O14       1.0  0.64570  0.63920  0.81151  1.0000
  O   O15       1.0  0.37650  0.19170  0.08062  1.0000
  O   O16       1.0  0.62350  0.80830  0.91938  1.0000
  O   O17       1.0  0.88290  0.05300  0.15139  1.0000
  O   O18       1.0  0.11710  0.94700  0.84861  1.0000
  N   N1        1.0  0.73700  0.16840  0.23250  1.0000
  N   N2        1.0  0.26300  0.83160  0.76750  1.0000
  H   H1        1.0  0.82860  0.22350  0.27130  1.0000
  H   H2        1.0  0.17140  0.77650  0.72870  1.0000
  H   H3        1.0  0.64040  0.17760  0.23880  1.0000
  H   H4        1.0  0.35960  0.82240  0.76120  1.0000
  N   N3        1.0  0.60040  0.98280  0.10670  1.0000
  N   N4        1.0  0.39960  0.01720  0.89330  1.0000
  H   H5        1.0  0.60250  0.91590  0.06270  1.0000
  H   H6        1.0  0.39750  0.08410  0.93730  1.0000
  H   H7        1.0  0.50530  0.99400  0.11450  1.0000
  H   H8        1.0  0.49470  0.00600  0.88550  1.0000
  C   C1        1.0  0.08590  0.73400  0.12080  1.0000
  C   C2        1.0  0.91410  0.26600  0.87920  1.0000
  C   C3        1.0  0.21160  0.76890  0.21050  1.0000
  C   C4        1.0  0.78840  0.23110  0.78950  1.0000
  H   H9        1.0  0.28620  0.85350  0.23160  1.0000
  H   H10       1.0  0.71380  0.14650  0.76840  1.0000
  C   C5        1.0  0.22540  0.67830  0.26780  1.0000
  C   C6        1.0  0.77460  0.32170  0.73220  1.0000
  H   H11       1.0  0.30620  0.70420  0.32900  1.0000
  H   H12       1.0  0.69380  0.29580  0.67100  1.0000
  C   C7        1.0  0.12090  0.54860  0.23630  1.0000
  C   C8        1.0  0.87910  0.45140  0.76370  1.0000
  C   C9        1.0  0.99680  0.51340  0.14600  1.0000
  C   C10       1.0  0.00320  0.48660  0.85400  1.0000
  H   H13       1.0  0.92620  0.42730  0.12310  1.0000
  H   H14       1.0  0.07380  0.57270  0.87690  1.0000
  C   C11       1.0  0.97830  0.60660  0.08990  1.0000
  C   C12       1.0  0.02170  0.39340  0.91010  1.0000
  H   H15       1.0  0.89250  0.58300  0.03080  1.0000
  H   H16       1.0  0.10750  0.41700  0.96920  1.0000
  C   C13       1.0  0.06720  0.83370  0.05830  1.0000
  C   C14       1.0  0.93280  0.16630  0.94170  1.0000
  C   C15       1.0  0.14320  0.45040  0.29970  1.0000
  C   C16       1.0  0.85680  0.54960  0.70030  1.0000
  C   C17       1.0  0.41610  0.04470  0.42120  1.0000
  C   C18       1.0  0.58390  0.95530  0.57880  1.0000
  C   C19       1.0  0.32670  0.97920  0.47670  1.0000
  C   C20       1.0  0.67330  0.02080  0.52330  1.0000
  H   H17       1.0  0.20980  0.96530  0.46140  1.0000
  H   H18       1.0  0.79020  0.03470  0.53860  1.0000
  C   C21       1.0  0.32470  0.09150  0.33710  1.0000
  C   C22       1.0  0.67530  0.90850  0.66290  1.0000
  C   C23       1.0  0.45810  0.41190  0.05630  1.0000
  C   C24       1.0  0.54190  0.58810  0.94370  1.0000
  C   C25       1.0  0.53150  0.37460  0.98210  1.0000
  C   C26       1.0  0.46850  0.62540  0.01790  1.0000
  H   H19       1.0  0.55270  0.29060  0.96990  1.0000
  H   H20       1.0  0.44730  0.70940  0.03010  1.0000
  C   C27       1.0  0.42660  0.53700  0.07420  1.0000
  C   C28       1.0  0.57340  0.46300  0.92580  1.0000
  H   H21       1.0  0.37730  0.56200  0.12420  1.0000
  H   H22       1.0  0.62270  0.43800  0.87580  1.0000
  C   C29       1.0  0.39700  0.31560  0.11240  1.0000
  C   C30       1.0  0.60300  0.68440  0.88760  1.0000
  C   C31       1.0  0.74490  0.06950  0.16290  1.0000
  C   C32       1.0  0.25510  0.93050  0.83710  1.0000
  C   C33       1.0  0.59010  0.06500  0.44610  1.0000
  C   C34       1.0  0.40990  0.93500  0.55390  1.0000
  H   H23       1.0  0.65170  0.10900  0.41030  1.0000
  H   H24       1.0  0.34830  0.89100  0.58970  1.0000
