data_image0
_chemical_formula_structural       Y2O18N2H4N2H4C6H2C2H2C4H2C2H2C8H2C2H2C6H2C2H2C2
_chemical_formula_sum              "Y2 O18 N4 H24 C34"
_cell_length_a       8.3734
_cell_length_b       10.574
_cell_length_c       14.3077
_cell_angle_alpha    101.478
_cell_angle_beta     103.12
_cell_angle_gamma    102.247

_space_group_name_H-M_alt    "P 1"
_space_group_IT_number       1

loop_
  _space_group_symop_operation_xyz
  'x, y, z'

loop_
  _atom_site_type_symbol
  _atom_site_label
  _atom_site_symmetry_multiplicity
  _atom_site_fract_x
  _atom_site_fract_y
  _atom_site_fract_z
  _atom_site_occupancy
  Y   Y1        1.0  0.65664  0.66015  0.17072  1.0000
  Y   Y2        1.0  0.34336  0.33985  0.82928  1.0000
  O   O1        1.0  0.57780  0.82860  0.26190  1.0000
  O   O2        1.0  0.42220  0.17140  0.73810  1.0000
  O   O3        1.0  0.72850  0.00210  0.39170  1.0000
  O   O4        1.0  0.27150  0.99790  0.60830  1.0000
  O   O5        1.0  0.65430  0.44940  0.09558  1.0000
  O   O6        1.0  0.34570  0.55060  0.90442  1.0000
  O   O7        1.0  0.46440  0.28470  0.97256  1.0000
  O   O8        1.0  0.53560  0.71530  0.02744  1.0000
  O   O9        1.0  0.86560  0.86430  0.19330  1.0000
  O   O10       1.0  0.13440  0.13570  0.80670  1.0000
  O   O11       1.0  0.88160  0.69310  0.08238  1.0000
  O   O12       1.0  0.11840  0.30690  0.91762  1.0000
  O   O13       1.0  0.90880  0.64700  0.28734  1.0000
  O   O14       1.0  0.09120  0.35300  0.71266  1.0000
  O   O15       1.0  0.66590  0.57510  0.31856  1.0000
  O   O16       1.0  0.33410  0.42490  0.68144  1.0000
  O   O17       1.0  0.37860  0.55210  0.14930  1.0000
  O   O18       1.0  0.62140  0.44790  0.85070  1.0000
  N   N1        1.0  0.23530  0.66870  0.23400  1.0000
  N   N2        1.0  0.76470  0.33130  0.76600  1.0000
  H   H1        1.0  0.32820  0.72470  0.27250  1.0000
  H   H2        1.0  0.67180  0.27530  0.72750  1.0000
  H   H3        1.0  0.13880  0.67740  0.24140  1.0000
  H   H4        1.0  0.86120  0.32260  0.75860  1.0000
  N   N3        1.0  0.09350  0.48030  0.10580  1.0000
  N   N4        1.0  0.90650  0.51970  0.89420  1.0000
  H   H5        1.0  0.09450  0.41350  0.06070  1.0000
  H   H6        1.0  0.90550  0.58650  0.93930  1.0000
  H   H7        1.0  0.99840  0.49080  0.11460  1.0000
  H   H8        1.0  0.00160  0.50920  0.88540  1.0000
  C   C1        1.0  0.24090  0.56850  0.16280  1.0000
  C   C2        1.0  0.75910  0.43150  0.83720  1.0000
  C   C3        1.0  0.62530  0.05020  0.23820  1.0000
  C   C4        1.0  0.37470  0.94980  0.76180  1.0000
  C   C5        1.0  0.49870  0.01200  0.14840  1.0000
  C   C6        1.0  0.50130  0.98800  0.85160  1.0000
  H   H9        1.0  0.42720  0.92530  0.12630  1.0000
  H   H10       1.0  0.57280  0.07470  0.87370  1.0000
  C   C7        1.0  0.47840  0.10280  0.09150  1.0000
  C   C8        1.0  0.52160  0.89720  0.90850  1.0000
  H   H11       1.0  0.39140  0.07640  0.03230  1.0000
  H   H12       1.0  0.60860  0.92360  0.96770  1.0000
  C   C9        1.0  0.58580  0.23230  0.12130  1.0000
  C   C10       1.0  0.41420  0.76770  0.87870  1.0000
  C   C11       1.0  0.71460  0.27000  0.21130  1.0000
  C   C12       1.0  0.28540  0.73000  0.78870  1.0000
  H   H13       1.0  0.78930  0.35540  0.23210  1.0000
  H   H14       1.0  0.21070  0.64460  0.76790  1.0000
  C   C13       1.0  0.73150  0.18080  0.26990  1.0000
  C   C14       1.0  0.26850  0.81920  0.73010  1.0000
  H   H15       1.0  0.81430  0.20830  0.33080  1.0000
  H   H16       1.0  0.18570  0.79170  0.66920  1.0000
  C   C15       1.0  0.64850  0.95480  0.30280  1.0000
  C   C16       1.0  0.35150  0.04520  0.69720  1.0000
  C   C17       1.0  0.56630  0.33010  0.05850  1.0000
  C   C18       1.0  0.43370  0.66990  0.94150  1.0000
  C   C19       1.0  0.96160  0.91290  0.05730  1.0000
  C   C20       1.0  0.03840  0.08710  0.94270  1.0000
  C   C21       1.0  0.03070  0.87460  0.98090  1.0000
  C   C22       1.0  0.96930  0.12540  0.01910  1.0000
  H   H17       1.0  0.05150  0.79070  0.96790  1.0000
  H   H18       1.0  0.94850  0.20930  0.03210  1.0000
  C   C23       1.0  0.93120  0.03880  0.07620  1.0000
  C   C24       1.0  0.06880  0.96120  0.92380  1.0000
  H   H19       1.0  0.88480  0.06460  0.12780  1.0000
  H   H20       1.0  0.11520  0.93540  0.87220  1.0000
  C   C25       1.0  0.90430  0.81780  0.11520  1.0000
  C   C26       1.0  0.09570  0.18220  0.88480  1.0000
  C   C27       1.0  0.91540  0.54370  0.42180  1.0000
  C   C28       1.0  0.08460  0.45630  0.57820  1.0000
  C   C29       1.0  0.09030  0.55900  0.44320  1.0000
  C   C30       1.0  0.90970  0.44100  0.55680  1.0000
  H   H21       1.0  0.15150  0.59890  0.40510  1.0000
  H   H22       1.0  0.84850  0.40110  0.59490  1.0000
  C   C31       1.0  0.82650  0.48410  0.47990  1.0000
  C   C32       1.0  0.17350  0.51590  0.52010  1.0000
  H   H23       1.0  0.70970  0.47330  0.46660  1.0000
  H   H24       1.0  0.29030  0.52670  0.53340  1.0000
  C   C33       1.0  0.82640  0.59170  0.33850  1.0000
  C   C34       1.0  0.17360  0.40830  0.66150  1.0000
