data_image0
_chemical_formula_structural       Sm2O18N2H4N2H4C4H2C2H2C4H2C2H2C8H2C2H2C6H2C2H2C4
_chemical_formula_sum              "Sm2 O18 N4 H24 C34"
_cell_length_a       8.3898
_cell_length_b       10.6559
_cell_length_c       14.3877
_cell_angle_alpha    101.964
_cell_angle_beta     102.864
_cell_angle_gamma    102.681

_space_group_name_H-M_alt    "P 1"
_space_group_IT_number       1

loop_
  _space_group_symop_operation_xyz
  'x, y, z'

loop_
  _atom_site_type_symbol
  _atom_site_label
  _atom_site_symmetry_multiplicity
  _atom_site_fract_x
  _atom_site_fract_y
  _atom_site_fract_z
  _atom_site_occupancy
  Sm  Sm1       1.0  0.34250  0.33938  0.32908  1.0000
  Sm  Sm2       1.0  0.65750  0.66062  0.67092  1.0000
  O   O1        1.0  0.33948  0.55500  0.40484  1.0000
  O   O2        1.0  0.66052  0.44500  0.59516  1.0000
  O   O3        1.0  0.53618  0.71927  0.52487  1.0000
  O   O4        1.0  0.46382  0.28073  0.47513  1.0000
  O   O5        1.0  0.27130  0.99305  0.10739  1.0000
  O   O6        1.0  0.72870  0.00695  0.89261  1.0000
  O   O7        1.0  0.42426  0.16695  0.23588  1.0000
  O   O8        1.0  0.57574  0.83305  0.76412  1.0000
  O   O9        1.0  0.08809  0.35191  0.20852  1.0000
  O   O10       1.0  0.91191  0.64809  0.79148  1.0000
  O   O11       1.0  0.33346  0.42642  0.17883  1.0000
  O   O12       1.0  0.66654  0.57358  0.82117  1.0000
  O   O13       1.0  0.12455  0.13114  0.30410  1.0000
  O   O14       1.0  0.87545  0.86886  0.69590  1.0000
  O   O15       1.0  0.10955  0.30249  0.41526  1.0000
  O   O16       1.0  0.89045  0.69751  0.58474  1.0000
  O   O17       1.0  0.62758  0.45177  0.35174  1.0000
  O   O18       1.0  0.37242  0.54823  0.64826  1.0000
  N   N1        1.0  0.91340  0.52346  0.39443  1.0000
  N   N2        1.0  0.08660  0.47654  0.60557  1.0000
  H   H1        1.0  0.91370  0.59000  0.44010  1.0000
  H   H2        1.0  0.08630  0.41000  0.55990  1.0000
  H   H3        1.0  0.00790  0.51300  0.38510  1.0000
  H   H4        1.0  0.99210  0.48700  0.61490  1.0000
  N   N3        1.0  0.76840  0.33557  0.26569  1.0000
  N   N4        1.0  0.23160  0.66443  0.73431  1.0000
  H   H5        1.0  0.67480  0.27980  0.22750  1.0000
  H   H6        1.0  0.32520  0.72020  0.77250  1.0000
  H   H7        1.0  0.86420  0.32670  0.25750  1.0000
  H   H8        1.0  0.13580  0.67330  0.74250  1.0000
  C   C1        1.0  0.41120  0.76999  0.37746  1.0000
  C   C2        1.0  0.58880  0.23001  0.62254  1.0000
  C   C3        1.0  0.28230  0.73057  0.28861  1.0000
  C   C4        1.0  0.71770  0.26943  0.71139  1.0000
  H   H9        1.0  0.20640  0.64570  0.26900  1.0000
  H   H10       1.0  0.79360  0.35430  0.73100  1.0000
  C   C5        1.0  0.26620  0.81707  0.22894  1.0000
  C   C6        1.0  0.73380  0.18293  0.77106  1.0000
  H   H11       1.0  0.18390  0.78800  0.16800  1.0000
  H   H12       1.0  0.81610  0.21200  0.83200  1.0000
  C   C7        1.0  0.37370  0.94798  0.26042  1.0000
  C   C8        1.0  0.62630  0.05202  0.73958  1.0000
  C   C9        1.0  0.50080  0.98815  0.34971  1.0000
  C   C10       1.0  0.49920  0.01185  0.65029  1.0000
  H   H13       1.0  0.57220  0.07490  0.37140  1.0000
  H   H14       1.0  0.42780  0.92510  0.62860  1.0000
  C   C11       1.0  0.52160  0.89899  0.40694  1.0000
  C   C12       1.0  0.47840  0.10101  0.59306  1.0000
  H   H15       1.0  0.60980  0.92560  0.46530  1.0000
  H   H16       1.0  0.39020  0.07440  0.53470  1.0000
  C   C13       1.0  0.43160  0.67448  0.44056  1.0000
  C   C14       1.0  0.56840  0.32552  0.55944  1.0000
  C   C15       1.0  0.35170  0.04135  0.19519  1.0000
  C   C16       1.0  0.64830  0.95865  0.80481  1.0000
  C   C17       1.0  0.08390  0.45597  0.07663  1.0000
  C   C18       1.0  0.91610  0.54403  0.92337  1.0000
  C   C19       1.0  0.90940  0.44150  0.05740  1.0000
  C   C20       1.0  0.09060  0.55850  0.94260  1.0000
  H   H17       1.0  0.84890  0.40230  0.09580  1.0000
  H   H18       1.0  0.15110  0.59770  0.90420  1.0000
  C   C21       1.0  0.17420  0.51490  0.01870  1.0000
  C   C22       1.0  0.82580  0.48510  0.98130  1.0000
  H   H19       1.0  0.29050  0.52480  0.03120  1.0000
  H   H20       1.0  0.70950  0.47520  0.96880  1.0000
  C   C23       1.0  0.17340  0.40810  0.15877  1.0000
  C   C24       1.0  0.82660  0.59190  0.84123  1.0000
  C   C25       1.0  0.03600  0.08549  0.44180  1.0000
  C   C26       1.0  0.96400  0.91451  0.55820  1.0000
  C   C27       1.0  0.06870  0.96110  0.42287  1.0000
  C   C28       1.0  0.93130  0.03890  0.57713  1.0000
  H   H21       1.0  0.11440  0.93520  0.37110  1.0000
  H   H22       1.0  0.88560  0.06480  0.62890  1.0000
  C   C29       1.0  0.96700  0.12400  0.51860  1.0000
  C   C30       1.0  0.03300  0.87600  0.48140  1.0000
  H   H23       1.0  0.94480  0.20670  0.53090  1.0000
  H   H24       1.0  0.05520  0.79330  0.46910  1.0000
  C   C31       1.0  0.08860  0.17848  0.38260  1.0000
  C   C32       1.0  0.91140  0.82152  0.61740  1.0000
  C   C33       1.0  0.76520  0.43580  0.33767  1.0000
  C   C34       1.0  0.23480  0.56420  0.66233  1.0000
