data_image0
_chemical_formula_structural       Cd4N4C4N8C12N16C8N8
_chemical_formula_sum              "Cd4 N36 C24"
_cell_length_a       17.1022
_cell_length_b       10.7274
_cell_length_c       10.7037
_cell_angle_alpha    90
_cell_angle_beta     90
_cell_angle_gamma    90

_space_group_name_H-M_alt    "P 1"
_space_group_IT_number       1

loop_
  _space_group_symop_operation_xyz
  'x, y, z'

loop_
  _atom_site_type_symbol
  _atom_site_label
  _atom_site_symmetry_multiplicity
  _atom_site_fract_x
  _atom_site_fract_y
  _atom_site_fract_z
  _atom_site_occupancy
  Cd  Cd1       1.0  0.34423  0.73561  0.39008  1.0000
  Cd  Cd2       1.0  0.65577  0.26439  0.89008  1.0000
  Cd  Cd3       1.0  0.84423  0.76439  0.39008  1.0000
  Cd  Cd4       1.0  0.15577  0.23561  0.89008  1.0000
  N   N1        1.0  0.23836  0.40160  0.54860  1.0000
  N   N2        1.0  0.76164  0.59840  0.04860  1.0000
  N   N3        1.0  0.73836  0.09840  0.54860  1.0000
  N   N4        1.0  0.26164  0.90160  0.04860  1.0000
  C   C1        1.0  0.52649  0.83710  0.43710  1.0000
  C   C2        1.0  0.47351  0.16290  0.93710  1.0000
  C   C3        1.0  0.02649  0.66290  0.43710  1.0000
  C   C4        1.0  0.97351  0.33710  0.93710  1.0000
  N   N5        1.0  0.34393  0.55170  0.50680  1.0000
  N   N6        1.0  0.65607  0.44830  0.00680  1.0000
  N   N7        1.0  0.84393  0.94830  0.50680  1.0000
  N   N8        1.0  0.15607  0.05170  0.00680  1.0000
  N   N9        1.0  0.58966  0.90340  0.42260  1.0000
  N   N10       1.0  0.41034  0.09660  0.92260  1.0000
  N   N11       1.0  0.08966  0.59660  0.42260  1.0000
  N   N12       1.0  0.91034  0.40340  0.92260  1.0000
  C   C5        1.0  0.65411  0.85230  0.38080  1.0000
  C   C6        1.0  0.34589  0.14770  0.88080  1.0000
  C   C7        1.0  0.15411  0.64770  0.38080  1.0000
  C   C8        1.0  0.84589  0.35230  0.88080  1.0000
  C   C9        1.0  0.29360  0.48350  0.53100  1.0000
  C   C10       1.0  0.70640  0.51650  0.03100  1.0000
  C   C11       1.0  0.79360  0.01650  0.53100  1.0000
  C   C12       1.0  0.20640  0.98350  0.03100  1.0000
  C   C13       1.0  0.19932  0.39980  0.65320  1.0000
  C   C14       1.0  0.80068  0.60020  0.15320  1.0000
  C   C15       1.0  0.69932  0.10020  0.65320  1.0000
  C   C16       1.0  0.30068  0.89980  0.15320  1.0000
  N   N13       1.0  0.46742  0.78850  0.45450  1.0000
  N   N14       1.0  0.53258  0.21150  0.95450  1.0000
  N   N15       1.0  0.96742  0.71150  0.45450  1.0000
  N   N16       1.0  0.03258  0.28850  0.95450  1.0000
  N   N17       1.0  0.71296  0.81750  0.34310  1.0000
  N   N18       1.0  0.28704  0.18250  0.84310  1.0000
  N   N19       1.0  0.21296  0.68250  0.34310  1.0000
  N   N20       1.0  0.78704  0.31750  0.84310  1.0000
  N   N21       1.0  0.15985  0.38990  0.74080  1.0000
  N   N22       1.0  0.84015  0.61010  0.24080  1.0000
  N   N23       1.0  0.65985  0.11010  0.74080  1.0000
  N   N24       1.0  0.34015  0.88990  0.24080  1.0000
  N   N25       1.0  0.29155  0.84820  0.55110  1.0000
  N   N26       1.0  0.70845  0.15180  0.05110  1.0000
  N   N27       1.0  0.79155  0.65180  0.55110  1.0000
  N   N28       1.0  0.20845  0.34820  0.05110  1.0000
  C   C17       1.0  0.23797  0.87790  0.60960  1.0000
  C   C18       1.0  0.76203  0.12210  0.10960  1.0000
  C   C19       1.0  0.73797  0.62210  0.60960  1.0000
  C   C20       1.0  0.26203  0.37790  0.10960  1.0000
  C   C21       1.0  0.15085  0.00960  0.70040  1.0000
  C   C22       1.0  0.84915  0.99040  0.20040  1.0000
  C   C23       1.0  0.65085  0.49040  0.70040  1.0000
  C   C24       1.0  0.34915  0.50960  0.20040  1.0000
  N   N29       1.0  0.17649  0.89780  0.67890  1.0000
  N   N30       1.0  0.82351  0.10220  0.17890  1.0000
  N   N31       1.0  0.67649  0.60220  0.67890  1.0000
  N   N32       1.0  0.32351  0.39780  0.17890  1.0000
  N   N33       1.0  0.12007  0.10250  0.72620  1.0000
  N   N34       1.0  0.87993  0.89750  0.22620  1.0000
  N   N35       1.0  0.62007  0.39750  0.72620  1.0000
  N   N36       1.0  0.37993  0.60250  0.22620  1.0000
