data_image0
_chemical_formula_structural       Co4F8O8C4
_chemical_formula_sum              "Co4 F8 O8 C4"
_cell_length_a       6.1074
_cell_length_b       16.3644
_cell_length_c       4.0298
_cell_angle_alpha    90
_cell_angle_beta     90
_cell_angle_gamma    90

_space_group_name_H-M_alt    "P 1"
_space_group_IT_number       1

loop_
  _space_group_symop_operation_xyz
  'x, y, z'

loop_
  _atom_site_type_symbol
  _atom_site_label
  _atom_site_symmetry_multiplicity
  _atom_site_fract_x
  _atom_site_fract_y
  _atom_site_fract_z
  _atom_site_occupancy
  Co  Co1       1.0  0.50000  0.33243  0.50000  1.0000
  Co  Co2       1.0  0.50000  0.66757  0.50000  1.0000
  Co  Co3       1.0  0.00000  0.83243  0.50000  1.0000
  Co  Co4       1.0  0.00000  0.16757  0.50000  1.0000
  F   F1        1.0  0.25000  0.25000  0.50000  1.0000
  F   F2        1.0  0.75000  0.75000  0.50000  1.0000
  F   F3        1.0  0.75000  0.25000  0.50000  1.0000
  F   F4        1.0  0.25000  0.75000  0.50000  1.0000
  F   F5        1.0  0.50000  0.32950  0.00000  1.0000
  F   F6        1.0  0.50000  0.67050  0.00000  1.0000
  F   F7        1.0  0.00000  0.82950  0.00000  1.0000
  F   F8        1.0  0.00000  0.17050  0.00000  1.0000
  O   O1        1.0  0.72020  0.43173  0.50000  1.0000
  O   O2        1.0  0.27980  0.56827  0.50000  1.0000
  O   O3        1.0  0.27980  0.43173  0.50000  1.0000
  O   O4        1.0  0.72020  0.56827  0.50000  1.0000
  O   O5        1.0  0.22020  0.93173  0.50000  1.0000
  O   O6        1.0  0.77980  0.06827  0.50000  1.0000
  O   O7        1.0  0.77980  0.93173  0.50000  1.0000
  O   O8        1.0  0.22020  0.06827  0.50000  1.0000
  C   C1        1.0  0.62860  0.50000  0.50000  1.0000
  C   C2        1.0  0.37140  0.50000  0.50000  1.0000
  C   C3        1.0  0.12860  0.00000  0.50000  1.0000
  C   C4        1.0  0.87140  0.00000  0.50000  1.0000
