data_image0
_chemical_formula_structural       C4V8P8F12O36C8H4C4H4C8H20
_chemical_formula_sum              "C24 V8 P8 F12 O36 H28"
_cell_length_a       10.0173
_cell_length_b       19.8278
_cell_length_c       10.0473
_cell_angle_alpha    90
_cell_angle_beta     113.771
_cell_angle_gamma    90

_space_group_name_H-M_alt    "P 1"
_space_group_IT_number       1

loop_
  _space_group_symop_operation_xyz
  'x, y, z'

loop_
  _atom_site_type_symbol
  _atom_site_label
  _atom_site_symmetry_multiplicity
  _atom_site_fract_x
  _atom_site_fract_y
  _atom_site_fract_z
  _atom_site_occupancy
  C   C1        1.0  0.46600  0.06193  0.04420  1.0000
  C   C2        1.0  0.53400  0.56193  0.45580  1.0000
  C   C3        1.0  0.53400  0.93807  0.95580  1.0000
  C   C4        1.0  0.46600  0.43807  0.54420  1.0000
  V   V1        1.0  0.28701  0.25997  0.73871  1.0000
  V   V2        1.0  0.71299  0.75997  0.76129  1.0000
  V   V3        1.0  0.71299  0.74003  0.26129  1.0000
  V   V4        1.0  0.28701  0.24003  0.23871  1.0000
  V   V5        1.0  0.26825  0.10894  0.49708  1.0000
  V   V6        1.0  0.73175  0.60894  0.00292  1.0000
  V   V7        1.0  0.73175  0.89106  0.50292  1.0000
  V   V8        1.0  0.26825  0.39106  0.99708  1.0000
  P   P1        1.0  0.00944  0.36448  0.67902  1.0000
  P   P2        1.0  0.99056  0.86448  0.82098  1.0000
  P   P3        1.0  0.99056  0.63552  0.32098  1.0000
  P   P4        1.0  0.00944  0.13552  0.17902  1.0000
  P   P5        1.0  0.51163  0.13468  0.82832  1.0000
  P   P6        1.0  0.48837  0.63468  0.67168  1.0000
  P   P7        1.0  0.48837  0.86532  0.17168  1.0000
  P   P8        1.0  0.51163  0.36532  0.32832  1.0000
  F   F1        1.0  0.19426  0.19330  0.58641  1.0000
  F   F2        1.0  0.80574  0.69330  0.91359  1.0000
  F   F3        1.0  0.80574  0.80670  0.41359  1.0000
  F   F4        1.0  0.19426  0.30670  0.08641  1.0000
  F   F5        1.0  0.34077  0.31324  0.91588  1.0000
  F   F6        1.0  0.65923  0.81324  0.58412  1.0000
  F   F7        1.0  0.65923  0.68676  0.08412  1.0000
  F   F8        1.0  0.34077  0.18676  0.41588  1.0000
  F   F9        1.0  0.19739  0.05531  0.59976  1.0000
  F   F10       1.0  0.80261  0.55531  0.90024  1.0000
  F   F11       1.0  0.80261  0.94469  0.40024  1.0000
  F   F12       1.0  0.19739  0.44469  0.09976  1.0000
  O   O1        1.0  0.10650  0.31496  0.64370  1.0000
  O   O2        1.0  0.89350  0.81496  0.85630  1.0000
  O   O3        1.0  0.89350  0.68504  0.35630  1.0000
  O   O4        1.0  0.10650  0.18504  0.14370  1.0000
  O   O5        1.0  0.85190  0.34022  0.63020  1.0000
  O   O6        1.0  0.14810  0.84022  0.86980  1.0000
  O   O7        1.0  0.14810  0.65978  0.36980  1.0000
  O   O8        1.0  0.85190  0.15978  0.13020  1.0000
  O   O9        1.0  0.06510  0.37979  0.84220  1.0000
  O   O10       1.0  0.93490  0.87979  0.65780  1.0000
  O   O11       1.0  0.93490  0.62021  0.15780  1.0000
  O   O12       1.0  0.06510  0.12021  0.34220  1.0000
  O   O13       1.0  0.46350  0.11777  0.66700  1.0000
  O   O14       1.0  0.53650  0.61777  0.83300  1.0000
  O   O15       1.0  0.53650  0.88223  0.33300  1.0000
  O   O16       1.0  0.46350  0.38223  0.16700  1.0000
  O   O17       1.0  0.67180  0.15704  0.88100  1.0000
  O   O18       1.0  0.32820  0.65704  0.61900  1.0000
  O   O19       1.0  0.32820  0.84296  0.11900  1.0000
  O   O20       1.0  0.67180  0.34296  0.38100  1.0000
  O   O21       1.0  0.41590  0.18663  0.85860  1.0000
  O   O22       1.0  0.58410  0.68663  0.64140  1.0000
  O   O23       1.0  0.58410  0.81337  0.14140  1.0000
  O   O24       1.0  0.41590  0.31337  0.35860  1.0000
  O   O25       1.0  0.39240  0.29648  0.67640  1.0000
  O   O26       1.0  0.60760  0.79648  0.82360  1.0000
  O   O27       1.0  0.60760  0.70352  0.32360  1.0000
  O   O28       1.0  0.39240  0.20352  0.17640  1.0000
  O   O29       1.0  0.32400  0.05220  0.40580  1.0000
  O   O30       1.0  0.67600  0.55220  0.09420  1.0000
  O   O31       1.0  0.67600  0.94780  0.59420  1.0000
  O   O32       1.0  0.32400  0.44780  0.90580  1.0000
  O   O33       1.0  0.14410  0.20963  0.85010  1.0000
  O   O34       1.0  0.85590  0.70963  0.64990  1.0000
  O   O35       1.0  0.85590  0.79037  0.14990  1.0000
  O   O36       1.0  0.14410  0.29037  0.35010  1.0000
  C   C5        1.0  0.00590  0.44103  0.58020  1.0000
  C   C6        1.0  0.99410  0.94103  0.91980  1.0000
  C   C7        1.0  0.99410  0.55897  0.41980  1.0000
  C   C8        1.0  0.00590  0.05897  0.08020  1.0000
  C   C9        1.0  0.10380  0.45093  0.51500  1.0000
  C   C10       1.0  0.89620  0.95093  0.98500  1.0000
  C   C11       1.0  0.89620  0.54907  0.48500  1.0000
  C   C12       1.0  0.10380  0.04907  0.01500  1.0000
  H   H1        1.0  0.17530  0.41760  0.52510  1.0000
  H   H2        1.0  0.82470  0.91760  0.97490  1.0000
  H   H3        1.0  0.82470  0.58240  0.47490  1.0000
  H   H4        1.0  0.17530  0.08240  0.02510  1.0000
  C   C13       1.0  0.90220  0.49089  0.56450  1.0000
  C   C14       1.0  0.09780  0.99089  0.93550  1.0000
  C   C15       1.0  0.09780  0.50911  0.43550  1.0000
  C   C16       1.0  0.90220  0.00911  0.06450  1.0000
  H   H5        1.0  0.83510  0.48500  0.60860  1.0000
  H   H6        1.0  0.16490  0.98500  0.89140  1.0000
  H   H7        1.0  0.16490  0.51500  0.39140  1.0000
  H   H8        1.0  0.83510  0.01500  0.10860  1.0000
  C   C17       1.0  0.50290  0.05911  0.92380  1.0000
  C   C18       1.0  0.49710  0.55911  0.57620  1.0000
  C   C19       1.0  0.49710  0.94089  0.07620  1.0000
  C   C20       1.0  0.50290  0.44089  0.42380  1.0000
  C   C21       1.0  0.46240  0.00349  0.11950  1.0000
  C   C22       1.0  0.53760  0.50349  0.38050  1.0000
  C   C23       1.0  0.53760  0.99651  0.88050  1.0000
  C   C24       1.0  0.46240  0.49651  0.61950  1.0000
  H   H9        1.0  0.43640  0.00600  0.20050  1.0000
  H   H10       1.0  0.56360  0.50600  0.29950  1.0000
  H   H11       1.0  0.56360  0.99400  0.79950  1.0000
  H   H12       1.0  0.43640  0.49400  0.70050  1.0000
  H   H13       1.0  0.44310  0.10410  0.07470  1.0000
  H   H14       1.0  0.55690  0.60410  0.42530  1.0000
  H   H15       1.0  0.55690  0.89590  0.92530  1.0000
  H   H16       1.0  0.44310  0.39590  0.57470  1.0000
  H   H17       1.0  0.74700  0.16200  0.98800  1.0000
  H   H18       1.0  0.25300  0.66200  0.51200  1.0000
  H   H19       1.0  0.25300  0.83800  0.01200  1.0000
  H   H20       1.0  0.74700  0.33800  0.48800  1.0000
  H   H21       1.0  0.12400  0.23600  0.90800  1.0000
  H   H22       1.0  0.87600  0.73600  0.59200  1.0000
  H   H23       1.0  0.87600  0.76400  0.09200  1.0000
  H   H24       1.0  0.12400  0.26400  0.40800  1.0000
  H   H25       1.0  0.20600  0.18200  0.90700  1.0000
  H   H26       1.0  0.79400  0.68200  0.59300  1.0000
  H   H27       1.0  0.79400  0.81800  0.09300  1.0000
  H   H28       1.0  0.20600  0.31800  0.40700  1.0000
