data_image0
_chemical_formula_structural       Cu4O32C16
_chemical_formula_sum              "Cu4 O32 C16"
_cell_length_a       13.062
_cell_length_b       8.8536
_cell_length_c       24.687
_cell_angle_alpha    90
_cell_angle_beta     95.719
_cell_angle_gamma    90

_space_group_name_H-M_alt    "P 1"
_space_group_IT_number       1

loop_
  _space_group_symop_operation_xyz
  'x, y, z'

loop_
  _atom_site_type_symbol
  _atom_site_label
  _atom_site_symmetry_multiplicity
  _atom_site_fract_x
  _atom_site_fract_y
  _atom_site_fract_z
  _atom_site_occupancy
  Cu  Cu1       1.0  0.62576  0.74838  0.02296  1.0000
  Cu  Cu2       1.0  0.87424  0.24838  0.47704  1.0000
  Cu  Cu3       1.0  0.37424  0.25162  0.97704  1.0000
  Cu  Cu4       1.0  0.12576  0.75162  0.52296  1.0000
  O   O1        1.0  0.74115  0.83940  0.98975  1.0000
  O   O2        1.0  0.75885  0.33940  0.51025  1.0000
  O   O3        1.0  0.25885  0.16060  0.01025  1.0000
  O   O4        1.0  0.24115  0.66060  0.48975  1.0000
  O   O5        1.0  0.73346  0.69750  0.08343  1.0000
  O   O6        1.0  0.76654  0.19750  0.41657  1.0000
  O   O7        1.0  0.26654  0.30250  0.91657  1.0000
  O   O8        1.0  0.23346  0.80250  0.58343  1.0000
  O   O9        1.0  0.90379  0.90770  0.01335  1.0000
  O   O10       1.0  0.59621  0.40770  0.48665  1.0000
  O   O11       1.0  0.09621  0.09230  0.98665  1.0000
  O   O12       1.0  0.40379  0.59230  0.51335  1.0000
  O   O13       1.0  0.90456  0.72020  0.10222  1.0000
  O   O14       1.0  0.59544  0.22020  0.39778  1.0000
  O   O15       1.0  0.09544  0.27980  0.89778  1.0000
  O   O16       1.0  0.40456  0.77980  0.60222  1.0000
  O   O17       1.0  0.57419  0.96950  0.06217  1.0000
  O   O18       1.0  0.92581  0.46950  0.43783  1.0000
  O   O19       1.0  0.42581  0.03050  0.93783  1.0000
  O   O20       1.0  0.07419  0.53050  0.56217  1.0000
  O   O21       1.0  0.39159  0.46230  0.03349  1.0000
  O   O22       1.0  0.10841  0.96230  0.46651  1.0000
  O   O23       1.0  0.60841  0.53770  0.96651  1.0000
  O   O24       1.0  0.89159  0.03770  0.53349  1.0000
  O   O25       1.0  0.51518  0.63364  0.05321  1.0000
  O   O26       1.0  0.98482  0.13364  0.44679  1.0000
  O   O27       1.0  0.48482  0.36636  0.94679  1.0000
  O   O28       1.0  0.01518  0.86636  0.55321  1.0000
  O   O29       1.0  0.47234  0.16370  0.03611  1.0000
  O   O30       1.0  0.02766  0.66370  0.46389  1.0000
  O   O31       1.0  0.52766  0.83630  0.96389  1.0000
  O   O32       1.0  0.97234  0.33630  0.53611  1.0000
  C   C1        1.0  0.82449  0.83930  0.02158  1.0000
  C   C2        1.0  0.67551  0.33930  0.47842  1.0000
  C   C3        1.0  0.17551  0.16070  0.97842  1.0000
  C   C4        1.0  0.32449  0.66070  0.52158  1.0000
  C   C5        1.0  0.82267  0.74420  0.07405  1.0000
  C   C6        1.0  0.67733  0.24420  0.42595  1.0000
  C   C7        1.0  0.17733  0.25580  0.92595  1.0000
  C   C8        1.0  0.32267  0.75580  0.57405  1.0000
  C   C9        1.0  0.51318  0.03790  0.02814  1.0000
  C   C10       1.0  0.98682  0.53790  0.47186  1.0000
  C   C11       1.0  0.48682  0.96210  0.97186  1.0000
  C   C12       1.0  0.01318  0.46210  0.52814  1.0000
  C   C13       1.0  0.47272  0.52660  0.02485  1.0000
  C   C14       1.0  0.02728  0.02660  0.47515  1.0000
  C   C15       1.0  0.52728  0.47340  0.97515  1.0000
  C   C16       1.0  0.97272  0.97340  0.52485  1.0000
