data_image0
_chemical_formula_structural       Cd4S16N16C32
_chemical_formula_sum              "Cd4 S16 N16 C32"
_cell_length_a       14.7152
_cell_length_b       17.3633
_cell_length_c       8.4214
_cell_angle_alpha    90
_cell_angle_beta     90
_cell_angle_gamma    90

_space_group_name_H-M_alt    "P 1"
_space_group_IT_number       1

loop_
  _space_group_symop_operation_xyz
  'x, y, z'

loop_
  _atom_site_type_symbol
  _atom_site_label
  _atom_site_symmetry_multiplicity
  _atom_site_fract_x
  _atom_site_fract_y
  _atom_site_fract_z
  _atom_site_occupancy
  Cd  Cd1       1.0  0.75000  0.75000  0.62208  1.0000
  Cd  Cd2       1.0  0.25000  0.25000  0.87792  1.0000
  Cd  Cd3       1.0  0.25000  0.25000  0.37792  1.0000
  Cd  Cd4       1.0  0.75000  0.75000  0.12208  1.0000
  S   S1        1.0  0.72554  0.64639  0.88414  1.0000
  S   S2        1.0  0.77446  0.85361  0.88414  1.0000
  S   S3        1.0  0.22554  0.35361  0.61586  1.0000
  S   S4        1.0  0.27446  0.14639  0.61586  1.0000
  S   S5        1.0  0.27446  0.35361  0.11586  1.0000
  S   S6        1.0  0.22554  0.14639  0.11586  1.0000
  S   S7        1.0  0.77446  0.64639  0.38414  1.0000
  S   S8        1.0  0.72554  0.85361  0.38414  1.0000
  S   S9        1.0  0.58211  0.72277  0.68808  1.0000
  S   S10       1.0  0.91789  0.77723  0.68808  1.0000
  S   S11       1.0  0.08211  0.27723  0.81192  1.0000
  S   S12       1.0  0.41789  0.22277  0.81192  1.0000
  S   S13       1.0  0.41789  0.27723  0.31192  1.0000
  S   S14       1.0  0.08211  0.22277  0.31192  1.0000
  S   S15       1.0  0.91789  0.72277  0.18808  1.0000
  S   S16       1.0  0.58211  0.77723  0.18808  1.0000
  N   N1        1.0  0.57850  0.54481  0.18062  1.0000
  N   N2        1.0  0.92150  0.95519  0.18062  1.0000
  N   N3        1.0  0.07850  0.45519  0.31938  1.0000
  N   N4        1.0  0.42150  0.04481  0.31938  1.0000
  N   N5        1.0  0.42150  0.45519  0.81938  1.0000
  N   N6        1.0  0.07850  0.04481  0.81938  1.0000
  N   N7        1.0  0.92150  0.54481  0.68062  1.0000
  N   N8        1.0  0.57850  0.95519  0.68062  1.0000
  N   N9        1.0  0.37454  0.66280  0.89643  1.0000
  N   N10       1.0  0.12546  0.83720  0.89643  1.0000
  N   N11       1.0  0.87454  0.33720  0.60357  1.0000
  N   N12       1.0  0.62546  0.16280  0.60357  1.0000
  N   N13       1.0  0.62546  0.33720  0.10357  1.0000
  N   N14       1.0  0.87454  0.16280  0.10357  1.0000
  N   N15       1.0  0.12546  0.66280  0.39643  1.0000
  N   N16       1.0  0.37454  0.83720  0.39643  1.0000
  C   C1        1.0  0.61174  0.66377  0.84470  1.0000
  C   C2        1.0  0.88826  0.83623  0.84470  1.0000
  C   C3        1.0  0.11174  0.33623  0.65530  1.0000
  C   C4        1.0  0.38826  0.16377  0.65530  1.0000
  C   C5        1.0  0.38826  0.33623  0.15530  1.0000
  C   C6        1.0  0.11174  0.16377  0.15530  1.0000
  C   C7        1.0  0.88826  0.66377  0.34470  1.0000
  C   C8        1.0  0.61174  0.83623  0.34470  1.0000
  C   C9        1.0  0.54401  0.63167  0.94030  1.0000
  C   C10       1.0  0.95599  0.86833  0.94030  1.0000
  C   C11       1.0  0.04401  0.36833  0.55970  1.0000
  C   C12       1.0  0.45599  0.13167  0.55970  1.0000
  C   C13       1.0  0.45599  0.36833  0.05970  1.0000
  C   C14       1.0  0.04401  0.13167  0.05970  1.0000
  C   C15       1.0  0.95599  0.63167  0.44030  1.0000
  C   C16       1.0  0.54401  0.86833  0.44030  1.0000
  C   C17       1.0  0.56504  0.58356  0.07220  1.0000
  C   C18       1.0  0.93496  0.91644  0.07220  1.0000
  C   C19       1.0  0.06504  0.41644  0.42780  1.0000
  C   C20       1.0  0.43496  0.08356  0.42780  1.0000
  C   C21       1.0  0.43496  0.41644  0.92780  1.0000
  C   C22       1.0  0.06504  0.08356  0.92780  1.0000
  C   C23       1.0  0.93496  0.58356  0.57220  1.0000
  C   C24       1.0  0.56504  0.91644  0.57220  1.0000
  C   C25       1.0  0.45034  0.64882  0.91544  1.0000
  C   C26       1.0  0.04966  0.85118  0.91544  1.0000
  C   C27       1.0  0.95034  0.35118  0.58456  1.0000
  C   C28       1.0  0.54966  0.14882  0.58456  1.0000
  C   C29       1.0  0.54966  0.35118  0.08456  1.0000
  C   C30       1.0  0.95034  0.14882  0.08456  1.0000
  C   C31       1.0  0.04966  0.64882  0.41544  1.0000
  C   C32       1.0  0.45034  0.85118  0.41544  1.0000
