data_image0
_chemical_formula_structural       Yb8O88H16O8H16C24H8C8H8C8H8C8H8C24H8C8H8C8H8C8H8C40H8C8H8C8H8C8H8C24H8C8H8C8H8C8H8C16
_chemical_formula_sum              "Yb8 O96 H160 C224"
_cell_length_a       9.9772
_cell_length_b       19.1646
_cell_length_c       28.2445
_cell_angle_alpha    90
_cell_angle_beta     90
_cell_angle_gamma    90

_space_group_name_H-M_alt    "P 1"
_space_group_IT_number       1

loop_
  _space_group_symop_operation_xyz
  'x, y, z'

loop_
  _atom_site_type_symbol
  _atom_site_label
  _atom_site_symmetry_multiplicity
  _atom_site_fract_x
  _atom_site_fract_y
  _atom_site_fract_z
  _atom_site_occupancy
  Yb  Yb1       1.0  0.08568  0.11574  0.49560  1.0000
  Yb  Yb2       1.0  0.41432  0.88426  0.99560  1.0000
  Yb  Yb3       1.0  0.91432  0.61574  0.00440  1.0000
  Yb  Yb4       1.0  0.58568  0.38426  0.50440  1.0000
  Yb  Yb5       1.0  0.91432  0.88426  0.50440  1.0000
  Yb  Yb6       1.0  0.58568  0.11574  0.00440  1.0000
  Yb  Yb7       1.0  0.08568  0.38426  0.99560  1.0000
  Yb  Yb8       1.0  0.41432  0.61574  0.49560  1.0000
  O   O1        1.0  0.24150  0.15200  0.55485  1.0000
  O   O2        1.0  0.25850  0.84800  0.05485  1.0000
  O   O3        1.0  0.75850  0.65200  0.94515  1.0000
  O   O4        1.0  0.74150  0.34800  0.44515  1.0000
  O   O5        1.0  0.75850  0.84800  0.44515  1.0000
  O   O6        1.0  0.74150  0.15200  0.94515  1.0000
  O   O7        1.0  0.24150  0.34800  0.05485  1.0000
  O   O8        1.0  0.25850  0.65200  0.55485  1.0000
  O   O9        1.0  0.05420  0.21091  0.54831  1.0000
  O   O10       1.0  0.44580  0.78909  0.04831  1.0000
  O   O11       1.0  0.94580  0.71091  0.95169  1.0000
  O   O12       1.0  0.55420  0.28909  0.45169  1.0000
  O   O13       1.0  0.94580  0.78909  0.45169  1.0000
  O   O14       1.0  0.55420  0.21091  0.95169  1.0000
  O   O15       1.0  0.05420  0.28909  0.04831  1.0000
  O   O16       1.0  0.44580  0.71091  0.54831  1.0000
  O   O17       1.0  0.29390  0.35389  0.73277  1.0000
  O   O18       1.0  0.20610  0.64611  0.23277  1.0000
  O   O19       1.0  0.70610  0.85389  0.76723  1.0000
  O   O20       1.0  0.79390  0.14611  0.26723  1.0000
  O   O21       1.0  0.70610  0.64611  0.26723  1.0000
  O   O22       1.0  0.79390  0.35389  0.76723  1.0000
  O   O23       1.0  0.29390  0.14611  0.23277  1.0000
  O   O24       1.0  0.20610  0.85389  0.73277  1.0000
  O   O25       1.0  0.22500  0.20092  0.93077  1.0000
  O   O26       1.0  0.27500  0.79908  0.43077  1.0000
  O   O27       1.0  0.77500  0.70092  0.56923  1.0000
  O   O28       1.0  0.72500  0.29908  0.06923  1.0000
  O   O29       1.0  0.77500  0.79908  0.06923  1.0000
  O   O30       1.0  0.72500  0.20092  0.56923  1.0000
  O   O31       1.0  0.22500  0.29908  0.43077  1.0000
  O   O32       1.0  0.27500  0.70092  0.93077  1.0000
  O   O33       1.0  0.19570  0.31096  0.95185  1.0000
  O   O34       1.0  0.30430  0.68904  0.45185  1.0000
  O   O35       1.0  0.80430  0.81096  0.54815  1.0000
  O   O36       1.0  0.69570  0.18904  0.04815  1.0000
  O   O37       1.0  0.80430  0.68904  0.04815  1.0000
  O   O38       1.0  0.69570  0.31096  0.54815  1.0000
  O   O39       1.0  0.19570  0.18904  0.45185  1.0000
  O   O40       1.0  0.30430  0.81096  0.95185  1.0000
  O   O41       1.0  0.02500  0.06362  0.42752  1.0000
  O   O42       1.0  0.47500  0.93638  0.92752  1.0000
  O   O43       1.0  0.97500  0.56362  0.07248  1.0000
  O   O44       1.0  0.52500  0.43638  0.57248  1.0000
  O   O45       1.0  0.97500  0.93638  0.57248  1.0000
  O   O46       1.0  0.52500  0.06362  0.07248  1.0000
  O   O47       1.0  0.02500  0.43638  0.92752  1.0000
  O   O48       1.0  0.47500  0.56362  0.42752  1.0000
  O   O49       1.0  0.99620  0.95528  0.45255  1.0000
  O   O50       1.0  0.50380  0.04472  0.95255  1.0000
  O   O51       1.0  0.00380  0.45528  0.04745  1.0000
  O   O52       1.0  0.49620  0.54472  0.54745  1.0000
  O   O53       1.0  0.00380  0.04472  0.54745  1.0000
  O   O54       1.0  0.49620  0.95528  0.04745  1.0000
  O   O55       1.0  0.99620  0.54472  0.95255  1.0000
  O   O56       1.0  0.50380  0.45528  0.45255  1.0000
  O   O57       1.0  0.96550  0.89423  0.23494  1.0000
  O   O58       1.0  0.53450  0.10577  0.73494  1.0000
  O   O59       1.0  0.03450  0.39423  0.26506  1.0000
  O   O60       1.0  0.46550  0.60577  0.76506  1.0000
  O   O61       1.0  0.03450  0.10577  0.76506  1.0000
  O   O62       1.0  0.46550  0.89423  0.26506  1.0000
  O   O63       1.0  0.96550  0.60577  0.73494  1.0000
  O   O64       1.0  0.53450  0.39423  0.23494  1.0000
  O   O65       1.0  0.20310  0.05993  0.05997  1.0000
  O   O66       1.0  0.29690  0.94007  0.55997  1.0000
  O   O67       1.0  0.79690  0.55993  0.44003  1.0000
  O   O68       1.0  0.70310  0.44007  0.94003  1.0000
  O   O69       1.0  0.79690  0.94007  0.94003  1.0000
  O   O70       1.0  0.70310  0.05993  0.44003  1.0000
  O   O71       1.0  0.20310  0.44007  0.55997  1.0000
  O   O72       1.0  0.29690  0.55993  0.05997  1.0000
  O   O73       1.0  0.98720  0.06429  0.04352  1.0000
  O   O74       1.0  0.51280  0.93571  0.54352  1.0000
  O   O75       1.0  0.01280  0.56429  0.45648  1.0000
  O   O76       1.0  0.48720  0.43571  0.95648  1.0000
  O   O77       1.0  0.01280  0.93571  0.95648  1.0000
  O   O78       1.0  0.48720  0.06429  0.45648  1.0000
  O   O79       1.0  0.98720  0.43571  0.54352  1.0000
  O   O80       1.0  0.51280  0.56429  0.04352  1.0000
  O   O81       1.0  0.86610  0.15280  0.48671  1.0000
  O   O82       1.0  0.63390  0.84720  0.98671  1.0000
  O   O83       1.0  0.13390  0.65280  0.01329  1.0000
  O   O84       1.0  0.36610  0.34720  0.51329  1.0000
  O   O85       1.0  0.13390  0.84720  0.51329  1.0000
  O   O86       1.0  0.36610  0.15280  0.01329  1.0000
  O   O87       1.0  0.86610  0.34720  0.98671  1.0000
  O   O88       1.0  0.63390  0.65280  0.48671  1.0000
  H   H1        1.0  0.85190  0.18860  0.50420  1.0000
  H   H2        1.0  0.64810  0.81140  0.00420  1.0000
  H   H3        1.0  0.14810  0.68860  0.99580  1.0000
  H   H4        1.0  0.35190  0.31140  0.49580  1.0000
  H   H5        1.0  0.14810  0.81140  0.49580  1.0000
  H   H6        1.0  0.35190  0.18860  0.99580  1.0000
  H   H7        1.0  0.85190  0.31140  0.00420  1.0000
  H   H8        1.0  0.64810  0.68860  0.50420  1.0000
  H   H9        1.0  0.85260  0.16510  0.45770  1.0000
  H   H10       1.0  0.64740  0.83490  0.95770  1.0000
  H   H11       1.0  0.14740  0.66510  0.04230  1.0000
  H   H12       1.0  0.35260  0.33490  0.54230  1.0000
  H   H13       1.0  0.14740  0.83490  0.54230  1.0000
  H   H14       1.0  0.35260  0.16510  0.04230  1.0000
  H   H15       1.0  0.85260  0.33490  0.95770  1.0000
  H   H16       1.0  0.64740  0.66510  0.45770  1.0000
  O   O89       1.0  0.25000  0.03421  0.48783  1.0000
  O   O90       1.0  0.25000  0.96579  0.98783  1.0000
  O   O91       1.0  0.75000  0.53421  0.01217  1.0000
  O   O92       1.0  0.75000  0.46579  0.51217  1.0000
  O   O93       1.0  0.75000  0.96579  0.51217  1.0000
  O   O94       1.0  0.75000  0.03421  0.01217  1.0000
  O   O95       1.0  0.25000  0.46579  0.98783  1.0000
  O   O96       1.0  0.25000  0.53421  0.48783  1.0000
  H   H17       1.0  0.31420  0.04340  0.50680  1.0000
  H   H18       1.0  0.18580  0.95660  0.00680  1.0000
  H   H19       1.0  0.68580  0.54340  0.99320  1.0000
  H   H20       1.0  0.81420  0.45660  0.49320  1.0000
  H   H21       1.0  0.68580  0.95660  0.49320  1.0000
  H   H22       1.0  0.81420  0.04340  0.99320  1.0000
  H   H23       1.0  0.31420  0.45660  0.00680  1.0000
  H   H24       1.0  0.18580  0.54340  0.50680  1.0000
  H   H25       1.0  0.21850  0.99380  0.49510  1.0000
  H   H26       1.0  0.28150  0.00620  0.99510  1.0000
  H   H27       1.0  0.78150  0.49380  0.00490  1.0000
  H   H28       1.0  0.71850  0.50620  0.50490  1.0000
  H   H29       1.0  0.78150  0.00620  0.50490  1.0000
  H   H30       1.0  0.71850  0.99380  0.00490  1.0000
  H   H31       1.0  0.21850  0.50620  0.99510  1.0000
  H   H32       1.0  0.28150  0.49380  0.49510  1.0000
  C   C1        1.0  0.16420  0.19975  0.56959  1.0000
  C   C2        1.0  0.33580  0.80025  0.06959  1.0000
  C   C3        1.0  0.83580  0.69975  0.93041  1.0000
  C   C4        1.0  0.66420  0.30025  0.43041  1.0000
  C   C5        1.0  0.83580  0.80025  0.43041  1.0000
  C   C6        1.0  0.66420  0.19975  0.93041  1.0000
  C   C7        1.0  0.16420  0.30025  0.06959  1.0000
  C   C8        1.0  0.33580  0.69975  0.56959  1.0000
  C   C9        1.0  0.20020  0.24063  0.61241  1.0000
  C   C10       1.0  0.29980  0.75937  0.11241  1.0000
  C   C11       1.0  0.79980  0.74063  0.88759  1.0000
  C   C12       1.0  0.70020  0.25937  0.38759  1.0000
  C   C13       1.0  0.79980  0.75937  0.38759  1.0000
  C   C14       1.0  0.70020  0.24063  0.88759  1.0000
  C   C15       1.0  0.20020  0.25937  0.11241  1.0000
  C   C16       1.0  0.29980  0.74063  0.61241  1.0000
  C   C17       1.0  0.11210  0.28940  0.63018  1.0000
  C   C18       1.0  0.38790  0.71060  0.13018  1.0000
  C   C19       1.0  0.88790  0.78940  0.86982  1.0000
  C   C20       1.0  0.61210  0.21060  0.36982  1.0000
  C   C21       1.0  0.88790  0.71060  0.36982  1.0000
  C   C22       1.0  0.61210  0.28940  0.86982  1.0000
  C   C23       1.0  0.11210  0.21060  0.13018  1.0000
  C   C24       1.0  0.38790  0.78940  0.63018  1.0000
  H   H33       1.0  0.03170  0.29800  0.61460  1.0000
  H   H34       1.0  0.46830  0.70200  0.11460  1.0000
  H   H35       1.0  0.96830  0.79800  0.88540  1.0000
  H   H36       1.0  0.53170  0.20200  0.38540  1.0000
  H   H37       1.0  0.96830  0.70200  0.38540  1.0000
  H   H38       1.0  0.53170  0.29800  0.88540  1.0000
  H   H39       1.0  0.03170  0.20200  0.11460  1.0000
  H   H40       1.0  0.46830  0.79800  0.61460  1.0000
  C   C25       1.0  0.31930  0.22820  0.63603  1.0000
  C   C26       1.0  0.18070  0.77180  0.13603  1.0000
  C   C27       1.0  0.68070  0.72820  0.86397  1.0000
  C   C28       1.0  0.81930  0.27180  0.36397  1.0000
  C   C29       1.0  0.68070  0.77180  0.36397  1.0000
  C   C30       1.0  0.81930  0.22820  0.86397  1.0000
  C   C31       1.0  0.31930  0.27180  0.13603  1.0000
  C   C32       1.0  0.18070  0.72820  0.63603  1.0000
  H   H41       1.0  0.37890  0.19490  0.62450  1.0000
  H   H42       1.0  0.12110  0.80510  0.12450  1.0000
  H   H43       1.0  0.62110  0.69490  0.87550  1.0000
  H   H44       1.0  0.87890  0.30510  0.37550  1.0000
  H   H45       1.0  0.62110  0.80510  0.37550  1.0000
  H   H46       1.0  0.87890  0.19490  0.87550  1.0000
  H   H47       1.0  0.37890  0.30510  0.12450  1.0000
  H   H48       1.0  0.12110  0.69490  0.62450  1.0000
  C   C33       1.0  0.14290  0.32540  0.67105  1.0000
  C   C34       1.0  0.35710  0.67460  0.17105  1.0000
  C   C35       1.0  0.85710  0.82540  0.82895  1.0000
  C   C36       1.0  0.64290  0.17460  0.32895  1.0000
  C   C37       1.0  0.85710  0.67460  0.32895  1.0000
  C   C38       1.0  0.64290  0.32540  0.82895  1.0000
  C   C39       1.0  0.14290  0.17460  0.17105  1.0000
  C   C40       1.0  0.35710  0.82540  0.67105  1.0000
  H   H49       1.0  0.08290  0.35800  0.68320  1.0000
  H   H50       1.0  0.41710  0.64200  0.18320  1.0000
  H   H51       1.0  0.91710  0.85800  0.81680  1.0000
  H   H52       1.0  0.58290  0.14200  0.31680  1.0000
  H   H53       1.0  0.91710  0.64200  0.31680  1.0000
  H   H54       1.0  0.58290  0.35800  0.81680  1.0000
  H   H55       1.0  0.08290  0.14200  0.18320  1.0000
  H   H56       1.0  0.41710  0.85800  0.68320  1.0000
  C   C41       1.0  0.35000  0.26500  0.67651  1.0000
  C   C42       1.0  0.15000  0.73500  0.17651  1.0000
  C   C43       1.0  0.65000  0.76500  0.82349  1.0000
  C   C44       1.0  0.85000  0.23500  0.32349  1.0000
  C   C45       1.0  0.65000  0.73500  0.32349  1.0000
  C   C46       1.0  0.85000  0.26500  0.82349  1.0000
  C   C47       1.0  0.35000  0.23500  0.17651  1.0000
  C   C48       1.0  0.15000  0.76500  0.67651  1.0000
  H   H57       1.0  0.43060  0.25710  0.69210  1.0000
  H   H58       1.0  0.06940  0.74290  0.19210  1.0000
  H   H59       1.0  0.56940  0.75710  0.80790  1.0000
  H   H60       1.0  0.93060  0.24290  0.30790  1.0000
  H   H61       1.0  0.56940  0.74290  0.30790  1.0000
  H   H62       1.0  0.93060  0.25710  0.80790  1.0000
  H   H63       1.0  0.43060  0.24290  0.19210  1.0000
  H   H64       1.0  0.06940  0.75710  0.69210  1.0000
  C   C49       1.0  0.26160  0.31320  0.69353  1.0000
  C   C50       1.0  0.23840  0.68680  0.19353  1.0000
  C   C51       1.0  0.73840  0.81320  0.80647  1.0000
  C   C52       1.0  0.76160  0.18680  0.30647  1.0000
  C   C53       1.0  0.73840  0.68680  0.30647  1.0000
  C   C54       1.0  0.76160  0.31320  0.80647  1.0000
  C   C55       1.0  0.26160  0.18680  0.19353  1.0000
  C   C56       1.0  0.23840  0.81320  0.69353  1.0000
  C   C57       1.0  0.27100  0.32824  0.77770  1.0000
  C   C58       1.0  0.22900  0.67176  0.27770  1.0000
  C   C59       1.0  0.72900  0.82824  0.72230  1.0000
  C   C60       1.0  0.77100  0.17176  0.22230  1.0000
  C   C61       1.0  0.72900  0.67176  0.22230  1.0000
  C   C62       1.0  0.77100  0.32824  0.72230  1.0000
  C   C63       1.0  0.27100  0.17176  0.27770  1.0000
  C   C64       1.0  0.22900  0.82824  0.77770  1.0000
  C   C65       1.0  0.28440  0.37636  0.81381  1.0000
  C   C66       1.0  0.21560  0.62364  0.31381  1.0000
  C   C67       1.0  0.71560  0.87636  0.68619  1.0000
  C   C68       1.0  0.78440  0.12364  0.18619  1.0000
  C   C69       1.0  0.71560  0.62364  0.18619  1.0000
  C   C70       1.0  0.78440  0.37636  0.68619  1.0000
  C   C71       1.0  0.28440  0.12364  0.31381  1.0000
  C   C72       1.0  0.21560  0.87636  0.81381  1.0000
  H   H65       1.0  0.30600  0.42240  0.80680  1.0000
  H   H66       1.0  0.19400  0.57760  0.30680  1.0000
  H   H67       1.0  0.69400  0.92240  0.69320  1.0000
  H   H68       1.0  0.80600  0.07760  0.19320  1.0000
  H   H69       1.0  0.69400  0.57760  0.19320  1.0000
  H   H70       1.0  0.80600  0.42240  0.69320  1.0000
  H   H71       1.0  0.30600  0.07760  0.30680  1.0000
  H   H72       1.0  0.19400  0.92240  0.80680  1.0000
  C   C73       1.0  0.23850  0.25980  0.78769  1.0000
  C   C74       1.0  0.26150  0.74020  0.28769  1.0000
  C   C75       1.0  0.76150  0.75980  0.71231  1.0000
  C   C76       1.0  0.73850  0.24020  0.21231  1.0000
  C   C77       1.0  0.76150  0.74020  0.21231  1.0000
  C   C78       1.0  0.73850  0.25980  0.71231  1.0000
  C   C79       1.0  0.23850  0.24020  0.28769  1.0000
  C   C80       1.0  0.26150  0.75980  0.78769  1.0000
  H   H73       1.0  0.22730  0.22760  0.76340  1.0000
  H   H74       1.0  0.27270  0.77240  0.26340  1.0000
  H   H75       1.0  0.77270  0.72760  0.73660  1.0000
  H   H76       1.0  0.72730  0.27240  0.23660  1.0000
  H   H77       1.0  0.77270  0.77240  0.23660  1.0000
  H   H78       1.0  0.72730  0.22760  0.73660  1.0000
  H   H79       1.0  0.22730  0.27240  0.26340  1.0000
  H   H80       1.0  0.27270  0.72760  0.76340  1.0000
  C   C81       1.0  0.26590  0.35616  0.85998  1.0000
  C   C82       1.0  0.23410  0.64384  0.35998  1.0000
  C   C83       1.0  0.73410  0.85616  0.64002  1.0000
  C   C84       1.0  0.76590  0.14384  0.14002  1.0000
  C   C85       1.0  0.73410  0.64384  0.14002  1.0000
  C   C86       1.0  0.76590  0.35616  0.64002  1.0000
  C   C87       1.0  0.26590  0.14384  0.35998  1.0000
  C   C88       1.0  0.23410  0.85616  0.85998  1.0000
  H   H81       1.0  0.27350  0.38890  0.88410  1.0000
  H   H82       1.0  0.22650  0.61110  0.38410  1.0000
  H   H83       1.0  0.72650  0.88890  0.61590  1.0000
  H   H84       1.0  0.77350  0.11110  0.11590  1.0000
  H   H85       1.0  0.72650  0.61110  0.11590  1.0000
  H   H86       1.0  0.77350  0.38890  0.61590  1.0000
  H   H87       1.0  0.27350  0.11110  0.38410  1.0000
  H   H88       1.0  0.22650  0.88890  0.88410  1.0000
  C   C89       1.0  0.22270  0.23971  0.83443  1.0000
  C   C90       1.0  0.27730  0.76029  0.33443  1.0000
  C   C91       1.0  0.77730  0.73971  0.66557  1.0000
  C   C92       1.0  0.72270  0.26029  0.16557  1.0000
  C   C93       1.0  0.77730  0.76029  0.16557  1.0000
  C   C94       1.0  0.72270  0.23971  0.66557  1.0000
  C   C95       1.0  0.22270  0.26029  0.33443  1.0000
  C   C96       1.0  0.27730  0.73971  0.83443  1.0000
  H   H89       1.0  0.20280  0.19340  0.84140  1.0000
  H   H90       1.0  0.29720  0.80660  0.34140  1.0000
  H   H91       1.0  0.79720  0.69340  0.65860  1.0000
  H   H92       1.0  0.70280  0.30660  0.15860  1.0000
  H   H93       1.0  0.79720  0.80660  0.15860  1.0000
  H   H94       1.0  0.70280  0.19340  0.65860  1.0000
  H   H95       1.0  0.20280  0.30660  0.34140  1.0000
  H   H96       1.0  0.29720  0.69340  0.84140  1.0000
  C   C97       1.0  0.23600  0.28753  0.87098  1.0000
  C   C98       1.0  0.26400  0.71247  0.37098  1.0000
  C   C99       1.0  0.76400  0.78753  0.62902  1.0000
  C   C100      1.0  0.73600  0.21247  0.12902  1.0000
  C   C101      1.0  0.76400  0.71247  0.12902  1.0000
  C   C102      1.0  0.73600  0.28753  0.62902  1.0000
  C   C103      1.0  0.23600  0.21247  0.37098  1.0000
  C   C104      1.0  0.26400  0.78753  0.87098  1.0000
  C   C105      1.0  0.21840  0.26418  0.92121  1.0000
  C   C106      1.0  0.28160  0.73582  0.42121  1.0000
  C   C107      1.0  0.78160  0.76418  0.57879  1.0000
  C   C108      1.0  0.71840  0.23582  0.07879  1.0000
  C   C109      1.0  0.78160  0.73582  0.07879  1.0000
  C   C110      1.0  0.71840  0.26418  0.57879  1.0000
  C   C111      1.0  0.21840  0.23582  0.42121  1.0000
  C   C112      1.0  0.28160  0.76418  0.92121  1.0000
  C   C113      1.0  0.01190  0.99939  0.41978  1.0000
  C   C114      1.0  0.48810  0.00061  0.91978  1.0000
  C   C115      1.0  0.98810  0.49939  0.08022  1.0000
  C   C116      1.0  0.51190  0.50061  0.58022  1.0000
  C   C117      1.0  0.98810  0.00061  0.58022  1.0000
  C   C118      1.0  0.51190  0.99939  0.08022  1.0000
  C   C119      1.0  0.01190  0.50061  0.91978  1.0000
  C   C120      1.0  0.48810  0.49939  0.41978  1.0000
  C   C121      1.0  0.01230  0.97375  0.37022  1.0000
  C   C122      1.0  0.48770  0.02625  0.87022  1.0000
  C   C123      1.0  0.98770  0.47375  0.12978  1.0000
  C   C124      1.0  0.51230  0.52625  0.62978  1.0000
  C   C125      1.0  0.98770  0.02625  0.62978  1.0000
  C   C126      1.0  0.51230  0.97375  0.12978  1.0000
  C   C127      1.0  0.01230  0.52625  0.87022  1.0000
  C   C128      1.0  0.48770  0.47375  0.37022  1.0000
  C   C129      1.0  0.99840  0.02020  0.33264  1.0000
  C   C130      1.0  0.50160  0.97980  0.83264  1.0000
  C   C131      1.0  0.00160  0.52020  0.16736  1.0000
  C   C132      1.0  0.49840  0.47980  0.66736  1.0000
  C   C133      1.0  0.00160  0.97980  0.66736  1.0000
  C   C134      1.0  0.49840  0.02020  0.16736  1.0000
  C   C135      1.0  0.99840  0.47980  0.83264  1.0000
  C   C136      1.0  0.50160  0.52020  0.33264  1.0000
  H   H97       1.0  0.99680  0.06800  0.33830  1.0000
  H   H98       1.0  0.50320  0.93200  0.83830  1.0000
  H   H99       1.0  0.00320  0.56800  0.16170  1.0000
  H   H100      1.0  0.49680  0.43200  0.66170  1.0000
  H   H101      1.0  0.00320  0.93200  0.66170  1.0000
  H   H102      1.0  0.49680  0.06800  0.16170  1.0000
  H   H103      1.0  0.99680  0.43200  0.83830  1.0000
  H   H104      1.0  0.50320  0.56800  0.33830  1.0000
  C   C137      1.0  0.01890  0.90272  0.36104  1.0000
  C   C138      1.0  0.48110  0.09728  0.86104  1.0000
  C   C139      1.0  0.98110  0.40272  0.13896  1.0000
  C   C140      1.0  0.51890  0.59728  0.63896  1.0000
  C   C141      1.0  0.98110  0.09728  0.63896  1.0000
  C   C142      1.0  0.51890  0.90272  0.13896  1.0000
  C   C143      1.0  0.01890  0.59728  0.86104  1.0000
  C   C144      1.0  0.48110  0.40272  0.36104  1.0000
  H   H105      1.0  0.03130  0.87160  0.38590  1.0000
  H   H106      1.0  0.46870  0.12840  0.88590  1.0000
  H   H107      1.0  0.96870  0.37160  0.11410  1.0000
  H   H108      1.0  0.53130  0.62840  0.61410  1.0000
  H   H109      1.0  0.96870  0.12840  0.61410  1.0000
  H   H110      1.0  0.53130  0.87160  0.11410  1.0000
  H   H111      1.0  0.03130  0.62840  0.88590  1.0000
  H   H112      1.0  0.46870  0.37160  0.38590  1.0000
  C   C145      1.0  0.98700  0.99509  0.28656  1.0000
  C   C146      1.0  0.51300  0.00491  0.78656  1.0000
  C   C147      1.0  0.01300  0.49509  0.21344  1.0000
  C   C148      1.0  0.48700  0.50491  0.71344  1.0000
  C   C149      1.0  0.01300  0.00491  0.71344  1.0000
  C   C150      1.0  0.48700  0.99509  0.21344  1.0000
  C   C151      1.0  0.98700  0.50491  0.78656  1.0000
  C   C152      1.0  0.51300  0.49509  0.28656  1.0000
  H   H113      1.0  0.97770  0.02590  0.26130  1.0000
  H   H114      1.0  0.52230  0.97410  0.76130  1.0000
  H   H115      1.0  0.02230  0.52590  0.23870  1.0000
  H   H116      1.0  0.47770  0.47410  0.73870  1.0000
  H   H117      1.0  0.02230  0.97410  0.73870  1.0000
  H   H118      1.0  0.47770  0.02590  0.23870  1.0000
  H   H119      1.0  0.97770  0.47410  0.76130  1.0000
  H   H120      1.0  0.52230  0.52590  0.26130  1.0000
  C   C153      1.0  0.00740  0.87759  0.31541  1.0000
  C   C154      1.0  0.49260  0.12241  0.81541  1.0000
  C   C155      1.0  0.99260  0.37759  0.18459  1.0000
  C   C156      1.0  0.50740  0.62241  0.68459  1.0000
  C   C157      1.0  0.99260  0.12241  0.68459  1.0000
  C   C158      1.0  0.50740  0.87759  0.18459  1.0000
  C   C159      1.0  0.00740  0.62241  0.81541  1.0000
  C   C160      1.0  0.49260  0.37759  0.31541  1.0000
  H   H121      1.0  0.01160  0.82990  0.30950  1.0000
  H   H122      1.0  0.48840  0.17010  0.80950  1.0000
  H   H123      1.0  0.98840  0.32990  0.19050  1.0000
  H   H124      1.0  0.51160  0.67010  0.69050  1.0000
  H   H125      1.0  0.98840  0.17010  0.69050  1.0000
  H   H126      1.0  0.51160  0.82990  0.19050  1.0000
  H   H127      1.0  0.01160  0.67010  0.80950  1.0000
  H   H128      1.0  0.48840  0.32990  0.30950  1.0000
  C   C161      1.0  0.98950  0.92422  0.27867  1.0000
  C   C162      1.0  0.51050  0.07578  0.77867  1.0000
  C   C163      1.0  0.01050  0.42422  0.22133  1.0000
  C   C164      1.0  0.48950  0.57578  0.72133  1.0000
  C   C165      1.0  0.01050  0.07578  0.72133  1.0000
  C   C166      1.0  0.48950  0.92422  0.22133  1.0000
  C   C167      1.0  0.98950  0.57578  0.77867  1.0000
  C   C168      1.0  0.51050  0.42422  0.27867  1.0000
  C   C169      1.0  0.99650  0.93291  0.19451  1.0000
  C   C170      1.0  0.50350  0.06709  0.69451  1.0000
  C   C171      1.0  0.00350  0.43291  0.30549  1.0000
  C   C172      1.0  0.49650  0.56709  0.80549  1.0000
  C   C173      1.0  0.00350  0.06709  0.80549  1.0000
  C   C174      1.0  0.49650  0.93291  0.30549  1.0000
  C   C175      1.0  0.99650  0.56709  0.69451  1.0000
  C   C176      1.0  0.50350  0.43291  0.19451  1.0000
  C   C177      1.0  0.12390  0.95630  0.18684  1.0000
  C   C178      1.0  0.37610  0.04370  0.68684  1.0000
  C   C179      1.0  0.87610  0.45630  0.31316  1.0000
  C   C180      1.0  0.62390  0.54370  0.81316  1.0000
  C   C181      1.0  0.87610  0.04370  0.81316  1.0000
  C   C182      1.0  0.62390  0.95630  0.31316  1.0000
  C   C183      1.0  0.12390  0.54370  0.68684  1.0000
  C   C184      1.0  0.37610  0.45630  0.18684  1.0000
  H   H129      1.0  0.19070  0.94860  0.20920  1.0000
  H   H130      1.0  0.30930  0.05140  0.70920  1.0000
  H   H131      1.0  0.80930  0.44860  0.29080  1.0000
  H   H132      1.0  0.69070  0.55140  0.79080  1.0000
  H   H133      1.0  0.80930  0.05140  0.79080  1.0000
  H   H134      1.0  0.69070  0.94860  0.29080  1.0000
  H   H135      1.0  0.19070  0.55140  0.70920  1.0000
  H   H136      1.0  0.30930  0.44860  0.20920  1.0000
  C   C185      1.0  0.89540  0.94312  0.16230  1.0000
  C   C186      1.0  0.60460  0.05688  0.66230  1.0000
  C   C187      1.0  0.10460  0.44312  0.33770  1.0000
  C   C188      1.0  0.39540  0.55688  0.83770  1.0000
  C   C189      1.0  0.10460  0.05688  0.83770  1.0000
  C   C190      1.0  0.39540  0.94312  0.33770  1.0000
  C   C191      1.0  0.89540  0.55688  0.66230  1.0000
  C   C192      1.0  0.60460  0.44312  0.16230  1.0000
  H   H137      1.0  0.80940  0.92660  0.16820  1.0000
  H   H138      1.0  0.69060  0.07340  0.66820  1.0000
  H   H139      1.0  0.19060  0.42660  0.33180  1.0000
  H   H140      1.0  0.30940  0.57340  0.83180  1.0000
  H   H141      1.0  0.19060  0.07340  0.83180  1.0000
  H   H142      1.0  0.30940  0.92660  0.33180  1.0000
  H   H143      1.0  0.80940  0.57340  0.66820  1.0000
  H   H144      1.0  0.69060  0.42660  0.16820  1.0000
  C   C193      1.0  0.15230  0.99150  0.14525  1.0000
  C   C194      1.0  0.34770  0.00850  0.64525  1.0000
  C   C195      1.0  0.84770  0.49150  0.35475  1.0000
  C   C196      1.0  0.65230  0.50850  0.85475  1.0000
  C   C197      1.0  0.84770  0.00850  0.85475  1.0000
  C   C198      1.0  0.65230  0.99150  0.35475  1.0000
  C   C199      1.0  0.15230  0.50850  0.64525  1.0000
  C   C200      1.0  0.34770  0.49150  0.14525  1.0000
  H   H145      1.0  0.23890  0.00740  0.13960  1.0000
  H   H146      1.0  0.26110  0.99260  0.63960  1.0000
  H   H147      1.0  0.76110  0.50740  0.36040  1.0000
  H   H148      1.0  0.73890  0.49260  0.86040  1.0000
  H   H149      1.0  0.76110  0.99260  0.86040  1.0000
  H   H150      1.0  0.73890  0.00740  0.36040  1.0000
  H   H151      1.0  0.23890  0.49260  0.63960  1.0000
  H   H152      1.0  0.26110  0.50740  0.13960  1.0000
  C   C201      1.0  0.92440  0.97850  0.12078  1.0000
  C   C202      1.0  0.57560  0.02150  0.62078  1.0000
  C   C203      1.0  0.07560  0.47850  0.37922  1.0000
  C   C204      1.0  0.42440  0.52150  0.87922  1.0000
  C   C205      1.0  0.07560  0.02150  0.87922  1.0000
  C   C206      1.0  0.42440  0.97850  0.37922  1.0000
  C   C207      1.0  0.92440  0.52150  0.62078  1.0000
  C   C208      1.0  0.57560  0.47850  0.12078  1.0000
  H   H153      1.0  0.85710  0.98560  0.09850  1.0000
  H   H154      1.0  0.64290  0.01440  0.59850  1.0000
  H   H155      1.0  0.14290  0.48560  0.40150  1.0000
  H   H156      1.0  0.35710  0.51440  0.90150  1.0000
  H   H157      1.0  0.14290  0.01440  0.90150  1.0000
  H   H158      1.0  0.35710  0.98560  0.40150  1.0000
  H   H159      1.0  0.85710  0.51440  0.59850  1.0000
  H   H160      1.0  0.64290  0.48560  0.09850  1.0000
  C   C209      1.0  0.05250  0.00340  0.11201  1.0000
  C   C210      1.0  0.44750  0.99660  0.61201  1.0000
  C   C211      1.0  0.94750  0.50340  0.38799  1.0000
  C   C212      1.0  0.55250  0.49660  0.88799  1.0000
  C   C213      1.0  0.94750  0.99660  0.88799  1.0000
  C   C214      1.0  0.55250  0.00340  0.38799  1.0000
  C   C215      1.0  0.05250  0.49660  0.61201  1.0000
  C   C216      1.0  0.44750  0.50340  0.11201  1.0000
  C   C217      1.0  0.08410  0.04550  0.06881  1.0000
  C   C218      1.0  0.41590  0.95450  0.56881  1.0000
  C   C219      1.0  0.91590  0.54550  0.43119  1.0000
  C   C220      1.0  0.58410  0.45450  0.93119  1.0000
  C   C221      1.0  0.91590  0.95450  0.93119  1.0000
  C   C222      1.0  0.58410  0.04550  0.43119  1.0000
  C   C223      1.0  0.08410  0.45450  0.56881  1.0000
  C   C224      1.0  0.41590  0.54550  0.06881  1.0000
