data_image0
_chemical_formula_structural       Cd4O32N8H8C24H8C8H8C8H8C8H8C16H16C8
_chemical_formula_sum              "Cd4 O32 N8 H56 C72"
_cell_length_a       20.641
_cell_length_b       9.1379
_cell_length_c       13.4597
_cell_angle_alpha    90
_cell_angle_beta     100.9
_cell_angle_gamma    90

_space_group_name_H-M_alt    "P 1"
_space_group_IT_number       1

loop_
  _space_group_symop_operation_xyz
  'x, y, z'

loop_
  _atom_site_type_symbol
  _atom_site_label
  _atom_site_symmetry_multiplicity
  _atom_site_fract_x
  _atom_site_fract_y
  _atom_site_fract_z
  _atom_site_occupancy
  Cd  Cd1       1.0  0.50000  0.45064  0.25000  1.0000
  Cd  Cd2       1.0  0.00000  0.95064  0.25000  1.0000
  Cd  Cd3       1.0  0.50000  0.54936  0.75000  1.0000
  Cd  Cd4       1.0  0.00000  0.04936  0.75000  1.0000
  O   O1        1.0  0.40940  0.26710  0.19330  1.0000
  O   O2        1.0  0.90940  0.76710  0.19330  1.0000
  O   O3        1.0  0.59060  0.26710  0.30670  1.0000
  O   O4        1.0  0.09060  0.76710  0.30670  1.0000
  O   O5        1.0  0.59060  0.73290  0.80670  1.0000
  O   O6        1.0  0.09060  0.23290  0.80670  1.0000
  O   O7        1.0  0.40940  0.73290  0.69330  1.0000
  O   O8        1.0  0.90940  0.23290  0.69330  1.0000
  O   O9        1.0  0.43820  0.33780  0.35040  1.0000
  O   O10       1.0  0.93820  0.83780  0.35040  1.0000
  O   O11       1.0  0.56180  0.33780  0.14960  1.0000
  O   O12       1.0  0.06180  0.83780  0.14960  1.0000
  O   O13       1.0  0.56180  0.66220  0.64960  1.0000
  O   O14       1.0  0.06180  0.16220  0.64960  1.0000
  O   O15       1.0  0.43820  0.66220  0.85040  1.0000
  O   O16       1.0  0.93820  0.16220  0.85040  1.0000
  O   O17       1.0  0.45010  0.42010  0.60250  1.0000
  O   O18       1.0  0.95010  0.92010  0.60250  1.0000
  O   O19       1.0  0.54990  0.42010  0.89750  1.0000
  O   O20       1.0  0.04990  0.92010  0.89750  1.0000
  O   O21       1.0  0.54990  0.57990  0.39750  1.0000
  O   O22       1.0  0.04990  0.07990  0.39750  1.0000
  O   O23       1.0  0.45010  0.57990  0.10250  1.0000
  O   O24       1.0  0.95010  0.07990  0.10250  1.0000
  O   O25       1.0  0.41850  0.34630  0.74210  1.0000
  O   O26       1.0  0.91850  0.84630  0.74210  1.0000
  O   O27       1.0  0.58150  0.34630  0.75790  1.0000
  O   O28       1.0  0.08150  0.84630  0.75790  1.0000
  O   O29       1.0  0.58150  0.65370  0.25790  1.0000
  O   O30       1.0  0.08150  0.15370  0.25790  1.0000
  O   O31       1.0  0.41850  0.65370  0.24210  1.0000
  O   O32       1.0  0.91850  0.15370  0.24210  1.0000
  N   N1        1.0  0.37050  0.24310  0.48440  1.0000
  N   N2        1.0  0.87050  0.74310  0.48440  1.0000
  N   N3        1.0  0.62950  0.24310  0.01560  1.0000
  N   N4        1.0  0.12950  0.74310  0.01560  1.0000
  N   N5        1.0  0.62950  0.75690  0.51560  1.0000
  N   N6        1.0  0.12950  0.25690  0.51560  1.0000
  N   N7        1.0  0.37050  0.75690  0.98440  1.0000
  N   N8        1.0  0.87050  0.25690  0.98440  1.0000
  H   H1        1.0  0.39490  0.31060  0.46630  1.0000
  H   H2        1.0  0.89490  0.81060  0.46630  1.0000
  H   H3        1.0  0.60510  0.31060  0.03370  1.0000
  H   H4        1.0  0.10510  0.81060  0.03370  1.0000
  H   H5        1.0  0.60510  0.68940  0.53370  1.0000
  H   H6        1.0  0.10510  0.18940  0.53370  1.0000
  H   H7        1.0  0.39490  0.68940  0.96630  1.0000
  H   H8        1.0  0.89490  0.18940  0.96630  1.0000
  C   C1        1.0  0.40150  0.26160  0.28330  1.0000
  C   C2        1.0  0.90150  0.76160  0.28330  1.0000
  C   C3        1.0  0.59850  0.26160  0.21670  1.0000
  C   C4        1.0  0.09850  0.76160  0.21670  1.0000
  C   C5        1.0  0.59850  0.73840  0.71670  1.0000
  C   C6        1.0  0.09850  0.23840  0.71670  1.0000
  C   C7        1.0  0.40150  0.73840  0.78330  1.0000
  C   C8        1.0  0.90150  0.23840  0.78330  1.0000
  C   C9        1.0  0.34980  0.16540  0.30900  1.0000
  C   C10       1.0  0.84980  0.66540  0.30900  1.0000
  C   C11       1.0  0.65020  0.16540  0.19100  1.0000
  C   C12       1.0  0.15020  0.66540  0.19100  1.0000
  C   C13       1.0  0.65020  0.83460  0.69100  1.0000
  C   C14       1.0  0.15020  0.33460  0.69100  1.0000
  C   C15       1.0  0.34980  0.83460  0.80900  1.0000
  C   C16       1.0  0.84980  0.33460  0.80900  1.0000
  C   C17       1.0  0.31320  0.07900  0.23540  1.0000
  C   C18       1.0  0.81320  0.57900  0.23540  1.0000
  C   C19       1.0  0.68680  0.07900  0.26460  1.0000
  C   C20       1.0  0.18680  0.57900  0.26460  1.0000
  C   C21       1.0  0.68680  0.92100  0.76460  1.0000
  C   C22       1.0  0.18680  0.42100  0.76460  1.0000
  C   C23       1.0  0.31320  0.92100  0.73540  1.0000
  C   C24       1.0  0.81320  0.42100  0.73540  1.0000
  H   H9        1.0  0.32120  0.08550  0.16980  1.0000
  H   H10       1.0  0.82120  0.58550  0.16980  1.0000
  H   H11       1.0  0.67880  0.08550  0.33020  1.0000
  H   H12       1.0  0.17880  0.58550  0.33020  1.0000
  H   H13       1.0  0.67880  0.91450  0.83020  1.0000
  H   H14       1.0  0.17880  0.41450  0.83020  1.0000
  H   H15       1.0  0.32120  0.91450  0.66980  1.0000
  H   H16       1.0  0.82120  0.41450  0.66980  1.0000
  C   C25       1.0  0.26570  0.98410  0.25400  1.0000
  C   C26       1.0  0.76570  0.48410  0.25400  1.0000
  C   C27       1.0  0.73430  0.98410  0.24600  1.0000
  C   C28       1.0  0.23430  0.48410  0.24600  1.0000
  C   C29       1.0  0.73430  0.01590  0.74600  1.0000
  C   C30       1.0  0.23430  0.51590  0.74600  1.0000
  C   C31       1.0  0.26570  0.01590  0.75400  1.0000
  C   C32       1.0  0.76570  0.51590  0.75400  1.0000
  H   H17       1.0  0.24250  0.92540  0.20290  1.0000
  H   H18       1.0  0.74250  0.42540  0.20290  1.0000
  H   H19       1.0  0.75750  0.92540  0.29710  1.0000
  H   H20       1.0  0.25750  0.42540  0.29710  1.0000
  H   H21       1.0  0.75750  0.07460  0.79710  1.0000
  H   H22       1.0  0.25750  0.57460  0.79710  1.0000
  H   H23       1.0  0.24250  0.07460  0.70290  1.0000
  H   H24       1.0  0.74250  0.57460  0.70290  1.0000
  C   C33       1.0  0.25300  0.97810  0.35200  1.0000
  C   C34       1.0  0.75300  0.47810  0.35200  1.0000
  C   C35       1.0  0.74700  0.97810  0.14800  1.0000
  C   C36       1.0  0.24700  0.47810  0.14800  1.0000
  C   C37       1.0  0.74700  0.02190  0.64800  1.0000
  C   C38       1.0  0.24700  0.52190  0.64800  1.0000
  C   C39       1.0  0.25300  0.02190  0.85200  1.0000
  C   C40       1.0  0.75300  0.52190  0.85200  1.0000
  H   H25       1.0  0.22010  0.91590  0.36570  1.0000
  H   H26       1.0  0.72010  0.41590  0.36570  1.0000
  H   H27       1.0  0.77990  0.91590  0.13430  1.0000
  H   H28       1.0  0.27990  0.41590  0.13430  1.0000
  H   H29       1.0  0.77990  0.08410  0.63430  1.0000
  H   H30       1.0  0.27990  0.58410  0.63430  1.0000
  H   H31       1.0  0.22010  0.08410  0.86570  1.0000
  H   H32       1.0  0.72010  0.58410  0.86570  1.0000
  C   C41       1.0  0.28690  0.05950  0.42700  1.0000
  C   C42       1.0  0.78690  0.55950  0.42700  1.0000
  C   C43       1.0  0.71310  0.05950  0.07300  1.0000
  C   C44       1.0  0.21310  0.55950  0.07300  1.0000
  C   C45       1.0  0.71310  0.94050  0.57300  1.0000
  C   C46       1.0  0.21310  0.44050  0.57300  1.0000
  C   C47       1.0  0.28690  0.94050  0.92700  1.0000
  C   C48       1.0  0.78690  0.44050  0.92700  1.0000
  H   H33       1.0  0.27760  0.05090  0.49170  1.0000
  H   H34       1.0  0.77760  0.55090  0.49170  1.0000
  H   H35       1.0  0.72240  0.05090  0.00830  1.0000
  H   H36       1.0  0.22240  0.55090  0.00830  1.0000
  H   H37       1.0  0.72240  0.94910  0.50830  1.0000
  H   H38       1.0  0.22240  0.44910  0.50830  1.0000
  H   H39       1.0  0.27760  0.94910  0.99170  1.0000
  H   H40       1.0  0.77760  0.44910  0.99170  1.0000
  C   C49       1.0  0.33630  0.15750  0.41040  1.0000
  C   C50       1.0  0.83630  0.65750  0.41040  1.0000
  C   C51       1.0  0.66370  0.15750  0.08960  1.0000
  C   C52       1.0  0.16370  0.65750  0.08960  1.0000
  C   C53       1.0  0.66370  0.84250  0.58960  1.0000
  C   C54       1.0  0.16370  0.34250  0.58960  1.0000
  C   C55       1.0  0.33630  0.84250  0.91040  1.0000
  C   C56       1.0  0.83630  0.34250  0.91040  1.0000
  C   C57       1.0  0.36960  0.23070  0.59090  1.0000
  C   C58       1.0  0.86960  0.73070  0.59090  1.0000
  C   C59       1.0  0.63040  0.23070  0.90910  1.0000
  C   C60       1.0  0.13040  0.73070  0.90910  1.0000
  C   C61       1.0  0.63040  0.76930  0.40910  1.0000
  C   C62       1.0  0.13040  0.26930  0.40910  1.0000
  C   C63       1.0  0.36960  0.76930  0.09090  1.0000
  C   C64       1.0  0.86960  0.26930  0.09090  1.0000
  H   H41       1.0  0.38340  0.13310  0.61430  1.0000
  H   H42       1.0  0.88340  0.63310  0.61430  1.0000
  H   H43       1.0  0.61660  0.13310  0.88570  1.0000
  H   H44       1.0  0.11660  0.63310  0.88570  1.0000
  H   H45       1.0  0.61660  0.86690  0.38570  1.0000
  H   H46       1.0  0.11660  0.36690  0.38570  1.0000
  H   H47       1.0  0.38340  0.86690  0.11430  1.0000
  H   H48       1.0  0.88340  0.36690  0.11430  1.0000
  H   H49       1.0  0.32510  0.24620  0.60230  1.0000
  H   H50       1.0  0.82510  0.74620  0.60230  1.0000
  H   H51       1.0  0.67490  0.24620  0.89770  1.0000
  H   H52       1.0  0.17490  0.74620  0.89770  1.0000
  H   H53       1.0  0.67490  0.75380  0.39770  1.0000
  H   H54       1.0  0.17490  0.25380  0.39770  1.0000
  H   H55       1.0  0.32510  0.75380  0.10230  1.0000
  H   H56       1.0  0.82510  0.25380  0.10230  1.0000
  C   C65       1.0  0.41540  0.34260  0.64940  1.0000
  C   C66       1.0  0.91540  0.84260  0.64940  1.0000
  C   C67       1.0  0.58460  0.34260  0.85060  1.0000
  C   C68       1.0  0.08460  0.84260  0.85060  1.0000
  C   C69       1.0  0.58460  0.65740  0.35060  1.0000
  C   C70       1.0  0.08460  0.15740  0.35060  1.0000
  C   C71       1.0  0.41540  0.65740  0.14940  1.0000
  C   C72       1.0  0.91540  0.15740  0.14940  1.0000
