data_image0
_chemical_formula_structural       Fe4Mn4O48C24
_chemical_formula_sum              "Fe4 Mn4 O48 C24"
_cell_length_a       9.707
_cell_length_b       16.14
_cell_length_c       19.883
_cell_angle_alpha    90
_cell_angle_beta     90
_cell_angle_gamma    90

_space_group_name_H-M_alt    "P 1"
_space_group_IT_number       1

loop_
  _space_group_symop_operation_xyz
  'x, y, z'

loop_
  _atom_site_type_symbol
  _atom_site_label
  _atom_site_symmetry_multiplicity
  _atom_site_fract_x
  _atom_site_fract_y
  _atom_site_fract_z
  _atom_site_occupancy
  Fe  Fe1       1.0  0.00000  0.17060  0.25000  1.0000
  Fe  Fe2       1.0  0.00000  0.82940  0.75000  1.0000
  Fe  Fe3       1.0  0.50000  0.67060  0.25000  1.0000
  Fe  Fe4       1.0  0.50000  0.32940  0.75000  1.0000
  Mn  Mn1       1.0  0.00000  0.82920  0.25000  1.0000
  Mn  Mn2       1.0  0.00000  0.17080  0.75000  1.0000
  Mn  Mn3       1.0  0.50000  0.32920  0.25000  1.0000
  Mn  Mn4       1.0  0.50000  0.67080  0.75000  1.0000
  O   O1        1.0  0.93900  0.06720  0.30940  1.0000
  O   O2        1.0  0.06100  0.93280  0.80940  1.0000
  O   O3        1.0  0.93900  0.93280  0.69060  1.0000
  O   O4        1.0  0.06100  0.06720  0.19060  1.0000
  O   O5        1.0  0.43900  0.56720  0.30940  1.0000
  O   O6        1.0  0.56100  0.43280  0.80940  1.0000
  O   O7        1.0  0.43900  0.43280  0.69060  1.0000
  O   O8        1.0  0.56100  0.56720  0.19060  1.0000
  O   O9        1.0  0.93400  0.92840  0.30920  1.0000
  O   O10       1.0  0.06600  0.07160  0.80920  1.0000
  O   O11       1.0  0.93400  0.07160  0.69080  1.0000
  O   O12       1.0  0.06600  0.92840  0.19080  1.0000
  O   O13       1.0  0.43400  0.42840  0.30920  1.0000
  O   O14       1.0  0.56600  0.57160  0.80920  1.0000
  O   O15       1.0  0.43400  0.57160  0.69080  1.0000
  O   O16       1.0  0.56600  0.42840  0.19080  1.0000
  O   O17       1.0  0.88450  0.25350  0.30900  1.0000
  O   O18       1.0  0.11550  0.74650  0.80900  1.0000
  O   O19       1.0  0.88450  0.74650  0.69100  1.0000
  O   O20       1.0  0.11550  0.25350  0.19100  1.0000
  O   O21       1.0  0.38450  0.75350  0.30900  1.0000
  O   O22       1.0  0.61550  0.24650  0.80900  1.0000
  O   O23       1.0  0.38450  0.24650  0.69100  1.0000
  O   O24       1.0  0.61550  0.75350  0.19100  1.0000
  O   O25       1.0  0.82040  0.18290  0.19180  1.0000
  O   O26       1.0  0.17960  0.81710  0.69180  1.0000
  O   O27       1.0  0.82040  0.81710  0.80820  1.0000
  O   O28       1.0  0.17960  0.18290  0.30820  1.0000
  O   O29       1.0  0.32040  0.68290  0.19180  1.0000
  O   O30       1.0  0.67960  0.31710  0.69180  1.0000
  O   O31       1.0  0.32040  0.31710  0.80820  1.0000
  O   O32       1.0  0.67960  0.68290  0.30820  1.0000
  O   O33       1.0  0.67880  0.31790  0.30950  1.0000
  O   O34       1.0  0.32120  0.68210  0.80950  1.0000
  O   O35       1.0  0.67880  0.68210  0.69050  1.0000
  O   O36       1.0  0.32120  0.31790  0.19050  1.0000
  O   O37       1.0  0.17880  0.81790  0.30950  1.0000
  O   O38       1.0  0.82120  0.18210  0.80950  1.0000
  O   O39       1.0  0.17880  0.18210  0.69050  1.0000
  O   O40       1.0  0.82120  0.81790  0.19050  1.0000
  O   O41       1.0  0.61680  0.24700  0.19280  1.0000
  O   O42       1.0  0.38320  0.75300  0.69280  1.0000
  O   O43       1.0  0.61680  0.75300  0.80720  1.0000
  O   O44       1.0  0.38320  0.24700  0.30720  1.0000
  O   O45       1.0  0.11680  0.74700  0.19280  1.0000
  O   O46       1.0  0.88320  0.25300  0.69280  1.0000
  O   O47       1.0  0.11680  0.25300  0.80720  1.0000
  O   O48       1.0  0.88320  0.74700  0.30720  1.0000
  C   C1        1.0  0.96410  0.99770  0.28440  1.0000
  C   C2        1.0  0.03590  0.00230  0.78440  1.0000
  C   C3        1.0  0.96410  0.00230  0.71560  1.0000
  C   C4        1.0  0.03590  0.99770  0.21560  1.0000
  C   C5        1.0  0.46410  0.49770  0.28440  1.0000
  C   C6        1.0  0.53590  0.50230  0.78440  1.0000
  C   C7        1.0  0.46410  0.50230  0.71560  1.0000
  C   C8        1.0  0.53590  0.49770  0.21560  1.0000
  C   C9        1.0  0.76830  0.27140  0.28480  1.0000
  C   C10       1.0  0.23170  0.72860  0.78480  1.0000
  C   C11       1.0  0.76830  0.72860  0.71520  1.0000
  C   C12       1.0  0.23170  0.27140  0.21520  1.0000
  C   C13       1.0  0.26830  0.77140  0.28480  1.0000
  C   C14       1.0  0.73170  0.22860  0.78480  1.0000
  C   C15       1.0  0.26830  0.22860  0.71520  1.0000
  C   C16       1.0  0.73170  0.77140  0.21520  1.0000
  C   C17       1.0  0.73180  0.23100  0.21700  1.0000
  C   C18       1.0  0.26820  0.76900  0.71700  1.0000
  C   C19       1.0  0.73180  0.76900  0.78300  1.0000
  C   C20       1.0  0.26820  0.23100  0.28300  1.0000
  C   C21       1.0  0.23180  0.73100  0.21700  1.0000
  C   C22       1.0  0.76820  0.26900  0.71700  1.0000
  C   C23       1.0  0.23180  0.26900  0.78300  1.0000
  C   C24       1.0  0.76820  0.73100  0.28300  1.0000
