data_image0
_chemical_formula_structural       Ti8C16O8C8O8C8H8C8H8C8H8C8H16C16O8C8O8C8H8C8H8C8H8C8H16C16O8C8O8C8H8C8H8C8H8C8H16Li4O8H16Li8O8C8H8N8C8H24C8H24
_chemical_formula_sum              "Ti8 C192 O64 H192 Li12 N8"
_cell_length_a       12.087
_cell_length_b       22.8
_cell_length_c       23.372
_cell_angle_alpha    90
_cell_angle_beta     100.26
_cell_angle_gamma    90

_space_group_name_H-M_alt    "P 1"
_space_group_IT_number       1

loop_
  _space_group_symop_operation_xyz
  'x, y, z'

loop_
  _atom_site_type_symbol
  _atom_site_label
  _atom_site_symmetry_multiplicity
  _atom_site_fract_x
  _atom_site_fract_y
  _atom_site_fract_z
  _atom_site_occupancy
  Ti  Ti1       1.0  0.01045  0.03770  0.11358  1.0000
  Ti  Ti2       1.0  0.98955  0.03770  0.38642  1.0000
  Ti  Ti3       1.0  0.51045  0.53770  0.11358  1.0000
  Ti  Ti4       1.0  0.48955  0.53770  0.38642  1.0000
  Ti  Ti5       1.0  0.98955  0.96230  0.88642  1.0000
  Ti  Ti6       1.0  0.01045  0.96230  0.61358  1.0000
  Ti  Ti7       1.0  0.48955  0.46230  0.88642  1.0000
  Ti  Ti8       1.0  0.51045  0.46230  0.61358  1.0000
  C   C1        1.0  0.05500  0.86540  0.17635  1.0000
  C   C2        1.0  0.94500  0.86540  0.32365  1.0000
  C   C3        1.0  0.55500  0.36540  0.17635  1.0000
  C   C4        1.0  0.44500  0.36540  0.32365  1.0000
  C   C5        1.0  0.94500  0.13460  0.82365  1.0000
  C   C6        1.0  0.05500  0.13460  0.67635  1.0000
  C   C7        1.0  0.44500  0.63460  0.82365  1.0000
  C   C8        1.0  0.55500  0.63460  0.67635  1.0000
  C   C9        1.0  0.03710  0.91720  0.14410  1.0000
  C   C10       1.0  0.96290  0.91720  0.35590  1.0000
  C   C11       1.0  0.53710  0.41720  0.14410  1.0000
  C   C12       1.0  0.46290  0.41720  0.35590  1.0000
  C   C13       1.0  0.96290  0.08280  0.85590  1.0000
  C   C14       1.0  0.03710  0.08280  0.64410  1.0000
  C   C15       1.0  0.46290  0.58280  0.85590  1.0000
  C   C16       1.0  0.53710  0.58280  0.64410  1.0000
  O   O1        1.0  0.01250  0.96990  0.16552  1.0000
  O   O2        1.0  0.98750  0.96990  0.33448  1.0000
  O   O3        1.0  0.51250  0.46990  0.16552  1.0000
  O   O4        1.0  0.48750  0.46990  0.33448  1.0000
  O   O5        1.0  0.98750  0.03010  0.83448  1.0000
  O   O6        1.0  0.01250  0.03010  0.66552  1.0000
  O   O7        1.0  0.48750  0.53010  0.83448  1.0000
  O   O8        1.0  0.51250  0.53010  0.66552  1.0000
  C   C17       1.0  0.04290  0.91750  0.08445  1.0000
  C   C18       1.0  0.95710  0.91750  0.41555  1.0000
  C   C19       1.0  0.54290  0.41750  0.08445  1.0000
  C   C20       1.0  0.45710  0.41750  0.41555  1.0000
  C   C21       1.0  0.95710  0.08250  0.91555  1.0000
  C   C22       1.0  0.04290  0.08250  0.58445  1.0000
  C   C23       1.0  0.45710  0.58250  0.91555  1.0000
  C   C24       1.0  0.54290  0.58250  0.58445  1.0000
  O   O9        1.0  0.03060  0.97186  0.05983  1.0000
  O   O10       1.0  0.96940  0.97186  0.44017  1.0000
  O   O11       1.0  0.53060  0.47186  0.05983  1.0000
  O   O12       1.0  0.46940  0.47186  0.44017  1.0000
  O   O13       1.0  0.96940  0.02814  0.94017  1.0000
  O   O14       1.0  0.03060  0.02814  0.55983  1.0000
  O   O15       1.0  0.46940  0.52814  0.94017  1.0000
  O   O16       1.0  0.53060  0.52814  0.55983  1.0000
  C   C25       1.0  0.05830  0.86650  0.05563  1.0000
  C   C26       1.0  0.94170  0.86650  0.44437  1.0000
  C   C27       1.0  0.55830  0.36650  0.05563  1.0000
  C   C28       1.0  0.44170  0.36650  0.44437  1.0000
  C   C29       1.0  0.94170  0.13350  0.94437  1.0000
  C   C30       1.0  0.05830  0.13350  0.55563  1.0000
  C   C31       1.0  0.44170  0.63350  0.94437  1.0000
  C   C32       1.0  0.55830  0.63350  0.55563  1.0000
  H   H1        1.0  0.06050  0.86680  0.01520  1.0000
  H   H2        1.0  0.93950  0.86680  0.48480  1.0000
  H   H3        1.0  0.56050  0.36680  0.01520  1.0000
  H   H4        1.0  0.43950  0.36680  0.48480  1.0000
  H   H5        1.0  0.93950  0.13320  0.98480  1.0000
  H   H6        1.0  0.06050  0.13320  0.51520  1.0000
  H   H7        1.0  0.43950  0.63320  0.98480  1.0000
  H   H8        1.0  0.56050  0.63320  0.51520  1.0000
  C   C33       1.0  0.07070  0.81430  0.08700  1.0000
  C   C34       1.0  0.92930  0.81430  0.41300  1.0000
  C   C35       1.0  0.57070  0.31430  0.08700  1.0000
  C   C36       1.0  0.42930  0.31430  0.41300  1.0000
  C   C37       1.0  0.92930  0.18570  0.91300  1.0000
  C   C38       1.0  0.07070  0.18570  0.58700  1.0000
  C   C39       1.0  0.42930  0.68570  0.91300  1.0000
  C   C40       1.0  0.57070  0.68570  0.58700  1.0000
  H   H9        1.0  0.08010  0.77850  0.06760  1.0000
  H   H10       1.0  0.91990  0.77850  0.43240  1.0000
  H   H11       1.0  0.58010  0.27850  0.06760  1.0000
  H   H12       1.0  0.41990  0.27850  0.43240  1.0000
  H   H13       1.0  0.91990  0.22150  0.93240  1.0000
  H   H14       1.0  0.08010  0.22150  0.56760  1.0000
  H   H15       1.0  0.41990  0.72150  0.93240  1.0000
  H   H16       1.0  0.58010  0.72150  0.56760  1.0000
  C   C41       1.0  0.06940  0.81410  0.14660  1.0000
  C   C42       1.0  0.93060  0.81410  0.35340  1.0000
  C   C43       1.0  0.56940  0.31410  0.14660  1.0000
  C   C44       1.0  0.43060  0.31410  0.35340  1.0000
  C   C45       1.0  0.93060  0.18590  0.85340  1.0000
  C   C46       1.0  0.06940  0.18590  0.64660  1.0000
  C   C47       1.0  0.43060  0.68590  0.85340  1.0000
  C   C48       1.0  0.56940  0.68590  0.64660  1.0000
  H   H17       1.0  0.07860  0.77800  0.16720  1.0000
  H   H18       1.0  0.92140  0.77800  0.33280  1.0000
  H   H19       1.0  0.57860  0.27800  0.16720  1.0000
  H   H20       1.0  0.42140  0.27800  0.33280  1.0000
  H   H21       1.0  0.92140  0.22200  0.83280  1.0000
  H   H22       1.0  0.07860  0.22200  0.66720  1.0000
  H   H23       1.0  0.42140  0.72200  0.83280  1.0000
  H   H24       1.0  0.57860  0.72200  0.66720  1.0000
  C   C49       1.0  0.05810  0.86480  0.24150  1.0000
  C   C50       1.0  0.94190  0.86480  0.25850  1.0000
  C   C51       1.0  0.55810  0.36480  0.24150  1.0000
  C   C52       1.0  0.44190  0.36480  0.25850  1.0000
  C   C53       1.0  0.94190  0.13520  0.75850  1.0000
  C   C54       1.0  0.05810  0.13520  0.74150  1.0000
  C   C55       1.0  0.44190  0.63520  0.75850  1.0000
  C   C56       1.0  0.55810  0.63520  0.74150  1.0000
  H   H25       1.0  0.10020  0.89960  0.25880  1.0000
  H   H26       1.0  0.89980  0.89960  0.24120  1.0000
  H   H27       1.0  0.60020  0.39960  0.25880  1.0000
  H   H28       1.0  0.39980  0.39960  0.24120  1.0000
  H   H29       1.0  0.89980  0.10040  0.74120  1.0000
  H   H30       1.0  0.10020  0.10040  0.75880  1.0000
  H   H31       1.0  0.39980  0.60040  0.74120  1.0000
  H   H32       1.0  0.60020  0.60040  0.75880  1.0000
  H   H33       1.0  0.09950  0.82950  0.25810  1.0000
  H   H34       1.0  0.90050  0.82950  0.24190  1.0000
  H   H35       1.0  0.59950  0.32950  0.25810  1.0000
  H   H36       1.0  0.40050  0.32950  0.24190  1.0000
  H   H37       1.0  0.90050  0.17050  0.74190  1.0000
  H   H38       1.0  0.09950  0.17050  0.75810  1.0000
  H   H39       1.0  0.40050  0.67050  0.74190  1.0000
  H   H40       1.0  0.59950  0.67050  0.75810  1.0000
  C   C57       1.0  0.74890  0.14040  0.15359  1.0000
  C   C58       1.0  0.25110  0.14040  0.34641  1.0000
  C   C59       1.0  0.24890  0.64040  0.15359  1.0000
  C   C60       1.0  0.75110  0.64040  0.34641  1.0000
  C   C61       1.0  0.25110  0.85960  0.84641  1.0000
  C   C62       1.0  0.74890  0.85960  0.65359  1.0000
  C   C63       1.0  0.75110  0.35960  0.84641  1.0000
  C   C64       1.0  0.24890  0.35960  0.65359  1.0000
  C   C65       1.0  0.82100  0.10440  0.12968  1.0000
  C   C66       1.0  0.17900  0.10440  0.37032  1.0000
  C   C67       1.0  0.32100  0.60440  0.12968  1.0000
  C   C68       1.0  0.67900  0.60440  0.37032  1.0000
  C   C69       1.0  0.17900  0.89560  0.87032  1.0000
  C   C70       1.0  0.82100  0.89560  0.62968  1.0000
  C   C71       1.0  0.67900  0.39560  0.87032  1.0000
  C   C72       1.0  0.32100  0.39560  0.62968  1.0000
  O   O17       1.0  0.92270  0.08592  0.15716  1.0000
  O   O18       1.0  0.07730  0.08592  0.34284  1.0000
  O   O19       1.0  0.42270  0.58592  0.15716  1.0000
  O   O20       1.0  0.57730  0.58592  0.34284  1.0000
  O   O21       1.0  0.07730  0.91408  0.84284  1.0000
  O   O22       1.0  0.92270  0.91408  0.65716  1.0000
  O   O23       1.0  0.57730  0.41408  0.84284  1.0000
  O   O24       1.0  0.42270  0.41408  0.65716  1.0000
  C   C73       1.0  0.79080  0.08250  0.07210  1.0000
  C   C74       1.0  0.20920  0.08250  0.42790  1.0000
  C   C75       1.0  0.29080  0.58250  0.07210  1.0000
  C   C76       1.0  0.70920  0.58250  0.42790  1.0000
  C   C77       1.0  0.20920  0.91750  0.92790  1.0000
  C   C78       1.0  0.79080  0.91750  0.57210  1.0000
  C   C79       1.0  0.70920  0.41750  0.92790  1.0000
  C   C80       1.0  0.29080  0.41750  0.57210  1.0000
  O   O25       1.0  0.86790  0.04498  0.05751  1.0000
  O   O26       1.0  0.13210  0.04498  0.44249  1.0000
  O   O27       1.0  0.36790  0.54498  0.05751  1.0000
  O   O28       1.0  0.63210  0.54498  0.44249  1.0000
  O   O29       1.0  0.13210  0.95502  0.94249  1.0000
  O   O30       1.0  0.86790  0.95502  0.55751  1.0000
  O   O31       1.0  0.63210  0.45502  0.94249  1.0000
  O   O32       1.0  0.36790  0.45502  0.55751  1.0000
  C   C81       1.0  0.69240  0.09980  0.03740  1.0000
  C   C82       1.0  0.30760  0.09980  0.46260  1.0000
  C   C83       1.0  0.19240  0.59980  0.03740  1.0000
  C   C84       1.0  0.80760  0.59980  0.46260  1.0000
  C   C85       1.0  0.30760  0.90020  0.96260  1.0000
  C   C86       1.0  0.69240  0.90020  0.53740  1.0000
  C   C87       1.0  0.80760  0.40020  0.96260  1.0000
  C   C88       1.0  0.19240  0.40020  0.53740  1.0000
  H   H41       1.0  0.67320  0.08620  0.99850  1.0000
  H   H42       1.0  0.32680  0.08620  0.50150  1.0000
  H   H43       1.0  0.17320  0.58620  0.99850  1.0000
  H   H44       1.0  0.82680  0.58620  0.50150  1.0000
  H   H45       1.0  0.32680  0.91380  0.00150  1.0000
  H   H46       1.0  0.67320  0.91380  0.49850  1.0000
  H   H47       1.0  0.82680  0.41380  0.00150  1.0000
  H   H48       1.0  0.17320  0.41380  0.49850  1.0000
  C   C89       1.0  0.62160  0.13770  0.06050  1.0000
  C   C90       1.0  0.37840  0.13770  0.43950  1.0000
  C   C91       1.0  0.12160  0.63770  0.06050  1.0000
  C   C92       1.0  0.87840  0.63770  0.43950  1.0000
  C   C93       1.0  0.37840  0.86230  0.93950  1.0000
  C   C94       1.0  0.62160  0.86230  0.56050  1.0000
  C   C95       1.0  0.87840  0.36230  0.93950  1.0000
  C   C96       1.0  0.12160  0.36230  0.56050  1.0000
  H   H49       1.0  0.55340  0.15030  0.03690  1.0000
  H   H50       1.0  0.44660  0.15030  0.46310  1.0000
  H   H51       1.0  0.05340  0.65030  0.03690  1.0000
  H   H52       1.0  0.94660  0.65030  0.46310  1.0000
  H   H53       1.0  0.44660  0.84970  0.96310  1.0000
  H   H54       1.0  0.55340  0.84970  0.53690  1.0000
  H   H55       1.0  0.94660  0.34970  0.96310  1.0000
  H   H56       1.0  0.05340  0.34970  0.53690  1.0000
  C   C97       1.0  0.64880  0.15760  0.11750  1.0000
  C   C98       1.0  0.35120  0.15760  0.38250  1.0000
  C   C99       1.0  0.14880  0.65760  0.11750  1.0000
  C   C100      1.0  0.85120  0.65760  0.38250  1.0000
  C   C101      1.0  0.35120  0.84240  0.88250  1.0000
  C   C102      1.0  0.64880  0.84240  0.61750  1.0000
  C   C103      1.0  0.85120  0.34240  0.88250  1.0000
  C   C104      1.0  0.14880  0.34240  0.61750  1.0000
  H   H57       1.0  0.59860  0.18320  0.13220  1.0000
  H   H58       1.0  0.40140  0.18320  0.36780  1.0000
  H   H59       1.0  0.09860  0.68320  0.13220  1.0000
  H   H60       1.0  0.90140  0.68320  0.36780  1.0000
  H   H61       1.0  0.40140  0.81680  0.86780  1.0000
  H   H62       1.0  0.59860  0.81680  0.63220  1.0000
  H   H63       1.0  0.90140  0.31680  0.86780  1.0000
  H   H64       1.0  0.09860  0.31680  0.63220  1.0000
  C   C105      1.0  0.77660  0.15910  0.21686  1.0000
  C   C106      1.0  0.22340  0.15910  0.28314  1.0000
  C   C107      1.0  0.27660  0.65910  0.21686  1.0000
  C   C108      1.0  0.72340  0.65910  0.28314  1.0000
  C   C109      1.0  0.22340  0.84090  0.78314  1.0000
  C   C110      1.0  0.77660  0.84090  0.71686  1.0000
  C   C111      1.0  0.72340  0.34090  0.78314  1.0000
  C   C112      1.0  0.27660  0.34090  0.71686  1.0000
  H   H65       1.0  0.77710  0.20250  0.21912  1.0000
  H   H66       1.0  0.22290  0.20250  0.28088  1.0000
  H   H67       1.0  0.27710  0.70250  0.21912  1.0000
  H   H68       1.0  0.72290  0.70250  0.28088  1.0000
  H   H69       1.0  0.22290  0.79750  0.78088  1.0000
  H   H70       1.0  0.77710  0.79750  0.71912  1.0000
  H   H71       1.0  0.72290  0.29750  0.78088  1.0000
  H   H72       1.0  0.27710  0.29750  0.71912  1.0000
  H   H73       1.0  0.85280  0.14500  0.23402  1.0000
  H   H74       1.0  0.14720  0.14500  0.26598  1.0000
  H   H75       1.0  0.35280  0.64500  0.23402  1.0000
  H   H76       1.0  0.64720  0.64500  0.26598  1.0000
  H   H77       1.0  0.14720  0.85500  0.76598  1.0000
  H   H78       1.0  0.85280  0.85500  0.73402  1.0000
  H   H79       1.0  0.64720  0.35500  0.76598  1.0000
  H   H80       1.0  0.35280  0.35500  0.73402  1.0000
  C   C113      1.0  0.72390  0.14620  0.31700  1.0000
  C   C114      1.0  0.27610  0.14620  0.18300  1.0000
  C   C115      1.0  0.22390  0.64620  0.31700  1.0000
  C   C116      1.0  0.77610  0.64620  0.18300  1.0000
  C   C117      1.0  0.27610  0.85380  0.68300  1.0000
  C   C118      1.0  0.72390  0.85380  0.81700  1.0000
  C   C119      1.0  0.77610  0.35380  0.68300  1.0000
  C   C120      1.0  0.22390  0.35380  0.81700  1.0000
  C   C121      1.0  0.80310  0.11200  0.35101  1.0000
  C   C122      1.0  0.19690  0.11200  0.14899  1.0000
  C   C123      1.0  0.30310  0.61200  0.35101  1.0000
  C   C124      1.0  0.69690  0.61200  0.14899  1.0000
  C   C125      1.0  0.19690  0.88800  0.64899  1.0000
  C   C126      1.0  0.80310  0.88800  0.85101  1.0000
  C   C127      1.0  0.69690  0.38800  0.64899  1.0000
  C   C128      1.0  0.30310  0.38800  0.85101  1.0000
  O   O33       1.0  0.85670  0.06527  0.33258  1.0000
  O   O34       1.0  0.14330  0.06527  0.16742  1.0000
  O   O35       1.0  0.35670  0.56527  0.33258  1.0000
  O   O36       1.0  0.64330  0.56527  0.16742  1.0000
  O   O37       1.0  0.14330  0.93473  0.66742  1.0000
  O   O38       1.0  0.85670  0.93473  0.83258  1.0000
  O   O39       1.0  0.64330  0.43473  0.66742  1.0000
  O   O40       1.0  0.35670  0.43473  0.83258  1.0000
  C   C129      1.0  0.83660  0.12280  0.41120  1.0000
  C   C130      1.0  0.16340  0.12280  0.08880  1.0000
  C   C131      1.0  0.33660  0.62280  0.41120  1.0000
  C   C132      1.0  0.66340  0.62280  0.08880  1.0000
  C   C133      1.0  0.16340  0.87720  0.58880  1.0000
  C   C134      1.0  0.83660  0.87720  0.91120  1.0000
  C   C135      1.0  0.66340  0.37720  0.58880  1.0000
  C   C136      1.0  0.33660  0.37720  0.91120  1.0000
  O   O41       1.0  0.91790  0.08629  0.43824  1.0000
  O   O42       1.0  0.08210  0.08629  0.06176  1.0000
  O   O43       1.0  0.41790  0.58629  0.43824  1.0000
  O   O44       1.0  0.58210  0.58629  0.06176  1.0000
  O   O45       1.0  0.08210  0.91371  0.56176  1.0000
  O   O46       1.0  0.91790  0.91371  0.93824  1.0000
  O   O47       1.0  0.58210  0.41371  0.56176  1.0000
  O   O48       1.0  0.41790  0.41371  0.93824  1.0000
  C   C137      1.0  0.78690  0.16740  0.43690  1.0000
  C   C138      1.0  0.21310  0.16740  0.06310  1.0000
  C   C139      1.0  0.28690  0.66740  0.43690  1.0000
  C   C140      1.0  0.71310  0.66740  0.06310  1.0000
  C   C141      1.0  0.21310  0.83260  0.56310  1.0000
  C   C142      1.0  0.78690  0.83260  0.93690  1.0000
  C   C143      1.0  0.71310  0.33260  0.56310  1.0000
  C   C144      1.0  0.28690  0.33260  0.93690  1.0000
  H   H81       1.0  0.80850  0.17470  0.47740  1.0000
  H   H82       1.0  0.19150  0.17470  0.02260  1.0000
  H   H83       1.0  0.30850  0.67470  0.47740  1.0000
  H   H84       1.0  0.69150  0.67470  0.02260  1.0000
  H   H85       1.0  0.19150  0.82530  0.52260  1.0000
  H   H86       1.0  0.80850  0.82530  0.97740  1.0000
  H   H87       1.0  0.69150  0.32530  0.52260  1.0000
  H   H88       1.0  0.30850  0.32530  0.97740  1.0000
  C   C145      1.0  0.70580  0.20140  0.40390  1.0000
  C   C146      1.0  0.29420  0.20140  0.09610  1.0000
  C   C147      1.0  0.20580  0.70140  0.40390  1.0000
  C   C148      1.0  0.79420  0.70140  0.09610  1.0000
  C   C149      1.0  0.29420  0.79860  0.59610  1.0000
  C   C150      1.0  0.70580  0.79860  0.90390  1.0000
  C   C151      1.0  0.79420  0.29860  0.59610  1.0000
  C   C152      1.0  0.20580  0.29860  0.90390  1.0000
  H   H89       1.0  0.67100  0.23210  0.42180  1.0000
  H   H90       1.0  0.32900  0.23210  0.07820  1.0000
  H   H91       1.0  0.17100  0.73210  0.42180  1.0000
  H   H92       1.0  0.82900  0.73210  0.07820  1.0000
  H   H93       1.0  0.32900  0.76790  0.57820  1.0000
  H   H94       1.0  0.67100  0.76790  0.92180  1.0000
  H   H95       1.0  0.82900  0.26790  0.57820  1.0000
  H   H96       1.0  0.17100  0.26790  0.92180  1.0000
  C   C153      1.0  0.67420  0.19140  0.34420  1.0000
  C   C154      1.0  0.32580  0.19140  0.15580  1.0000
  C   C155      1.0  0.17420  0.69140  0.34420  1.0000
  C   C156      1.0  0.82580  0.69140  0.15580  1.0000
  C   C157      1.0  0.32580  0.80860  0.65580  1.0000
  C   C158      1.0  0.67420  0.80860  0.84420  1.0000
  C   C159      1.0  0.82580  0.30860  0.65580  1.0000
  C   C160      1.0  0.17420  0.30860  0.84420  1.0000
  H   H97       1.0  0.61840  0.21550  0.32190  1.0000
  H   H98       1.0  0.38160  0.21550  0.17810  1.0000
  H   H99       1.0  0.11840  0.71550  0.32190  1.0000
  H   H100      1.0  0.88160  0.71550  0.17810  1.0000
  H   H101      1.0  0.38160  0.78450  0.67810  1.0000
  H   H102      1.0  0.61840  0.78450  0.82190  1.0000
  H   H103      1.0  0.88160  0.28450  0.67810  1.0000
  H   H104      1.0  0.11840  0.28450  0.82190  1.0000
  C   C161      1.0  0.69110  0.13480  0.25202  1.0000
  C   C162      1.0  0.30890  0.13480  0.24798  1.0000
  C   C163      1.0  0.19110  0.63480  0.25202  1.0000
  C   C164      1.0  0.80890  0.63480  0.24798  1.0000
  C   C165      1.0  0.30890  0.86520  0.74798  1.0000
  C   C166      1.0  0.69110  0.86520  0.75202  1.0000
  C   C167      1.0  0.80890  0.36520  0.74798  1.0000
  C   C168      1.0  0.19110  0.36520  0.75202  1.0000
  H   H105      1.0  0.61680  0.15280  0.23774  1.0000
  H   H106      1.0  0.38320  0.15280  0.26226  1.0000
  H   H107      1.0  0.11680  0.65280  0.23774  1.0000
  H   H108      1.0  0.88320  0.65280  0.26226  1.0000
  H   H109      1.0  0.38320  0.84720  0.76226  1.0000
  H   H110      1.0  0.61680  0.84720  0.73774  1.0000
  H   H111      1.0  0.88320  0.34720  0.76226  1.0000
  H   H112      1.0  0.11680  0.34720  0.73774  1.0000
  H   H113      1.0  0.68350  0.09190  0.24538  1.0000
  H   H114      1.0  0.31650  0.09190  0.25462  1.0000
  H   H115      1.0  0.18350  0.59190  0.24538  1.0000
  H   H116      1.0  0.81650  0.59190  0.25462  1.0000
  H   H117      1.0  0.31650  0.90810  0.75462  1.0000
  H   H118      1.0  0.68350  0.90810  0.74538  1.0000
  H   H119      1.0  0.81650  0.40810  0.75462  1.0000
  H   H120      1.0  0.18350  0.40810  0.74538  1.0000
  Li  Li1       1.0  0.00000  0.98210  0.25000  1.0000
  Li  Li2       1.0  0.50000  0.48210  0.25000  1.0000
  Li  Li3       1.0  0.00000  0.01790  0.75000  1.0000
  Li  Li4       1.0  0.50000  0.51790  0.75000  1.0000
  O   O49       1.0  0.84060  0.00539  0.23181  1.0000
  O   O50       1.0  0.15940  0.00539  0.26819  1.0000
  O   O51       1.0  0.34060  0.50539  0.23181  1.0000
  O   O52       1.0  0.65940  0.50539  0.26819  1.0000
  O   O53       1.0  0.15940  0.99461  0.76819  1.0000
  O   O54       1.0  0.84060  0.99461  0.73181  1.0000
  O   O55       1.0  0.65940  0.49461  0.76819  1.0000
  O   O56       1.0  0.34060  0.49461  0.73181  1.0000
  H   H121      1.0  0.83840  0.03350  0.20900  1.0000
  H   H122      1.0  0.16160  0.03350  0.29100  1.0000
  H   H123      1.0  0.33840  0.53350  0.20900  1.0000
  H   H124      1.0  0.66160  0.53350  0.29100  1.0000
  H   H125      1.0  0.16160  0.96650  0.79100  1.0000
  H   H126      1.0  0.83840  0.96650  0.70900  1.0000
  H   H127      1.0  0.66160  0.46650  0.79100  1.0000
  H   H128      1.0  0.33840  0.46650  0.70900  1.0000
  H   H129      1.0  0.82860  0.02580  0.25960  1.0000
  H   H130      1.0  0.17140  0.02580  0.24040  1.0000
  H   H131      1.0  0.32860  0.52580  0.25960  1.0000
  H   H132      1.0  0.67140  0.52580  0.24040  1.0000
  H   H133      1.0  0.17140  0.97420  0.74040  1.0000
  H   H134      1.0  0.82860  0.97420  0.75960  1.0000
  H   H135      1.0  0.67140  0.47420  0.74040  1.0000
  H   H136      1.0  0.32860  0.47420  0.75960  1.0000
  Li  Li5       1.0  0.87710  0.98970  0.99320  1.0000
  Li  Li6       1.0  0.12290  0.98970  0.50680  1.0000
  Li  Li7       1.0  0.37710  0.48970  0.99320  1.0000
  Li  Li8       1.0  0.62290  0.48970  0.50680  1.0000
  Li  Li9       1.0  0.12290  0.01030  0.00680  1.0000
  Li  Li10      1.0  0.87710  0.01030  0.49320  1.0000
  Li  Li11      1.0  0.62290  0.51030  0.00680  1.0000
  Li  Li12      1.0  0.37710  0.51030  0.49320  1.0000
  O   O57       1.0  0.72100  0.97876  0.96420  1.0000
  O   O58       1.0  0.27900  0.97876  0.53580  1.0000
  O   O59       1.0  0.22100  0.47876  0.96420  1.0000
  O   O60       1.0  0.77900  0.47876  0.53580  1.0000
  O   O61       1.0  0.27900  0.02124  0.03580  1.0000
  O   O62       1.0  0.72100  0.02124  0.46420  1.0000
  O   O63       1.0  0.77900  0.52124  0.03580  1.0000
  O   O64       1.0  0.22100  0.52124  0.46420  1.0000
  C   C169      1.0  0.64300  0.96320  0.92610  1.0000
  C   C170      1.0  0.35700  0.96320  0.57390  1.0000
  C   C171      1.0  0.14300  0.46320  0.92610  1.0000
  C   C172      1.0  0.85700  0.46320  0.57390  1.0000
  C   C173      1.0  0.35700  0.03680  0.07390  1.0000
  C   C174      1.0  0.64300  0.03680  0.42610  1.0000
  C   C175      1.0  0.85700  0.53680  0.07390  1.0000
  C   C176      1.0  0.14300  0.53680  0.42610  1.0000
  H   H137      1.0  0.60080  0.93000  0.93400  1.0000
  H   H138      1.0  0.39920  0.93000  0.56600  1.0000
  H   H139      1.0  0.10080  0.43000  0.93400  1.0000
  H   H140      1.0  0.89920  0.43000  0.56600  1.0000
  H   H141      1.0  0.39920  0.07000  0.06600  1.0000
  H   H142      1.0  0.60080  0.07000  0.43400  1.0000
  H   H143      1.0  0.89920  0.57000  0.06600  1.0000
  H   H144      1.0  0.10080  0.57000  0.43400  1.0000
  N   N1        1.0  0.61250  0.98900  0.87468  1.0000
  N   N2        1.0  0.38750  0.98900  0.62532  1.0000
  N   N3        1.0  0.11250  0.48900  0.87468  1.0000
  N   N4        1.0  0.88750  0.48900  0.62532  1.0000
  N   N5        1.0  0.38750  0.01100  0.12532  1.0000
  N   N6        1.0  0.61250  0.01100  0.37468  1.0000
  N   N7        1.0  0.88750  0.51100  0.12532  1.0000
  N   N8        1.0  0.11250  0.51100  0.37468  1.0000
  C   C177      1.0  0.67470  0.03780  0.85790  1.0000
  C   C178      1.0  0.32530  0.03780  0.64210  1.0000
  C   C179      1.0  0.17470  0.53780  0.85790  1.0000
  C   C180      1.0  0.82530  0.53780  0.64210  1.0000
  C   C181      1.0  0.32530  0.96220  0.14210  1.0000
  C   C182      1.0  0.67470  0.96220  0.35790  1.0000
  C   C183      1.0  0.82530  0.46220  0.14210  1.0000
  C   C184      1.0  0.17470  0.46220  0.35790  1.0000
  H   H145      1.0  0.62310  0.07030  0.84510  1.0000
  H   H146      1.0  0.37690  0.07030  0.65490  1.0000
  H   H147      1.0  0.12310  0.57030  0.84510  1.0000
  H   H148      1.0  0.87690  0.57030  0.65490  1.0000
  H   H149      1.0  0.37690  0.92970  0.15490  1.0000
  H   H150      1.0  0.62310  0.92970  0.34510  1.0000
  H   H151      1.0  0.87690  0.42970  0.15490  1.0000
  H   H152      1.0  0.12310  0.42970  0.34510  1.0000
  H   H153      1.0  0.71250  0.02600  0.82600  1.0000
  H   H154      1.0  0.28750  0.02600  0.67400  1.0000
  H   H155      1.0  0.21250  0.52600  0.82600  1.0000
  H   H156      1.0  0.78750  0.52600  0.67400  1.0000
  H   H157      1.0  0.28750  0.97400  0.17400  1.0000
  H   H158      1.0  0.71250  0.97400  0.32600  1.0000
  H   H159      1.0  0.78750  0.47400  0.17400  1.0000
  H   H160      1.0  0.21250  0.47400  0.32600  1.0000
  H   H161      1.0  0.73090  0.05040  0.89120  1.0000
  H   H162      1.0  0.26910  0.05040  0.60880  1.0000
  H   H163      1.0  0.23090  0.55040  0.89120  1.0000
  H   H164      1.0  0.76910  0.55040  0.60880  1.0000
  H   H165      1.0  0.26910  0.94960  0.10880  1.0000
  H   H166      1.0  0.73090  0.94960  0.39120  1.0000
  H   H167      1.0  0.76910  0.44960  0.10880  1.0000
  H   H168      1.0  0.23090  0.44960  0.39120  1.0000
  C   C185      1.0  0.52370  0.96430  0.83150  1.0000
  C   C186      1.0  0.47630  0.96430  0.66850  1.0000
  C   C187      1.0  0.02370  0.46430  0.83150  1.0000
  C   C188      1.0  0.97630  0.46430  0.66850  1.0000
  C   C189      1.0  0.47630  0.03570  0.16850  1.0000
  C   C190      1.0  0.52370  0.03570  0.33150  1.0000
  C   C191      1.0  0.97630  0.53570  0.16850  1.0000
  C   C192      1.0  0.02370  0.53570  0.33150  1.0000
  H   H169      1.0  0.47090  0.99530  0.81570  1.0000
  H   H170      1.0  0.52910  0.99530  0.68430  1.0000
  H   H171      1.0  0.97090  0.49530  0.81570  1.0000
  H   H172      1.0  0.02910  0.49530  0.68430  1.0000
  H   H173      1.0  0.52910  0.00470  0.18430  1.0000
  H   H174      1.0  0.47090  0.00470  0.31570  1.0000
  H   H175      1.0  0.02910  0.50470  0.18430  1.0000
  H   H176      1.0  0.97090  0.50470  0.31570  1.0000
  H   H177      1.0  0.48380  0.93400  0.84960  1.0000
  H   H178      1.0  0.51620  0.93400  0.65040  1.0000
  H   H179      1.0  0.98380  0.43400  0.84960  1.0000
  H   H180      1.0  0.01620  0.43400  0.65040  1.0000
  H   H181      1.0  0.51620  0.06600  0.15040  1.0000
  H   H182      1.0  0.48380  0.06600  0.34960  1.0000
  H   H183      1.0  0.01620  0.56600  0.15040  1.0000
  H   H184      1.0  0.98380  0.56600  0.34960  1.0000
  H   H185      1.0  0.55640  0.94680  0.80000  1.0000
  H   H186      1.0  0.44360  0.94680  0.70000  1.0000
  H   H187      1.0  0.05640  0.44680  0.80000  1.0000
  H   H188      1.0  0.94360  0.44680  0.70000  1.0000
  H   H189      1.0  0.44360  0.05320  0.20000  1.0000
  H   H190      1.0  0.55640  0.05320  0.30000  1.0000
  H   H191      1.0  0.94360  0.55320  0.20000  1.0000
  H   H192      1.0  0.05640  0.55320  0.30000  1.0000
