data_image0
_chemical_formula_structural       Bi2O40C30N10O8C6N2
_chemical_formula_sum              "Bi2 O48 C36 N12"
_cell_length_a       14.633
_cell_length_b       16.2486
_cell_length_c       19.7829
_cell_angle_alpha    79.313
_cell_angle_beta     85.485
_cell_angle_gamma    64.133

_space_group_name_H-M_alt    "P 1"
_space_group_IT_number       1

loop_
  _space_group_symop_operation_xyz
  'x, y, z'

loop_
  _atom_site_type_symbol
  _atom_site_label
  _atom_site_symmetry_multiplicity
  _atom_site_fract_x
  _atom_site_fract_y
  _atom_site_fract_z
  _atom_site_occupancy
  Bi  Bi1       1.0  0.72942  0.08758  0.86830  1.0000
  Bi  Bi2       1.0  0.27058  0.91242  0.13170  1.0000
  O   O1        1.0  0.67160  0.24560  0.86690  1.0000
  O   O2        1.0  0.32840  0.75440  0.13310  1.0000
  O   O3        1.0  0.61620  0.17760  0.77500  1.0000
  O   O4        1.0  0.38380  0.82240  0.22500  1.0000
  O   O5        1.0  0.50690  0.54800  0.74490  1.0000
  O   O6        1.0  0.49310  0.45200  0.25510  1.0000
  O   O7        1.0  0.44370  0.48090  0.65100  1.0000
  O   O8        1.0  0.55630  0.51910  0.34900  1.0000
  O   O9        1.0  0.40940  0.32220  0.64320  1.0000
  O   O10       1.0  0.59060  0.67780  0.35680  1.0000
  O   O11       1.0  0.56570  0.23000  0.62910  1.0000
  O   O12       1.0  0.43430  0.77000  0.37090  1.0000
  O   O13       1.0  0.58700  0.46010  0.90190  1.0000
  O   O14       1.0  0.41300  0.53990  0.09810  1.0000
  O   O15       1.0  0.71870  0.43150  0.84250  1.0000
  O   O16       1.0  0.28130  0.56850  0.15750  1.0000
  O   O17       1.0  0.81740  0.12320  0.94910  1.0000
  O   O18       1.0  0.18260  0.87680  0.05090  1.0000
  O   O19       1.0  0.09730  0.04180  0.08950  1.0000
  O   O20       1.0  0.90270  0.95820  0.91050  1.0000
  O   O21       1.0  0.89520  0.18430  0.10440  1.0000
  O   O22       1.0  0.10480  0.81570  0.89560  1.0000
  O   O23       1.0  0.87450  0.24880  0.99710  1.0000
  O   O24       1.0  0.12550  0.75120  0.00290  1.0000
  O   O25       1.0  0.83750  0.12470  0.79470  1.0000
  O   O26       1.0  0.16250  0.87530  0.20530  1.0000
  O   O27       1.0  0.83420  0.05880  0.53770  1.0000
  O   O28       1.0  0.16580  0.94120  0.46230  1.0000
  O   O29       1.0  0.77490  0.00160  0.77620  1.0000
  O   O30       1.0  0.22510  0.99840  0.22380  1.0000
  O   O31       1.0  0.89960  0.18320  0.55920  1.0000
  O   O32       1.0  0.10040  0.81680  0.44080  1.0000
  O   O33       1.0  0.72370  0.95910  0.60290  1.0000
  O   O34       1.0  0.27630  0.04090  0.39710  1.0000
  O   O35       1.0  0.83080  0.86930  0.68130  1.0000
  O   O36       1.0  0.16920  0.13070  0.31870  1.0000
  O   O37       1.0  0.00650  0.19690  0.66760  1.0000
  O   O38       1.0  0.99350  0.80310  0.33240  1.0000
  O   O39       1.0  0.87320  0.27520  0.72460  1.0000
  O   O40       1.0  0.12680  0.72480  0.27540  1.0000
  C   C1        1.0  0.59030  0.26350  0.76340  1.0000
  C   C2        1.0  0.40970  0.73650  0.23660  1.0000
  C   C3        1.0  0.53010  0.32620  0.70900  1.0000
  C   C4        1.0  0.46990  0.67380  0.29100  1.0000
  C   C5        1.0  0.49710  0.42450  0.69900  1.0000
  C   C6        1.0  0.50290  0.57550  0.30100  1.0000
  C   C7        1.0  0.53400  0.46410  0.75140  1.0000
  C   C8        1.0  0.46600  0.53590  0.24860  1.0000
  C   C9        1.0  0.59820  0.39590  0.80520  1.0000
  C   C10       1.0  0.40180  0.60410  0.19480  1.0000
  C   C11       1.0  0.62190  0.30390  0.81580  1.0000
  C   C12       1.0  0.37810  0.69610  0.18420  1.0000
  C   C13       1.0  0.90400  0.06840  0.97310  1.0000
  C   C14       1.0  0.09600  0.93160  0.02690  1.0000
  C   C15       1.0  0.94940  0.08920  0.02410  1.0000
  C   C16       1.0  0.05060  0.91080  0.97590  1.0000
  C   C17       1.0  0.04750  0.02590  0.04850  1.0000
  C   C18       1.0  0.95250  0.97410  0.95150  1.0000
  C   C19       1.0  0.84050  0.11040  0.73280  1.0000
  C   C20       1.0  0.15950  0.88960  0.26720  1.0000
  C   C21       1.0  0.87420  0.15470  0.67790  1.0000
  C   C22       1.0  0.12580  0.84530  0.32210  1.0000
  C   C23       1.0  0.87400  0.14010  0.60920  1.0000
  C   C24       1.0  0.12600  0.85990  0.39080  1.0000
  C   C25       1.0  0.83480  0.06990  0.59710  1.0000
  C   C26       1.0  0.16520  0.93010  0.40290  1.0000
  C   C27       1.0  0.80780  0.02160  0.65680  1.0000
  C   C28       1.0  0.19220  0.97840  0.34320  1.0000
  C   C29       1.0  0.80200  0.03890  0.72260  1.0000
  C   C30       1.0  0.19800  0.96110  0.27740  1.0000
  N   N1        1.0  0.50050  0.29060  0.65630  1.0000
  N   N2        1.0  0.49950  0.70940  0.34370  1.0000
  N   N3        1.0  0.63640  0.43130  0.85540  1.0000
  N   N4        1.0  0.36360  0.56870  0.14460  1.0000
  N   N5        1.0  0.90240  0.18180  0.04360  1.0000
  N   N6        1.0  0.09760  0.81820  0.95640  1.0000
  N   N7        1.0  0.92220  0.21570  0.69140  1.0000
  N   N8        1.0  0.07780  0.78430  0.30860  1.0000
  N   N9        1.0  0.78430  0.94560  0.64620  1.0000
  N   N10       1.0  0.21570  0.05440  0.35380  1.0000
  O   O41       1.0  0.56980  0.12870  0.95050  1.0000
  O   O42       1.0  0.43020  0.87130  0.04950  1.0000
  O   O43       1.0  0.33570  0.04280  0.08290  1.0000
  O   O44       1.0  0.66430  0.95720  0.91710  1.0000
  O   O45       1.0  0.44720  0.20780  0.06830  1.0000
  O   O46       1.0  0.55280  0.79220  0.93170  1.0000
  O   O47       1.0  0.31130  0.23170  0.01690  1.0000
  O   O48       1.0  0.68870  0.76830  0.98310  1.0000
  C   C31       1.0  0.53470  0.07200  0.97510  1.0000
  C   C32       1.0  0.46530  0.92800  0.02490  1.0000
  C   C33       1.0  0.45000  0.09000  0.01700  1.0000
  C   C34       1.0  0.55000  0.91000  0.98300  1.0000
  C   C35       1.0  0.40950  0.02630  0.04490  1.0000
  C   C36       1.0  0.59050  0.97370  0.95510  1.0000
  N   N11       1.0  0.39890  0.18450  0.03650  1.0000
  N   N12       1.0  0.60110  0.81550  0.96350  1.0000
