data_image0
_chemical_formula_structural       Cu8O64C32
_chemical_formula_sum              "Cu8 O64 C32"
_cell_length_a       11.2462
_cell_length_b       10.1395
_cell_length_c       30.9925
_cell_angle_alpha    90
_cell_angle_beta     90
_cell_angle_gamma    90

_space_group_name_H-M_alt    "P 1"
_space_group_IT_number       1

loop_
  _space_group_symop_operation_xyz
  'x, y, z'

loop_
  _atom_site_type_symbol
  _atom_site_label
  _atom_site_symmetry_multiplicity
  _atom_site_fract_x
  _atom_site_fract_y
  _atom_site_fract_z
  _atom_site_occupancy
  Cu  Cu1       1.0  0.85350  0.25339  0.38760  1.0000
  Cu  Cu2       1.0  0.64650  0.74661  0.88760  1.0000
  Cu  Cu3       1.0  0.14650  0.75339  0.11240  1.0000
  Cu  Cu4       1.0  0.35350  0.24661  0.61240  1.0000
  Cu  Cu5       1.0  0.14650  0.74661  0.61240  1.0000
  Cu  Cu6       1.0  0.35350  0.25339  0.11240  1.0000
  Cu  Cu7       1.0  0.85350  0.24661  0.88760  1.0000
  Cu  Cu8       1.0  0.64650  0.75339  0.38760  1.0000
  O   O1        1.0  0.98804  0.17192  0.35612  1.0000
  O   O2        1.0  0.51196  0.82808  0.85612  1.0000
  O   O3        1.0  0.01196  0.67192  0.14388  1.0000
  O   O4        1.0  0.48804  0.32808  0.64388  1.0000
  O   O5        1.0  0.01196  0.82808  0.64388  1.0000
  O   O6        1.0  0.48804  0.17192  0.14388  1.0000
  O   O7        1.0  0.98804  0.32808  0.85612  1.0000
  O   O8        1.0  0.51196  0.67192  0.35612  1.0000
  O   O9        1.0  0.97901  0.34287  0.41990  1.0000
  O   O10       1.0  0.52099  0.65713  0.91990  1.0000
  O   O11       1.0  0.02099  0.84287  0.08010  1.0000
  O   O12       1.0  0.47901  0.15713  0.58010  1.0000
  O   O13       1.0  0.02099  0.65713  0.58010  1.0000
  O   O14       1.0  0.47901  0.34287  0.08010  1.0000
  O   O15       1.0  0.97901  0.15713  0.91990  1.0000
  O   O16       1.0  0.52099  0.84287  0.41990  1.0000
  O   O17       1.0  0.18395  0.19722  0.35047  1.0000
  O   O18       1.0  0.31605  0.80278  0.85047  1.0000
  O   O19       1.0  0.81605  0.69722  0.14953  1.0000
  O   O20       1.0  0.68395  0.30278  0.64953  1.0000
  O   O21       1.0  0.81605  0.80278  0.64953  1.0000
  O   O22       1.0  0.68395  0.19722  0.14953  1.0000
  O   O23       1.0  0.18395  0.30278  0.85047  1.0000
  O   O24       1.0  0.31605  0.69722  0.35047  1.0000
  O   O25       1.0  0.17162  0.38429  0.41397  1.0000
  O   O26       1.0  0.32838  0.61571  0.91397  1.0000
  O   O27       1.0  0.82838  0.88429  0.08603  1.0000
  O   O28       1.0  0.67162  0.11571  0.58603  1.0000
  O   O29       1.0  0.82838  0.61571  0.58603  1.0000
  O   O30       1.0  0.67162  0.38429  0.08603  1.0000
  O   O31       1.0  0.17162  0.11571  0.91397  1.0000
  O   O32       1.0  0.32838  0.88429  0.41397  1.0000
  O   O33       1.0  0.73640  0.15054  0.35451  1.0000
  O   O34       1.0  0.76360  0.84946  0.85451  1.0000
  O   O35       1.0  0.26360  0.65054  0.14549  1.0000
  O   O36       1.0  0.23640  0.34946  0.64549  1.0000
  O   O37       1.0  0.26360  0.84946  0.64549  1.0000
  O   O38       1.0  0.23640  0.15054  0.14549  1.0000
  O   O39       1.0  0.73640  0.34946  0.85451  1.0000
  O   O40       1.0  0.76360  0.65054  0.35451  1.0000
  O   O41       1.0  0.83163  0.06554  0.42954  1.0000
  O   O42       1.0  0.66837  0.93446  0.92954  1.0000
  O   O43       1.0  0.16837  0.56554  0.07046  1.0000
  O   O44       1.0  0.33163  0.43446  0.57046  1.0000
  O   O45       1.0  0.16837  0.93446  0.57046  1.0000
  O   O46       1.0  0.33163  0.06554  0.07046  1.0000
  O   O47       1.0  0.83163  0.43446  0.92954  1.0000
  O   O48       1.0  0.66837  0.56554  0.42954  1.0000
  O   O49       1.0  0.65810  0.95267  0.34413  1.0000
  O   O50       1.0  0.84190  0.04733  0.84413  1.0000
  O   O51       1.0  0.34190  0.45267  0.15587  1.0000
  O   O52       1.0  0.15810  0.54733  0.65587  1.0000
  O   O53       1.0  0.34190  0.04733  0.65587  1.0000
  O   O54       1.0  0.15810  0.95267  0.15587  1.0000
  O   O55       1.0  0.65810  0.54733  0.84413  1.0000
  O   O56       1.0  0.84190  0.45267  0.34413  1.0000
  O   O57       1.0  0.76781  0.86257  0.41670  1.0000
  O   O58       1.0  0.73219  0.13743  0.91670  1.0000
  O   O59       1.0  0.23219  0.36257  0.08330  1.0000
  O   O60       1.0  0.26781  0.63743  0.58330  1.0000
  O   O61       1.0  0.23219  0.13743  0.58330  1.0000
  O   O62       1.0  0.26781  0.86257  0.08330  1.0000
  O   O63       1.0  0.76781  0.63743  0.91670  1.0000
  O   O64       1.0  0.73219  0.36257  0.41670  1.0000
  C   C1        1.0  0.08675  0.22254  0.36659  1.0000
  C   C2        1.0  0.41325  0.77746  0.86659  1.0000
  C   C3        1.0  0.91325  0.72254  0.13341  1.0000
  C   C4        1.0  0.58675  0.27746  0.63341  1.0000
  C   C5        1.0  0.91325  0.77746  0.63341  1.0000
  C   C6        1.0  0.58675  0.22254  0.13341  1.0000
  C   C7        1.0  0.08675  0.27746  0.86659  1.0000
  C   C8        1.0  0.41325  0.72254  0.36659  1.0000
  C   C9        1.0  0.08121  0.32633  0.40338  1.0000
  C   C10       1.0  0.41879  0.67367  0.90338  1.0000
  C   C11       1.0  0.91879  0.82633  0.09662  1.0000
  C   C12       1.0  0.58121  0.17367  0.59662  1.0000
  C   C13       1.0  0.91879  0.67367  0.59662  1.0000
  C   C14       1.0  0.58121  0.32633  0.09662  1.0000
  C   C15       1.0  0.08121  0.17367  0.90338  1.0000
  C   C16       1.0  0.41879  0.82633  0.40338  1.0000
  C   C17       1.0  0.71821  0.03150  0.36496  1.0000
  C   C18       1.0  0.78179  0.96850  0.86496  1.0000
  C   C19       1.0  0.28179  0.53150  0.13504  1.0000
  C   C20       1.0  0.21821  0.46850  0.63504  1.0000
  C   C21       1.0  0.28179  0.96850  0.63504  1.0000
  C   C22       1.0  0.21821  0.03150  0.13504  1.0000
  C   C23       1.0  0.71821  0.46850  0.86496  1.0000
  C   C24       1.0  0.78179  0.53150  0.36496  1.0000
  C   C25       1.0  0.77765  0.98359  0.40767  1.0000
  C   C26       1.0  0.72235  0.01641  0.90767  1.0000
  C   C27       1.0  0.22235  0.48359  0.09233  1.0000
  C   C28       1.0  0.27765  0.51641  0.59233  1.0000
  C   C29       1.0  0.22235  0.01641  0.59233  1.0000
  C   C30       1.0  0.27765  0.98359  0.09233  1.0000
  C   C31       1.0  0.77765  0.51641  0.90767  1.0000
  C   C32       1.0  0.72235  0.48359  0.40767  1.0000
