data_image0
_chemical_formula_structural       Cu8O8C8O24C24O32
_chemical_formula_sum              "Cu8 O64 C32"
_cell_length_a       11.2757
_cell_length_b       10.154
_cell_length_c       31.0566
_cell_angle_alpha    90
_cell_angle_beta     90
_cell_angle_gamma    90

_space_group_name_H-M_alt    "P 1"
_space_group_IT_number       1

loop_
  _space_group_symop_operation_xyz
  'x, y, z'

loop_
  _atom_site_type_symbol
  _atom_site_label
  _atom_site_symmetry_multiplicity
  _atom_site_fract_x
  _atom_site_fract_y
  _atom_site_fract_z
  _atom_site_occupancy
  Cu  Cu1       1.0  0.35371  0.24625  0.11241  1.0000
  Cu  Cu2       1.0  0.14629  0.75375  0.61241  1.0000
  Cu  Cu3       1.0  0.85371  0.25375  0.88759  1.0000
  Cu  Cu4       1.0  0.64629  0.74625  0.38759  1.0000
  Cu  Cu5       1.0  0.64629  0.75375  0.88759  1.0000
  Cu  Cu6       1.0  0.85371  0.24625  0.38759  1.0000
  Cu  Cu7       1.0  0.14629  0.74625  0.11241  1.0000
  Cu  Cu8       1.0  0.35371  0.25375  0.61241  1.0000
  O   O1        1.0  0.23252  0.13722  0.08323  1.0000
  O   O2        1.0  0.26748  0.86278  0.58323  1.0000
  O   O3        1.0  0.73252  0.36278  0.91677  1.0000
  O   O4        1.0  0.76748  0.63722  0.41677  1.0000
  O   O5        1.0  0.76748  0.86278  0.91677  1.0000
  O   O6        1.0  0.73252  0.13722  0.41677  1.0000
  O   O7        1.0  0.26748  0.63722  0.08323  1.0000
  O   O8        1.0  0.23252  0.36278  0.58323  1.0000
  C   C1        1.0  0.28133  0.96810  0.13505  1.0000
  C   C2        1.0  0.21867  0.03190  0.63505  1.0000
  C   C3        1.0  0.78133  0.53190  0.86495  1.0000
  C   C4        1.0  0.71867  0.46810  0.36495  1.0000
  C   C5        1.0  0.71867  0.03190  0.86495  1.0000
  C   C6        1.0  0.78133  0.96810  0.36495  1.0000
  C   C7        1.0  0.21867  0.46810  0.13505  1.0000
  C   C8        1.0  0.28133  0.53190  0.63505  1.0000
  O   O9        1.0  0.16830  0.93423  0.07053  1.0000
  O   O10       1.0  0.33170  0.06577  0.57053  1.0000
  O   O11       1.0  0.66830  0.56577  0.92947  1.0000
  O   O12       1.0  0.83170  0.43423  0.42947  1.0000
  O   O13       1.0  0.83170  0.06577  0.92947  1.0000
  O   O14       1.0  0.66830  0.93423  0.42947  1.0000
  O   O15       1.0  0.33170  0.43423  0.07053  1.0000
  O   O16       1.0  0.16830  0.56577  0.57053  1.0000
  O   O17       1.0  0.26326  0.84933  0.14554  1.0000
  O   O18       1.0  0.23674  0.15067  0.64554  1.0000
  O   O19       1.0  0.76326  0.65067  0.85446  1.0000
  O   O20       1.0  0.73674  0.34933  0.35446  1.0000
  O   O21       1.0  0.73674  0.15067  0.85446  1.0000
  O   O22       1.0  0.76326  0.84933  0.35446  1.0000
  O   O23       1.0  0.23674  0.34933  0.14554  1.0000
  O   O24       1.0  0.26326  0.65067  0.64554  1.0000
  O   O25       1.0  0.34192  0.04691  0.15591  1.0000
  O   O26       1.0  0.15808  0.95309  0.65591  1.0000
  O   O27       1.0  0.84192  0.45309  0.84409  1.0000
  O   O28       1.0  0.65808  0.54691  0.34409  1.0000
  O   O29       1.0  0.65808  0.95309  0.84409  1.0000
  O   O30       1.0  0.84192  0.04691  0.34409  1.0000
  O   O31       1.0  0.15808  0.54691  0.15591  1.0000
  O   O32       1.0  0.34192  0.45309  0.65591  1.0000
  C   C9        1.0  0.22243  0.01650  0.09221  1.0000
  C   C10       1.0  0.27757  0.98350  0.59221  1.0000
  C   C11       1.0  0.72243  0.48350  0.90779  1.0000
  C   C12       1.0  0.77757  0.51650  0.40779  1.0000
  C   C13       1.0  0.77757  0.98350  0.90779  1.0000
  C   C14       1.0  0.72243  0.01650  0.40779  1.0000
  C   C15       1.0  0.27757  0.51650  0.09221  1.0000
  C   C16       1.0  0.22243  0.48350  0.59221  1.0000
  C   C17       1.0  0.58670  0.27750  0.13317  1.0000
  C   C18       1.0  0.91330  0.72250  0.63317  1.0000
  C   C19       1.0  0.08670  0.22250  0.86683  1.0000
  C   C20       1.0  0.41330  0.77750  0.36683  1.0000
  C   C21       1.0  0.41330  0.72250  0.86683  1.0000
  C   C22       1.0  0.08670  0.27750  0.36683  1.0000
  C   C23       1.0  0.91330  0.77750  0.13317  1.0000
  C   C24       1.0  0.58670  0.22250  0.63317  1.0000
  C   C25       1.0  0.58070  0.17390  0.09681  1.0000
  C   C26       1.0  0.91930  0.82610  0.59681  1.0000
  C   C27       1.0  0.08070  0.32610  0.90319  1.0000
  C   C28       1.0  0.41930  0.67390  0.40319  1.0000
  C   C29       1.0  0.41930  0.82610  0.90319  1.0000
  C   C30       1.0  0.08070  0.17390  0.40319  1.0000
  C   C31       1.0  0.91930  0.67390  0.09681  1.0000
  C   C32       1.0  0.58070  0.32610  0.59681  1.0000
  O   O33       1.0  0.48797  0.32758  0.14391  1.0000
  O   O34       1.0  0.01203  0.67242  0.64391  1.0000
  O   O35       1.0  0.98797  0.17242  0.85609  1.0000
  O   O36       1.0  0.51203  0.82758  0.35609  1.0000
  O   O37       1.0  0.51203  0.67242  0.85609  1.0000
  O   O38       1.0  0.98797  0.32758  0.35609  1.0000
  O   O39       1.0  0.01203  0.82758  0.14391  1.0000
  O   O40       1.0  0.48797  0.17242  0.64391  1.0000
  O   O41       1.0  0.47911  0.15692  0.08012  1.0000
  O   O42       1.0  0.02089  0.84308  0.58012  1.0000
  O   O43       1.0  0.97911  0.34308  0.91988  1.0000
  O   O44       1.0  0.52089  0.65692  0.41988  1.0000
  O   O45       1.0  0.52089  0.84308  0.91988  1.0000
  O   O46       1.0  0.97911  0.15692  0.41988  1.0000
  O   O47       1.0  0.02089  0.65692  0.08012  1.0000
  O   O48       1.0  0.47911  0.34308  0.58012  1.0000
  O   O49       1.0  0.68416  0.30280  0.14939  1.0000
  O   O50       1.0  0.81584  0.69720  0.64939  1.0000
  O   O51       1.0  0.18416  0.19720  0.85061  1.0000
  O   O52       1.0  0.31584  0.80280  0.35061  1.0000
  O   O53       1.0  0.31584  0.69720  0.85061  1.0000
  O   O54       1.0  0.18416  0.30280  0.35061  1.0000
  O   O55       1.0  0.81584  0.80280  0.14939  1.0000
  O   O56       1.0  0.68416  0.19720  0.64939  1.0000
  O   O57       1.0  0.67143  0.11610  0.08591  1.0000
  O   O58       1.0  0.82857  0.88390  0.58591  1.0000
  O   O59       1.0  0.17143  0.38390  0.91409  1.0000
  O   O60       1.0  0.32857  0.61610  0.41409  1.0000
  O   O61       1.0  0.32857  0.88390  0.91409  1.0000
  O   O62       1.0  0.17143  0.11610  0.41409  1.0000
  O   O63       1.0  0.82857  0.61610  0.08591  1.0000
  O   O64       1.0  0.67143  0.38390  0.58591  1.0000
