data_image0
_chemical_formula_structural       Cu8N66C44
_chemical_formula_sum              "Cu8 N66 C44"
_cell_length_a       7.1911
_cell_length_b       55.05
_cell_length_c       11.7964
_cell_angle_alpha    90
_cell_angle_beta     99.166
_cell_angle_gamma    90

_space_group_name_H-M_alt    "P 1"
_space_group_IT_number       1

loop_
  _space_group_symop_operation_xyz
  'x, y, z'

loop_
  _atom_site_type_symbol
  _atom_site_label
  _atom_site_symmetry_multiplicity
  _atom_site_fract_x
  _atom_site_fract_y
  _atom_site_fract_z
  _atom_site_occupancy
  Cu  Cu1       1.0  0.64769  0.47118  0.41986  1.0000
  Cu  Cu2       1.0  0.35231  0.97118  0.58014  1.0000
  Cu  Cu3       1.0  0.79149  0.32061  0.42650  1.0000
  Cu  Cu4       1.0  0.20851  0.82061  0.57350  1.0000
  Cu  Cu5       1.0  0.72590  0.17268  0.40290  1.0000
  Cu  Cu6       1.0  0.27410  0.67268  0.59710  1.0000
  Cu  Cu7       1.0  0.55000  0.02282  0.39221  1.0000
  Cu  Cu8       1.0  0.45000  0.52282  0.60779  1.0000
  N   N1        1.0  0.63790  0.43377  0.36770  1.0000
  N   N2        1.0  0.36210  0.93377  0.63230  1.0000
  N   N3        1.0  0.55570  0.39158  0.31790  1.0000
  N   N4        1.0  0.44430  0.89158  0.68210  1.0000
  N   N5        1.0  0.71540  0.35410  0.37780  1.0000
  N   N6        1.0  0.28460  0.85410  0.62220  1.0000
  N   N7        1.0  0.85900  0.28638  0.46840  1.0000
  N   N8        1.0  0.14100  0.78638  0.53160  1.0000
  N   N9        1.0  0.95750  0.24510  0.47080  1.0000
  N   N10       1.0  0.04250  0.74510  0.52920  1.0000
  N   N11       1.0  0.81840  0.20565  0.42880  1.0000
  N   N12       1.0  0.18160  0.70565  0.57120  1.0000
  N   N13       1.0  0.63170  0.13948  0.36680  1.0000
  N   N14       1.0  0.36830  0.63948  0.63320  1.0000
  N   N15       1.0  0.45600  0.10307  0.30620  1.0000
  N   N16       1.0  0.54400  0.60307  0.69380  1.0000
  N   N17       1.0  0.53870  0.06037  0.33920  1.0000
  N   N18       1.0  0.46130  0.56037  0.66080  1.0000
  N   N19       1.0  0.42280  0.48201  0.31320  1.0000
  N   N20       1.0  0.57720  0.98201  0.68680  1.0000
  N   N21       1.0  0.09740  0.49110  0.22350  1.0000
  N   N22       1.0  0.90260  0.99110  0.77650  1.0000
  N   N23       1.0  0.81790  0.48321  0.31590  1.0000
  N   N24       1.0  0.18210  0.98321  0.68410  1.0000
  N   N25       1.0  0.87570  0.46804  0.53630  1.0000
  N   N26       1.0  0.12430  0.96804  0.46370  1.0000
  N   N27       1.0  0.19260  0.45262  0.60630  1.0000
  N   N28       1.0  0.80740  0.95262  0.39370  1.0000
  N   N29       1.0  0.47670  0.46686  0.53650  1.0000
  N   N30       1.0  0.52330  0.96686  0.46350  1.0000
  N   N31       1.0  0.54660  0.30934  0.35100  1.0000
  N   N32       1.0  0.45340  0.80934  0.64900  1.0000
  N   N33       1.0  0.24330  0.29264  0.27010  1.0000
  N   N34       1.0  0.75670  0.79264  0.72990  1.0000
  N   N35       1.0  0.93470  0.31248  0.23040  1.0000
  N   N36       1.0  0.06530  0.81248  0.76960  1.0000
  N   N37       1.0  0.04410  0.33139  0.49280  1.0000
  N   N38       1.0  0.95590  0.83139  0.50720  1.0000
  N   N39       1.0  0.34560  0.34832  0.58690  1.0000
  N   N40       1.0  0.65440  0.84832  0.41310  1.0000
  N   N41       1.0  0.65670  0.33014  0.60580  1.0000
  N   N42       1.0  0.34330  0.83014  0.39420  1.0000
  N   N43       1.0  0.48150  0.18461  0.32420  1.0000
  N   N44       1.0  0.51850  0.68461  0.67580  1.0000
  N   N45       1.0  0.17060  0.19810  0.23620  1.0000
  N   N46       1.0  0.82940  0.69810  0.76380  1.0000
  N   N47       1.0  0.87970  0.17554  0.19740  1.0000
  N   N48       1.0  0.12030  0.67554  0.80260  1.0000
  N   N49       1.0  0.97350  0.16004  0.47570  1.0000
  N   N50       1.0  0.02650  0.66004  0.52430  1.0000
  N   N51       1.0  0.27950  0.14769  0.57290  1.0000
  N   N52       1.0  0.72050  0.64769  0.42710  1.0000
  N   N53       1.0  0.57640  0.17055  0.59070  1.0000
  N   N54       1.0  0.42360  0.67055  0.40930  1.0000
  N   N55       1.0  0.32360  0.01258  0.28300  1.0000
  N   N56       1.0  0.67640  0.51258  0.71700  1.0000
  N   N57       1.0  0.99920  0.00211  0.19810  1.0000
  N   N58       1.0  0.00080  0.50211  0.80190  1.0000
  N   N59       1.0  0.72300  0.01011  0.29090  1.0000
  N   N60       1.0  0.27700  0.51011  0.70910  1.0000
  N   N61       1.0  0.77680  0.02645  0.51130  1.0000
  N   N62       1.0  0.22320  0.52645  0.48870  1.0000
  N   N63       1.0  0.09670  0.04063  0.58260  1.0000
  N   N64       1.0  0.90330  0.54063  0.41740  1.0000
  N   N65       1.0  0.38060  0.02692  0.50780  1.0000
  N   N66       1.0  0.61940  0.52692  0.49220  1.0000
  C   C1        1.0  0.60810  0.41336  0.34930  1.0000
  C   C2        1.0  0.39190  0.91336  0.65070  1.0000
  C   C3        1.0  0.64830  0.37204  0.35770  1.0000
  C   C4        1.0  0.35170  0.87204  0.64230  1.0000
  C   C5        1.0  0.89360  0.26678  0.46420  1.0000
  C   C6        1.0  0.10640  0.76678  0.53580  1.0000
  C   C7        1.0  0.87370  0.22546  0.44720  1.0000
  C   C8        1.0  0.12630  0.72546  0.55280  1.0000
  C   C9        1.0  0.55620  0.12153  0.34270  1.0000
  C   C10       1.0  0.44380  0.62153  0.65730  1.0000
  C   C11       1.0  0.50620  0.08041  0.33040  1.0000
  C   C12       1.0  0.49380  0.58041  0.66960  1.0000
  C   C13       1.0  0.26770  0.48638  0.27450  1.0000
  C   C14       1.0  0.73230  0.98638  0.72550  1.0000
  C   C15       1.0  0.95400  0.48680  0.27790  1.0000
  C   C16       1.0  0.04600  0.98680  0.72210  1.0000
  C   C17       1.0  0.02490  0.46189  0.56610  1.0000
  C   C18       1.0  0.97510  0.96189  0.43390  1.0000
  C   C19       1.0  0.34240  0.46064  0.56670  1.0000
  C   C20       1.0  0.65760  0.96064  0.43330  1.0000
  C   C21       1.0  0.39920  0.30339  0.31420  1.0000
  C   C22       1.0  0.60080  0.80339  0.68580  1.0000
  C   C23       1.0  0.08190  0.30510  0.24860  1.0000
  C   C24       1.0  0.91810  0.80510  0.75140  1.0000
  C   C25       1.0  0.19040  0.33819  0.53350  1.0000
  C   C26       1.0  0.80960  0.83819  0.46650  1.0000
  C   C27       1.0  0.50750  0.33781  0.59570  1.0000
  C   C28       1.0  0.49250  0.83781  0.40430  1.0000
  C   C29       1.0  0.33200  0.18941  0.28130  1.0000
  C   C30       1.0  0.66800  0.68941  0.71870  1.0000
  C   C31       1.0  0.02170  0.18430  0.21350  1.0000
  C   C32       1.0  0.97830  0.68430  0.78650  1.0000
  C   C33       1.0  0.11930  0.15526  0.51910  1.0000
  C   C34       1.0  0.88070  0.65526  0.48090  1.0000
  C   C35       1.0  0.43170  0.16042  0.58020  1.0000
  C   C36       1.0  0.56830  0.66042  0.41980  1.0000
  C   C37       1.0  0.16970  0.00838  0.24980  1.0000
  C   C38       1.0  0.83030  0.50838  0.75020  1.0000
  C   C39       1.0  0.85600  0.00703  0.25140  1.0000
  C   C40       1.0  0.14400  0.50703  0.74860  1.0000
  C   C41       1.0  0.92920  0.03327  0.53960  1.0000
  C   C42       1.0  0.07080  0.53327  0.46040  1.0000
  C   C43       1.0  0.24230  0.03287  0.53960  1.0000
  C   C44       1.0  0.75770  0.53287  0.46040  1.0000
