data_image0
_chemical_formula_structural       Cd16Br20N40H16N40H16C16
_chemical_formula_sum              "Cd16 Br20 N80 H32 C16"
_cell_length_a       12.724
_cell_length_b       13.439
_cell_length_c       23.509
_cell_angle_alpha    90
_cell_angle_beta     90
_cell_angle_gamma    90

_space_group_name_H-M_alt    "P 1"
_space_group_IT_number       1

loop_
  _space_group_symop_operation_xyz
  'x, y, z'

loop_
  _atom_site_type_symbol
  _atom_site_label
  _atom_site_symmetry_multiplicity
  _atom_site_fract_x
  _atom_site_fract_y
  _atom_site_fract_z
  _atom_site_occupancy
  Cd  Cd1       1.0  0.24150  0.89579  0.32624  1.0000
  Cd  Cd2       1.0  0.25850  0.60421  0.32624  1.0000
  Cd  Cd3       1.0  0.75850  0.39579  0.17376  1.0000
  Cd  Cd4       1.0  0.74150  0.10421  0.17376  1.0000
  Cd  Cd5       1.0  0.75850  0.10421  0.67376  1.0000
  Cd  Cd6       1.0  0.74150  0.39579  0.67376  1.0000
  Cd  Cd7       1.0  0.24150  0.60421  0.82624  1.0000
  Cd  Cd8       1.0  0.25850  0.89579  0.82624  1.0000
  Cd  Cd9       1.0  0.48545  0.01120  0.24601  1.0000
  Cd  Cd10      1.0  0.01455  0.48880  0.24601  1.0000
  Cd  Cd11      1.0  0.51455  0.51120  0.25399  1.0000
  Cd  Cd12      1.0  0.98545  0.98880  0.25399  1.0000
  Cd  Cd13      1.0  0.51455  0.98880  0.75399  1.0000
  Cd  Cd14      1.0  0.98545  0.51120  0.75399  1.0000
  Cd  Cd15      1.0  0.48545  0.48880  0.74601  1.0000
  Cd  Cd16      1.0  0.01455  0.01120  0.74601  1.0000
  Br  Br1       1.0  0.25000  0.75000  0.40580  1.0000
  Br  Br2       1.0  0.75000  0.25000  0.09420  1.0000
  Br  Br3       1.0  0.75000  0.25000  0.59420  1.0000
  Br  Br4       1.0  0.25000  0.75000  0.90580  1.0000
  Br  Br5       1.0  0.06884  0.99331  0.36447  1.0000
  Br  Br6       1.0  0.43116  0.50669  0.36447  1.0000
  Br  Br7       1.0  0.93116  0.49331  0.13553  1.0000
  Br  Br8       1.0  0.56884  0.00669  0.13553  1.0000
  Br  Br9       1.0  0.93116  0.00669  0.63553  1.0000
  Br  Br10      1.0  0.56884  0.49331  0.63553  1.0000
  Br  Br11      1.0  0.06884  0.50669  0.86447  1.0000
  Br  Br12      1.0  0.43116  0.99331  0.86447  1.0000
  Br  Br13      1.0  0.40360  0.01016  0.36002  1.0000
  Br  Br14      1.0  0.09640  0.48984  0.36002  1.0000
  Br  Br15      1.0  0.59640  0.51016  0.13998  1.0000
  Br  Br16      1.0  0.90360  0.98984  0.13998  1.0000
  Br  Br17      1.0  0.59640  0.98984  0.63998  1.0000
  Br  Br18      1.0  0.90360  0.51016  0.63998  1.0000
  Br  Br19      1.0  0.40360  0.48984  0.86002  1.0000
  Br  Br20      1.0  0.09640  0.01016  0.86002  1.0000
  N   N1        1.0  0.14650  0.04060  0.21910  1.0000
  N   N2        1.0  0.35350  0.45940  0.21910  1.0000
  N   N3        1.0  0.85350  0.54060  0.28090  1.0000
  N   N4        1.0  0.64650  0.95940  0.28090  1.0000
  N   N5        1.0  0.85350  0.95940  0.78090  1.0000
  N   N6        1.0  0.64650  0.54060  0.78090  1.0000
  N   N7        1.0  0.14650  0.45940  0.71910  1.0000
  N   N8        1.0  0.35350  0.04060  0.71910  1.0000
  N   N9        1.0  0.23540  0.00210  0.24050  1.0000
  N   N10       1.0  0.26460  0.49790  0.24050  1.0000
  N   N11       1.0  0.76460  0.50210  0.25950  1.0000
  N   N12       1.0  0.73540  0.99790  0.25950  1.0000
  N   N13       1.0  0.76460  0.99790  0.75950  1.0000
  N   N14       1.0  0.73540  0.50210  0.75950  1.0000
  N   N15       1.0  0.23540  0.49790  0.74050  1.0000
  N   N16       1.0  0.26460  0.00210  0.74050  1.0000
  N   N17       1.0  0.31540  0.05130  0.22080  1.0000
  N   N18       1.0  0.18460  0.44870  0.22080  1.0000
  N   N19       1.0  0.68460  0.55130  0.27920  1.0000
  N   N20       1.0  0.81540  0.94870  0.27920  1.0000
  N   N21       1.0  0.68460  0.94870  0.77920  1.0000
  N   N22       1.0  0.81540  0.55130  0.77920  1.0000
  N   N23       1.0  0.31540  0.44870  0.72080  1.0000
  N   N24       1.0  0.18460  0.05130  0.72080  1.0000
  N   N25       1.0  0.28290  0.12480  0.18600  1.0000
  N   N26       1.0  0.21710  0.37520  0.18600  1.0000
  N   N27       1.0  0.71710  0.62480  0.31400  1.0000
  N   N28       1.0  0.78290  0.87520  0.31400  1.0000
  N   N29       1.0  0.71710  0.87520  0.81400  1.0000
  N   N30       1.0  0.78290  0.62480  0.81400  1.0000
  N   N31       1.0  0.28290  0.37520  0.68600  1.0000
  N   N32       1.0  0.21710  0.12480  0.68600  1.0000
  N   N33       1.0  0.11280  0.17760  0.15460  1.0000
  N   N34       1.0  0.38720  0.32240  0.15460  1.0000
  N   N35       1.0  0.88720  0.67760  0.34540  1.0000
  N   N36       1.0  0.61280  0.82240  0.34540  1.0000
  N   N37       1.0  0.88720  0.82240  0.84540  1.0000
  N   N38       1.0  0.61280  0.67760  0.84540  1.0000
  N   N39       1.0  0.11280  0.32240  0.65460  1.0000
  N   N40       1.0  0.38720  0.17760  0.65460  1.0000
  H   H1        1.0  0.13890  0.22460  0.13430  1.0000
  H   H2        1.0  0.36110  0.27540  0.13430  1.0000
  H   H3        1.0  0.86110  0.72460  0.36570  1.0000
  H   H4        1.0  0.63890  0.77540  0.36570  1.0000
  H   H5        1.0  0.86110  0.77540  0.86570  1.0000
  H   H6        1.0  0.63890  0.72460  0.86570  1.0000
  H   H7        1.0  0.13890  0.27540  0.63430  1.0000
  H   H8        1.0  0.36110  0.22460  0.63430  1.0000
  H   H9        1.0  0.04590  0.16890  0.15580  1.0000
  H   H10       1.0  0.45410  0.33110  0.15580  1.0000
  H   H11       1.0  0.95410  0.66890  0.34420  1.0000
  H   H12       1.0  0.54590  0.83110  0.34420  1.0000
  H   H13       1.0  0.95410  0.83110  0.84420  1.0000
  H   H14       1.0  0.54590  0.66890  0.84420  1.0000
  H   H15       1.0  0.04590  0.33110  0.65580  1.0000
  H   H16       1.0  0.45410  0.16890  0.65580  1.0000
  N   N41       1.0  0.44970  0.84000  0.23960  1.0000
  N   N42       1.0  0.05030  0.66000  0.23960  1.0000
  N   N43       1.0  0.55030  0.34000  0.26040  1.0000
  N   N44       1.0  0.94970  0.16000  0.26040  1.0000
  N   N45       1.0  0.55030  0.16000  0.76040  1.0000
  N   N46       1.0  0.94970  0.34000  0.76040  1.0000
  N   N47       1.0  0.44970  0.66000  0.73960  1.0000
  N   N48       1.0  0.05030  0.84000  0.73960  1.0000
  N   N49       1.0  0.36920  0.80290  0.27070  1.0000
  N   N50       1.0  0.13080  0.69710  0.27070  1.0000
  N   N51       1.0  0.63080  0.30290  0.22930  1.0000
  N   N52       1.0  0.86920  0.19710  0.22930  1.0000
  N   N53       1.0  0.63080  0.19710  0.72930  1.0000
  N   N54       1.0  0.86920  0.30290  0.72930  1.0000
  N   N55       1.0  0.36920  0.69710  0.77070  1.0000
  N   N56       1.0  0.13080  0.80290  0.77070  1.0000
  N   N57       1.0  0.37790  0.70610  0.27400  1.0000
  N   N58       1.0  0.12210  0.79390  0.27400  1.0000
  N   N59       1.0  0.62210  0.20610  0.22600  1.0000
  N   N60       1.0  0.87790  0.29390  0.22600  1.0000
  N   N61       1.0  0.62210  0.29390  0.72600  1.0000
  N   N62       1.0  0.87790  0.20610  0.72600  1.0000
  N   N63       1.0  0.37790  0.79390  0.77400  1.0000
  N   N64       1.0  0.12210  0.70610  0.77400  1.0000
  N   N65       1.0  0.46470  0.67680  0.24540  1.0000
  N   N66       1.0  0.03530  0.82320  0.24540  1.0000
  N   N67       1.0  0.53530  0.17680  0.25460  1.0000
  N   N68       1.0  0.96470  0.32320  0.25460  1.0000
  N   N69       1.0  0.53530  0.32320  0.75460  1.0000
  N   N70       1.0  0.96470  0.17680  0.75460  1.0000
  N   N71       1.0  0.46470  0.82320  0.74540  1.0000
  N   N72       1.0  0.03530  0.67680  0.74540  1.0000
  N   N73       1.0  0.59780  0.76440  0.19430  1.0000
  N   N74       1.0  0.90220  0.73560  0.19430  1.0000
  N   N75       1.0  0.40220  0.26440  0.30570  1.0000
  N   N76       1.0  0.09780  0.23560  0.30570  1.0000
  N   N77       1.0  0.40220  0.23560  0.80570  1.0000
  N   N78       1.0  0.09780  0.26440  0.80570  1.0000
  N   N79       1.0  0.59780  0.73560  0.69430  1.0000
  N   N80       1.0  0.90220  0.76440  0.69430  1.0000
  H   H17       1.0  0.63200  0.71070  0.18700  1.0000
  H   H18       1.0  0.86800  0.78930  0.18700  1.0000
  H   H19       1.0  0.36800  0.21070  0.31300  1.0000
  H   H20       1.0  0.13200  0.28930  0.31300  1.0000
  H   H21       1.0  0.36800  0.28930  0.81300  1.0000
  H   H22       1.0  0.13200  0.21070  0.81300  1.0000
  H   H23       1.0  0.63200  0.78930  0.68700  1.0000
  H   H24       1.0  0.86800  0.71070  0.68700  1.0000
  H   H25       1.0  0.62090  0.82080  0.18230  1.0000
  H   H26       1.0  0.87910  0.67920  0.18230  1.0000
  H   H27       1.0  0.37910  0.32080  0.31770  1.0000
  H   H28       1.0  0.12090  0.17920  0.31770  1.0000
  H   H29       1.0  0.37910  0.17920  0.81770  1.0000
  H   H30       1.0  0.12090  0.32080  0.81770  1.0000
  H   H31       1.0  0.62090  0.67920  0.68230  1.0000
  H   H32       1.0  0.87910  0.82080  0.68230  1.0000
  C   C1        1.0  0.17860  0.11570  0.18570  1.0000
  C   C2        1.0  0.32140  0.38430  0.18570  1.0000
  C   C3        1.0  0.82140  0.61570  0.31430  1.0000
  C   C4        1.0  0.67860  0.88430  0.31430  1.0000
  C   C5        1.0  0.82140  0.88430  0.81430  1.0000
  C   C6        1.0  0.67860  0.61570  0.81430  1.0000
  C   C7        1.0  0.17860  0.38430  0.68570  1.0000
  C   C8        1.0  0.32140  0.11570  0.68570  1.0000
  C   C9        1.0  0.50740  0.76020  0.22480  1.0000
  C   C10       1.0  0.99260  0.73980  0.22480  1.0000
  C   C11       1.0  0.49260  0.26020  0.27520  1.0000
  C   C12       1.0  0.00740  0.23980  0.27520  1.0000
  C   C13       1.0  0.49260  0.23980  0.77520  1.0000
  C   C14       1.0  0.00740  0.26020  0.77520  1.0000
  C   C15       1.0  0.50740  0.73980  0.72480  1.0000
  C   C16       1.0  0.99260  0.76020  0.72480  1.0000
