data_image0
_chemical_formula_structural       Cd48Br40N40H16N40H16N40H16N40H16N40H16N40H16N40H16N40H16C64
_chemical_formula_sum              "Cd48 Br40 N320 H128 C64"
_cell_length_a       19.052
_cell_length_b       18.588
_cell_length_c       28.092
_cell_angle_alpha    90
_cell_angle_beta     90
_cell_angle_gamma    90

_space_group_name_H-M_alt    "P 1"
_space_group_IT_number       1

loop_
  _space_group_symop_operation_xyz
  'x, y, z'

loop_
  _atom_site_type_symbol
  _atom_site_label
  _atom_site_symmetry_multiplicity
  _atom_site_fract_x
  _atom_site_fract_y
  _atom_site_fract_z
  _atom_site_occupancy
  Cd  Cd1       1.0  0.76928  0.64123  0.58523  1.0000
  Cd  Cd2       1.0  0.73072  0.35877  0.08523  1.0000
  Cd  Cd3       1.0  0.23072  0.14123  0.91478  1.0000
  Cd  Cd4       1.0  0.26928  0.85877  0.41477  1.0000
  Cd  Cd5       1.0  0.23072  0.35877  0.41477  1.0000
  Cd  Cd6       1.0  0.26928  0.64123  0.91478  1.0000
  Cd  Cd7       1.0  0.76928  0.85877  0.08523  1.0000
  Cd  Cd8       1.0  0.73072  0.14123  0.58523  1.0000
  Cd  Cd9       1.0  0.85184  0.70594  0.46658  1.0000
  Cd  Cd10      1.0  0.64816  0.29406  0.96658  1.0000
  Cd  Cd11      1.0  0.14816  0.20594  0.03342  1.0000
  Cd  Cd12      1.0  0.35184  0.79406  0.53342  1.0000
  Cd  Cd13      1.0  0.14816  0.29406  0.53342  1.0000
  Cd  Cd14      1.0  0.35184  0.70594  0.03342  1.0000
  Cd  Cd15      1.0  0.85184  0.79406  0.96658  1.0000
  Cd  Cd16      1.0  0.64816  0.20594  0.46658  1.0000
  Cd  Cd17      1.0  0.77085  0.88288  0.41785  1.0000
  Cd  Cd18      1.0  0.72915  0.11712  0.91785  1.0000
  Cd  Cd19      1.0  0.22915  0.38288  0.08215  1.0000
  Cd  Cd20      1.0  0.27085  0.61712  0.58215  1.0000
  Cd  Cd21      1.0  0.22915  0.11712  0.58215  1.0000
  Cd  Cd22      1.0  0.27085  0.88288  0.08215  1.0000
  Cd  Cd23      1.0  0.77085  0.61712  0.91785  1.0000
  Cd  Cd24      1.0  0.72915  0.38288  0.41785  1.0000
  Cd  Cd25      1.0  0.67107  0.04729  0.36555  1.0000
  Cd  Cd26      1.0  0.82893  0.95271  0.86555  1.0000
  Cd  Cd27      1.0  0.32893  0.54729  0.13445  1.0000
  Cd  Cd28      1.0  0.17107  0.45271  0.63445  1.0000
  Cd  Cd29      1.0  0.32893  0.95271  0.63445  1.0000
  Cd  Cd30      1.0  0.17107  0.04729  0.13445  1.0000
  Cd  Cd31      1.0  0.67107  0.45271  0.86555  1.0000
  Cd  Cd32      1.0  0.82893  0.54729  0.36555  1.0000
  Cd  Cd33      1.0  0.76808  0.11833  0.25222  1.0000
  Cd  Cd34      1.0  0.73192  0.88167  0.75222  1.0000
  Cd  Cd35      1.0  0.23192  0.61833  0.24778  1.0000
  Cd  Cd36      1.0  0.26808  0.38167  0.74778  1.0000
  Cd  Cd37      1.0  0.23192  0.88167  0.74778  1.0000
  Cd  Cd38      1.0  0.26808  0.11833  0.24778  1.0000
  Cd  Cd39      1.0  0.76808  0.38167  0.75222  1.0000
  Cd  Cd40      1.0  0.73192  0.61833  0.25222  1.0000
  Cd  Cd41      1.0  0.85595  0.19178  0.13537  1.0000
  Cd  Cd42      1.0  0.64406  0.80822  0.63537  1.0000
  Cd  Cd43      1.0  0.14405  0.69178  0.36463  1.0000
  Cd  Cd44      1.0  0.35595  0.30822  0.86463  1.0000
  Cd  Cd45      1.0  0.14405  0.80822  0.86463  1.0000
  Cd  Cd46      1.0  0.35595  0.19178  0.36463  1.0000
  Cd  Cd47      1.0  0.85595  0.30822  0.63537  1.0000
  Cd  Cd48      1.0  0.64406  0.69178  0.13537  1.0000
  Br  Br1       1.0  0.90271  0.65915  0.55108  1.0000
  Br  Br2       1.0  0.59729  0.34085  0.05108  1.0000
  Br  Br3       1.0  0.09729  0.15915  0.94892  1.0000
  Br  Br4       1.0  0.40271  0.84085  0.44892  1.0000
  Br  Br5       1.0  0.09729  0.34085  0.44892  1.0000
  Br  Br6       1.0  0.40271  0.65915  0.94892  1.0000
  Br  Br7       1.0  0.90271  0.84085  0.05108  1.0000
  Br  Br8       1.0  0.59729  0.15915  0.55108  1.0000
  Br  Br9       1.0  0.90025  0.84263  0.45313  1.0000
  Br  Br10      1.0  0.59975  0.15737  0.95313  1.0000
  Br  Br11      1.0  0.09975  0.34263  0.04687  1.0000
  Br  Br12      1.0  0.40025  0.65737  0.54687  1.0000
  Br  Br13      1.0  0.09975  0.15737  0.54687  1.0000
  Br  Br14      1.0  0.40025  0.84263  0.04687  1.0000
  Br  Br15      1.0  0.90025  0.65737  0.95313  1.0000
  Br  Br16      1.0  0.59975  0.34263  0.45313  1.0000
  Br  Br17      1.0  0.63098  0.91267  0.38855  1.0000
  Br  Br18      1.0  0.86902  0.08733  0.88855  1.0000
  Br  Br19      1.0  0.36902  0.41267  0.11145  1.0000
  Br  Br20      1.0  0.13098  0.58733  0.61145  1.0000
  Br  Br21      1.0  0.36902  0.08733  0.61145  1.0000
  Br  Br22      1.0  0.13098  0.91267  0.11145  1.0000
  Br  Br23      1.0  0.63098  0.58733  0.88855  1.0000
  Br  Br24      1.0  0.86902  0.41267  0.38855  1.0000
  Br  Br25      1.0  0.63333  0.05921  0.27313  1.0000
  Br  Br26      1.0  0.86667  0.94079  0.77313  1.0000
  Br  Br27      1.0  0.36667  0.55921  0.22687  1.0000
  Br  Br28      1.0  0.13333  0.44079  0.72687  1.0000
  Br  Br29      1.0  0.36667  0.94079  0.72687  1.0000
  Br  Br30      1.0  0.13333  0.05921  0.22687  1.0000
  Br  Br31      1.0  0.63333  0.44079  0.77313  1.0000
  Br  Br32      1.0  0.86667  0.55921  0.27313  1.0000
  Br  Br33      1.0  0.89798  0.18033  0.22968  1.0000
  Br  Br34      1.0  0.60202  0.81966  0.72968  1.0000
  Br  Br35      1.0  0.10202  0.68034  0.27032  1.0000
  Br  Br36      1.0  0.39798  0.31966  0.77032  1.0000
  Br  Br37      1.0  0.10202  0.81966  0.77032  1.0000
  Br  Br38      1.0  0.39798  0.18033  0.27032  1.0000
  Br  Br39      1.0  0.89798  0.31966  0.72968  1.0000
  Br  Br40      1.0  0.60202  0.68034  0.22968  1.0000
  N   N1        1.0  0.78384  0.53852  0.63104  1.0000
  N   N2        1.0  0.71616  0.46148  0.13104  1.0000
  N   N3        1.0  0.21616  0.03852  0.86896  1.0000
  N   N4        1.0  0.28384  0.96148  0.36896  1.0000
  N   N5        1.0  0.21616  0.46148  0.36896  1.0000
  N   N6        1.0  0.28384  0.53852  0.86896  1.0000
  N   N7        1.0  0.78384  0.96148  0.13104  1.0000
  N   N8        1.0  0.71616  0.03852  0.63104  1.0000
  N   N9        1.0  0.81523  0.47873  0.61449  1.0000
  N   N10       1.0  0.68477  0.52127  0.11449  1.0000
  N   N11       1.0  0.18477  0.97873  0.88551  1.0000
  N   N12       1.0  0.31523  0.02127  0.38551  1.0000
  N   N13       1.0  0.18477  0.52127  0.38551  1.0000
  N   N14       1.0  0.31523  0.47873  0.88551  1.0000
  N   N15       1.0  0.81523  0.02127  0.11449  1.0000
  N   N16       1.0  0.68477  0.97873  0.61449  1.0000
  N   N17       1.0  0.81013  0.42837  0.64582  1.0000
  N   N18       1.0  0.68987  0.57163  0.14582  1.0000
  N   N19       1.0  0.18987  0.92837  0.85418  1.0000
  N   N20       1.0  0.31013  0.07163  0.35418  1.0000
  N   N21       1.0  0.18987  0.57163  0.35418  1.0000
  N   N22       1.0  0.31013  0.42837  0.85418  1.0000
  N   N23       1.0  0.81013  0.07163  0.14582  1.0000
  N   N24       1.0  0.68987  0.92837  0.64582  1.0000
  N   N25       1.0  0.77598  0.45297  0.68500  1.0000
  N   N26       1.0  0.72402  0.54703  0.18500  1.0000
  N   N27       1.0  0.22402  0.95297  0.81500  1.0000
  N   N28       1.0  0.27598  0.04703  0.31500  1.0000
  N   N29       1.0  0.22402  0.54703  0.31500  1.0000
  N   N30       1.0  0.27598  0.45297  0.81500  1.0000
  N   N31       1.0  0.77598  0.04703  0.18500  1.0000
  N   N32       1.0  0.72402  0.95297  0.68500  1.0000
  N   N33       1.0  0.72610  0.56666  0.70411  1.0000
  N   N34       1.0  0.77390  0.43334  0.20411  1.0000
  N   N35       1.0  0.27390  0.06666  0.79589  1.0000
  N   N36       1.0  0.22610  0.93334  0.29589  1.0000
  N   N37       1.0  0.27390  0.43334  0.29589  1.0000
  N   N38       1.0  0.22610  0.56666  0.79589  1.0000
  N   N39       1.0  0.72610  0.93334  0.20411  1.0000
  N   N40       1.0  0.77390  0.06666  0.70411  1.0000
  H   H1        1.0  0.71760  0.61010  0.69540  1.0000
  H   H2        1.0  0.78240  0.38990  0.19540  1.0000
  H   H3        1.0  0.28240  0.11010  0.80460  1.0000
  H   H4        1.0  0.21760  0.88990  0.30460  1.0000
  H   H5        1.0  0.28240  0.38990  0.30460  1.0000
  H   H6        1.0  0.21760  0.61010  0.80460  1.0000
  H   H7        1.0  0.71760  0.88990  0.19540  1.0000
  H   H8        1.0  0.78240  0.11010  0.69540  1.0000
  H   H9        1.0  0.71270  0.55190  0.73170  1.0000
  H   H10       1.0  0.78730  0.44810  0.23170  1.0000
  H   H11       1.0  0.28730  0.05190  0.76830  1.0000
  H   H12       1.0  0.21270  0.94810  0.26830  1.0000
  H   H13       1.0  0.28730  0.44810  0.26830  1.0000
  H   H14       1.0  0.21270  0.55190  0.76830  1.0000
  H   H15       1.0  0.71270  0.94810  0.23170  1.0000
  H   H16       1.0  0.78730  0.05190  0.73170  1.0000
  N   N41       1.0  0.69042  0.80663  0.55901  1.0000
  N   N42       1.0  0.80958  0.19337  0.05901  1.0000
  N   N43       1.0  0.30958  0.30663  0.94099  1.0000
  N   N44       1.0  0.19042  0.69337  0.44099  1.0000
  N   N45       1.0  0.30958  0.19337  0.44099  1.0000
  N   N46       1.0  0.19042  0.80663  0.94099  1.0000
  N   N47       1.0  0.69042  0.69337  0.05901  1.0000
  N   N48       1.0  0.80958  0.30663  0.55901  1.0000
  N   N49       1.0  0.73735  0.75566  0.54611  1.0000
  N   N50       1.0  0.76265  0.24434  0.04611  1.0000
  N   N51       1.0  0.26265  0.25566  0.95389  1.0000
  N   N52       1.0  0.23735  0.74434  0.45389  1.0000
  N   N53       1.0  0.26265  0.24434  0.45389  1.0000
  N   N54       1.0  0.23735  0.75566  0.95389  1.0000
  N   N55       1.0  0.73735  0.74434  0.04611  1.0000
  N   N56       1.0  0.76265  0.25566  0.54611  1.0000
  N   N57       1.0  0.75778  0.76703  0.50309  1.0000
  N   N58       1.0  0.74222  0.23297  0.00309  1.0000
  N   N59       1.0  0.24222  0.26703  0.99691  1.0000
  N   N60       1.0  0.25778  0.73297  0.49691  1.0000
  N   N61       1.0  0.24222  0.23297  0.49691  1.0000
  N   N62       1.0  0.25778  0.76703  0.99691  1.0000
  N   N63       1.0  0.75778  0.73297  0.00309  1.0000
  N   N64       1.0  0.74222  0.26703  0.50309  1.0000
  N   N65       1.0  0.72613  0.82676  0.48556  1.0000
  N   N66       1.0  0.77387  0.17324  0.98556  1.0000
  N   N67       1.0  0.27387  0.32676  0.01444  1.0000
  N   N68       1.0  0.22613  0.67324  0.51444  1.0000
  N   N69       1.0  0.27387  0.17324  0.51444  1.0000
  N   N70       1.0  0.22613  0.82676  0.01444  1.0000
  N   N71       1.0  0.72613  0.67324  0.98556  1.0000
  N   N72       1.0  0.77387  0.32676  0.48556  1.0000
  N   N73       1.0  0.64081  0.90698  0.51735  1.0000
  N   N74       1.0  0.85919  0.09302  0.01735  1.0000
  N   N75       1.0  0.35919  0.40698  0.98265  1.0000
  N   N76       1.0  0.14081  0.59302  0.48265  1.0000
  N   N77       1.0  0.35919  0.09302  0.48265  1.0000
  N   N78       1.0  0.14081  0.90698  0.98265  1.0000
  N   N79       1.0  0.64081  0.59302  0.01735  1.0000
  N   N80       1.0  0.85919  0.40698  0.51735  1.0000
  H   H17       1.0  0.63880  0.93130  0.49140  1.0000
  H   H18       1.0  0.86120  0.06870  0.99140  1.0000
  H   H19       1.0  0.36120  0.43130  0.00860  1.0000
  H   H20       1.0  0.13880  0.56870  0.50860  1.0000
  H   H21       1.0  0.36120  0.06870  0.50860  1.0000
  H   H22       1.0  0.13880  0.93130  0.00860  1.0000
  H   H23       1.0  0.63880  0.56870  0.99140  1.0000
  H   H24       1.0  0.86120  0.43130  0.49140  1.0000
  H   H25       1.0  0.61520  0.91900  0.54130  1.0000
  H   H26       1.0  0.88480  0.08100  0.04130  1.0000
  H   H27       1.0  0.38480  0.41900  0.95870  1.0000
  H   H28       1.0  0.11520  0.58100  0.45870  1.0000
  H   H29       1.0  0.38480  0.08100  0.45870  1.0000
  H   H30       1.0  0.11520  0.91900  0.95870  1.0000
  H   H31       1.0  0.61520  0.58100  0.04130  1.0000
  H   H32       1.0  0.88480  0.41900  0.54130  1.0000
  N   N81       1.0  0.93306  0.59591  0.39326  1.0000
  N   N82       1.0  0.56694  0.40409  0.89326  1.0000
  N   N83       1.0  0.06694  0.09591  0.10674  1.0000
  N   N84       1.0  0.43306  0.90409  0.60674  1.0000
  N   N85       1.0  0.06694  0.40409  0.60674  1.0000
  N   N86       1.0  0.43306  0.59591  0.10674  1.0000
  N   N87       1.0  0.93306  0.90409  0.89326  1.0000
  N   N88       1.0  0.56694  0.09591  0.39326  1.0000
  N   N89       1.0  0.93649  0.65662  0.41921  1.0000
  N   N90       1.0  0.56351  0.34338  0.91921  1.0000
  N   N91       1.0  0.06351  0.15662  0.08079  1.0000
  N   N92       1.0  0.43649  0.84338  0.58079  1.0000
  N   N93       1.0  0.06351  0.34338  0.58079  1.0000
  N   N94       1.0  0.43649  0.65662  0.08079  1.0000
  N   N95       1.0  0.93649  0.84338  0.91921  1.0000
  N   N96       1.0  0.56351  0.15662  0.41921  1.0000
  N   N97       1.0  0.99940  0.68312  0.41826  1.0000
  N   N98       1.0  0.50060  0.31688  0.91826  1.0000
  N   N99       1.0  0.00060  0.18312  0.08174  1.0000
  N   N100      1.0  0.49940  0.81688  0.58174  1.0000
  N   N101      1.0  0.00060  0.31688  0.58174  1.0000
  N   N102      1.0  0.49940  0.68312  0.08174  1.0000
  N   N103      1.0  0.99940  0.81688  0.91826  1.0000
  N   N104      1.0  0.50060  0.18312  0.41826  1.0000
  N   N105      1.0  0.03976  0.64032  0.39129  1.0000
  N   N106      1.0  0.46024  0.35968  0.89129  1.0000
  N   N107      1.0  0.96024  0.14032  0.10871  1.0000
  N   N108      1.0  0.53976  0.85968  0.60871  1.0000
  N   N109      1.0  0.96024  0.35968  0.60871  1.0000
  N   N110      1.0  0.53976  0.64032  0.10871  1.0000
  N   N111      1.0  0.03976  0.85968  0.89129  1.0000
  N   N112      1.0  0.46024  0.14032  0.39129  1.0000
  N   N113      1.0  0.01910  0.53093  0.34898  1.0000
  N   N114      1.0  0.48090  0.46907  0.84898  1.0000
  N   N115      1.0  0.98090  0.03093  0.15102  1.0000
  N   N116      1.0  0.51910  0.96907  0.65102  1.0000
  N   N117      1.0  0.98090  0.46907  0.65102  1.0000
  N   N118      1.0  0.51910  0.53093  0.15102  1.0000
  N   N119      1.0  0.01910  0.96907  0.84898  1.0000
  N   N120      1.0  0.48090  0.03093  0.34898  1.0000
  H   H33       1.0  0.98950  0.49820  0.34090  1.0000
  H   H34       1.0  0.51050  0.50180  0.84090  1.0000
  H   H35       1.0  0.01050  0.99820  0.15910  1.0000
  H   H36       1.0  0.48950  0.00180  0.65910  1.0000
  H   H37       1.0  0.01050  0.50180  0.65910  1.0000
  H   H38       1.0  0.48950  0.49820  0.15910  1.0000
  H   H39       1.0  0.98950  0.00180  0.84090  1.0000
  H   H40       1.0  0.51050  0.99820  0.34090  1.0000
  H   H41       1.0  0.06200  0.52830  0.33950  1.0000
  H   H42       1.0  0.43800  0.47170  0.83950  1.0000
  H   H43       1.0  0.93800  0.02830  0.16050  1.0000
  H   H44       1.0  0.56200  0.97170  0.66050  1.0000
  H   H45       1.0  0.93800  0.47170  0.66050  1.0000
  H   H46       1.0  0.56200  0.52830  0.16050  1.0000
  H   H47       1.0  0.06200  0.97170  0.83950  1.0000
  H   H48       1.0  0.43800  0.02830  0.33950  1.0000
  N   N121      1.0  0.76598  0.99437  0.45882  1.0000
  N   N122      1.0  0.73402  0.00563  0.95882  1.0000
  N   N123      1.0  0.23402  0.49437  0.04118  1.0000
  N   N124      1.0  0.26598  0.50563  0.54118  1.0000
  N   N125      1.0  0.23402  0.00563  0.54118  1.0000
  N   N126      1.0  0.26598  0.99437  0.04118  1.0000
  N   N127      1.0  0.76598  0.50563  0.95882  1.0000
  N   N128      1.0  0.73402  0.49437  0.45882  1.0000
  N   N129      1.0  0.72651  0.04917  0.44169  1.0000
  N   N130      1.0  0.77349  0.95083  0.94169  1.0000
  N   N131      1.0  0.27349  0.54917  0.05831  1.0000
  N   N132      1.0  0.22651  0.45083  0.55831  1.0000
  N   N133      1.0  0.27349  0.95083  0.55831  1.0000
  N   N134      1.0  0.22651  0.04917  0.05831  1.0000
  N   N135      1.0  0.72651  0.45083  0.94169  1.0000
  N   N136      1.0  0.77349  0.54917  0.44169  1.0000
  N   N137      1.0  0.71914  0.09804  0.47363  1.0000
  N   N138      1.0  0.78086  0.90196  0.97363  1.0000
  N   N139      1.0  0.28086  0.59804  0.02637  1.0000
  N   N140      1.0  0.21914  0.40196  0.52637  1.0000
  N   N141      1.0  0.28086  0.90196  0.52637  1.0000
  N   N142      1.0  0.21914  0.09804  0.02637  1.0000
  N   N143      1.0  0.71914  0.40196  0.97363  1.0000
  N   N144      1.0  0.78086  0.59804  0.47363  1.0000
  N   N145      1.0  0.75311  0.07838  0.51390  1.0000
  N   N146      1.0  0.74689  0.92162  0.01390  1.0000
  N   N147      1.0  0.24689  0.57838  0.98610  1.0000
  N   N148      1.0  0.25311  0.42162  0.48610  1.0000
  N   N149      1.0  0.24689  0.92162  0.48610  1.0000
  N   N150      1.0  0.25311  0.07838  0.98610  1.0000
  N   N151      1.0  0.75311  0.42162  0.01390  1.0000
  N   N152      1.0  0.74689  0.57838  0.51390  1.0000
  N   N153      1.0  0.82002  0.97361  0.53403  1.0000
  N   N154      1.0  0.67998  0.02639  0.03403  1.0000
  N   N155      1.0  0.17998  0.47361  0.96597  1.0000
  N   N156      1.0  0.32002  0.52639  0.46597  1.0000
  N   N157      1.0  0.17998  0.02639  0.46597  1.0000
  N   N158      1.0  0.32002  0.97361  0.96597  1.0000
  N   N159      1.0  0.82002  0.52639  0.03403  1.0000
  N   N160      1.0  0.67998  0.47361  0.53403  1.0000
  H   H49       1.0  0.83650  0.93260  0.52520  1.0000
  H   H50       1.0  0.66350  0.06740  0.02520  1.0000
  H   H51       1.0  0.16350  0.43260  0.97480  1.0000
  H   H52       1.0  0.33650  0.56740  0.47480  1.0000
  H   H53       1.0  0.16350  0.06740  0.47480  1.0000
  H   H54       1.0  0.33650  0.93260  0.97480  1.0000
  H   H55       1.0  0.83650  0.56740  0.02520  1.0000
  H   H56       1.0  0.66350  0.43260  0.52520  1.0000
  H   H57       1.0  0.82810  0.98920  0.56230  1.0000
  H   H58       1.0  0.67190  0.01080  0.06230  1.0000
  H   H59       1.0  0.17190  0.48920  0.93770  1.0000
  H   H60       1.0  0.32810  0.51080  0.43770  1.0000
  H   H61       1.0  0.17190  0.01080  0.43770  1.0000
  H   H62       1.0  0.32810  0.98920  0.93770  1.0000
  H   H63       1.0  0.82810  0.51080  0.06230  1.0000
  H   H64       1.0  0.67190  0.48920  0.56230  1.0000
  N   N161      1.0  0.87232  0.93387  0.32813  1.0000
  N   N162      1.0  0.62768  0.06613  0.82813  1.0000
  N   N163      1.0  0.12768  0.43387  0.17187  1.0000
  N   N164      1.0  0.37232  0.56613  0.67187  1.0000
  N   N165      1.0  0.12768  0.06613  0.67187  1.0000
  N   N166      1.0  0.37232  0.93387  0.17187  1.0000
  N   N167      1.0  0.87232  0.56613  0.82813  1.0000
  N   N168      1.0  0.62768  0.43387  0.32813  1.0000
  N   N169      1.0  0.81346  0.94634  0.35296  1.0000
  N   N170      1.0  0.68654  0.05366  0.85296  1.0000
  N   N171      1.0  0.18654  0.44634  0.14704  1.0000
  N   N172      1.0  0.31346  0.55366  0.64704  1.0000
  N   N173      1.0  0.18654  0.05366  0.64704  1.0000
  N   N174      1.0  0.31346  0.94634  0.14704  1.0000
  N   N175      1.0  0.81346  0.55366  0.85296  1.0000
  N   N176      1.0  0.68654  0.44634  0.35296  1.0000
  N   N177      1.0  0.78136  0.00279  0.33664  1.0000
  N   N178      1.0  0.71864  0.99721  0.83664  1.0000
  N   N179      1.0  0.21864  0.50279  0.16336  1.0000
  N   N180      1.0  0.28136  0.49721  0.66336  1.0000
  N   N181      1.0  0.21864  0.99721  0.66336  1.0000
  N   N182      1.0  0.28136  0.00279  0.16336  1.0000
  N   N183      1.0  0.78136  0.49721  0.83664  1.0000
  N   N184      1.0  0.71864  0.50279  0.33664  1.0000
  N   N185      1.0  0.81766  0.02970  0.29982  1.0000
  N   N186      1.0  0.68234  0.97030  0.79982  1.0000
  N   N187      1.0  0.18234  0.52970  0.20018  1.0000
  N   N188      1.0  0.31766  0.47030  0.70018  1.0000
  N   N189      1.0  0.18234  0.97030  0.70018  1.0000
  N   N190      1.0  0.31766  0.02970  0.20018  1.0000
  N   N191      1.0  0.81766  0.47030  0.79982  1.0000
  N   N192      1.0  0.68234  0.52970  0.29982  1.0000
  N   N193      1.0  0.92526  0.99502  0.26322  1.0000
  N   N194      1.0  0.57474  0.00498  0.76322  1.0000
  N   N195      1.0  0.07474  0.49502  0.23678  1.0000
  N   N196      1.0  0.42526  0.50498  0.73678  1.0000
  N   N197      1.0  0.07474  0.00498  0.73678  1.0000
  N   N198      1.0  0.42526  0.99502  0.23678  1.0000
  N   N199      1.0  0.92526  0.50498  0.76322  1.0000
  N   N200      1.0  0.57474  0.49502  0.26322  1.0000
  H   H65       1.0  0.92350  0.02990  0.24310  1.0000
  H   H66       1.0  0.57650  0.97010  0.74310  1.0000
  H   H67       1.0  0.07650  0.52990  0.25690  1.0000
  H   H68       1.0  0.42350  0.47010  0.75690  1.0000
  H   H69       1.0  0.07650  0.97010  0.75690  1.0000
  H   H70       1.0  0.42350  0.02990  0.25690  1.0000
  H   H71       1.0  0.92350  0.47010  0.74310  1.0000
  H   H72       1.0  0.57650  0.52990  0.24310  1.0000
  H   H73       1.0  0.95990  0.96540  0.26260  1.0000
  H   H74       1.0  0.54010  0.03460  0.76260  1.0000
  H   H75       1.0  0.04010  0.46540  0.23740  1.0000
  H   H76       1.0  0.45990  0.53460  0.73740  1.0000
  H   H77       1.0  0.04010  0.03460  0.73740  1.0000
  H   H78       1.0  0.45990  0.96540  0.23740  1.0000
  H   H79       1.0  0.95990  0.53460  0.76260  1.0000
  H   H80       1.0  0.54010  0.46540  0.26260  1.0000
  N   N201      1.0  0.73777  0.27880  0.37250  1.0000
  N   N202      1.0  0.76223  0.72120  0.87250  1.0000
  N   N203      1.0  0.26223  0.77880  0.12750  1.0000
  N   N204      1.0  0.23777  0.22120  0.62750  1.0000
  N   N205      1.0  0.26223  0.72120  0.62750  1.0000
  N   N206      1.0  0.23777  0.27880  0.12750  1.0000
  N   N207      1.0  0.73777  0.22120  0.87250  1.0000
  N   N208      1.0  0.76223  0.77880  0.37250  1.0000
  N   N209      1.0  0.71125  0.21714  0.39043  1.0000
  N   N210      1.0  0.78875  0.78286  0.89043  1.0000
  N   N211      1.0  0.28875  0.71714  0.10957  1.0000
  N   N212      1.0  0.21125  0.28286  0.60957  1.0000
  N   N213      1.0  0.28875  0.78286  0.60957  1.0000
  N   N214      1.0  0.21125  0.21714  0.10957  1.0000
  N   N215      1.0  0.71125  0.28286  0.89043  1.0000
  N   N216      1.0  0.78875  0.71714  0.39043  1.0000
  N   N217      1.0  0.71987  0.16567  0.35958  1.0000
  N   N218      1.0  0.78013  0.83433  0.85958  1.0000
  N   N219      1.0  0.28013  0.66567  0.14042  1.0000
  N   N220      1.0  0.21987  0.33433  0.64042  1.0000
  N   N221      1.0  0.28013  0.83433  0.64042  1.0000
  N   N222      1.0  0.21987  0.16567  0.14042  1.0000
  N   N223      1.0  0.71987  0.33433  0.85958  1.0000
  N   N224      1.0  0.78013  0.66567  0.35958  1.0000
  N   N225      1.0  0.75187  0.19148  0.32062  1.0000
  N   N226      1.0  0.74813  0.80852  0.82062  1.0000
  N   N227      1.0  0.24813  0.69148  0.17938  1.0000
  N   N228      1.0  0.25187  0.30852  0.67938  1.0000
  N   N229      1.0  0.24813  0.80852  0.67938  1.0000
  N   N230      1.0  0.25187  0.19148  0.17938  1.0000
  N   N231      1.0  0.75187  0.30852  0.82062  1.0000
  N   N232      1.0  0.74813  0.69148  0.32062  1.0000
  N   N233      1.0  0.79271  0.30806  0.29857  1.0000
  N   N234      1.0  0.70729  0.69194  0.79857  1.0000
  N   N235      1.0  0.20729  0.80806  0.20143  1.0000
  N   N236      1.0  0.29271  0.19194  0.70143  1.0000
  N   N237      1.0  0.20729  0.69194  0.70143  1.0000
  N   N238      1.0  0.29271  0.30806  0.20143  1.0000
  N   N239      1.0  0.79271  0.19194  0.79857  1.0000
  N   N240      1.0  0.70729  0.80806  0.29857  1.0000
  H   H81       1.0  0.80630  0.29350  0.27100  1.0000
  H   H82       1.0  0.69370  0.70650  0.77100  1.0000
  H   H83       1.0  0.19370  0.79350  0.22900  1.0000
  H   H84       1.0  0.30630  0.20650  0.72900  1.0000
  H   H85       1.0  0.19370  0.70650  0.72900  1.0000
  H   H86       1.0  0.30630  0.29350  0.22900  1.0000
  H   H87       1.0  0.80630  0.20650  0.77100  1.0000
  H   H88       1.0  0.69370  0.79350  0.27100  1.0000
  H   H89       1.0  0.79820  0.35240  0.30660  1.0000
  H   H90       1.0  0.70180  0.64760  0.80660  1.0000
  H   H91       1.0  0.20180  0.85240  0.19340  1.0000
  H   H92       1.0  0.29820  0.14760  0.69340  1.0000
  H   H93       1.0  0.20180  0.64760  0.69340  1.0000
  H   H94       1.0  0.29820  0.35240  0.19340  1.0000
  H   H95       1.0  0.79820  0.14760  0.80660  1.0000
  H   H96       1.0  0.70180  0.85240  0.30660  1.0000
  N   N241      1.0  0.71655  0.21002  0.20920  1.0000
  N   N242      1.0  0.78345  0.78998  0.70920  1.0000
  N   N243      1.0  0.28345  0.71002  0.29080  1.0000
  N   N244      1.0  0.21655  0.28998  0.79080  1.0000
  N   N245      1.0  0.28345  0.78998  0.79080  1.0000
  N   N246      1.0  0.21655  0.21002  0.29080  1.0000
  N   N247      1.0  0.71655  0.28998  0.70920  1.0000
  N   N248      1.0  0.78345  0.71002  0.20920  1.0000
  N   N249      1.0  0.74540  0.23365  0.16818  1.0000
  N   N250      1.0  0.75460  0.76635  0.66818  1.0000
  N   N251      1.0  0.25460  0.73365  0.33182  1.0000
  N   N252      1.0  0.24540  0.26635  0.83182  1.0000
  N   N253      1.0  0.25460  0.76635  0.83182  1.0000
  N   N254      1.0  0.24540  0.23365  0.33182  1.0000
  N   N255      1.0  0.74540  0.26635  0.66818  1.0000
  N   N256      1.0  0.75460  0.73365  0.16818  1.0000
  N   N257      1.0  0.70856  0.28753  0.15252  1.0000
  N   N258      1.0  0.79144  0.71247  0.65252  1.0000
  N   N259      1.0  0.29144  0.78753  0.34748  1.0000
  N   N260      1.0  0.20856  0.21247  0.84748  1.0000
  N   N261      1.0  0.29144  0.71247  0.84748  1.0000
  N   N262      1.0  0.20856  0.28753  0.34748  1.0000
  N   N263      1.0  0.70856  0.21247  0.65252  1.0000
  N   N264      1.0  0.79144  0.78753  0.15252  1.0000
  N   N265      1.0  0.65418  0.30134  0.18166  1.0000
  N   N266      1.0  0.84582  0.69866  0.68166  1.0000
  N   N267      1.0  0.34582  0.80134  0.31834  1.0000
  N   N268      1.0  0.15418  0.19866  0.81834  1.0000
  N   N269      1.0  0.34582  0.69866  0.81834  1.0000
  N   N270      1.0  0.15418  0.30134  0.31834  1.0000
  N   N271      1.0  0.65418  0.19866  0.68166  1.0000
  N   N272      1.0  0.84582  0.80134  0.18166  1.0000
  N   N273      1.0  0.61583  0.24688  0.25367  1.0000
  N   N274      1.0  0.88417  0.75312  0.75367  1.0000
  N   N275      1.0  0.38417  0.74688  0.24633  1.0000
  N   N276      1.0  0.11583  0.25312  0.74633  1.0000
  N   N277      1.0  0.38417  0.75312  0.74633  1.0000
  N   N278      1.0  0.11583  0.24688  0.24633  1.0000
  N   N279      1.0  0.61583  0.25312  0.75367  1.0000
  N   N280      1.0  0.88417  0.74688  0.25367  1.0000
  H   H97       1.0  0.58120  0.27620  0.25630  1.0000
  H   H98       1.0  0.91880  0.72380  0.75630  1.0000
  H   H99       1.0  0.41880  0.77620  0.24370  1.0000
  H   H100      1.0  0.08120  0.22380  0.74370  1.0000
  H   H101      1.0  0.41880  0.72380  0.74370  1.0000
  H   H102      1.0  0.08120  0.27620  0.24370  1.0000
  H   H103      1.0  0.58120  0.22380  0.75630  1.0000
  H   H104      1.0  0.91880  0.77620  0.25630  1.0000
  H   H105      1.0  0.62230  0.21410  0.27480  1.0000
  H   H106      1.0  0.87770  0.78590  0.77480  1.0000
  H   H107      1.0  0.37770  0.71410  0.22520  1.0000
  H   H108      1.0  0.12230  0.28590  0.72520  1.0000
  H   H109      1.0  0.37770  0.78590  0.72520  1.0000
  H   H110      1.0  0.12230  0.21410  0.22520  1.0000
  H   H111      1.0  0.62230  0.28590  0.77480  1.0000
  H   H112      1.0  0.87770  0.71410  0.27480  1.0000
  N   N281      1.0  0.89066  0.31198  0.12681  1.0000
  N   N282      1.0  0.60934  0.68802  0.62681  1.0000
  N   N283      1.0  0.10934  0.81198  0.37319  1.0000
  N   N284      1.0  0.39066  0.18802  0.87319  1.0000
  N   N285      1.0  0.10934  0.68802  0.87319  1.0000
  N   N286      1.0  0.39066  0.31198  0.37319  1.0000
  N   N287      1.0  0.89066  0.18802  0.62681  1.0000
  N   N288      1.0  0.60934  0.81198  0.12681  1.0000
  N   N289      1.0  0.85202  0.35828  0.10651  1.0000
  N   N290      1.0  0.64798  0.64172  0.60651  1.0000
  N   N291      1.0  0.14798  0.85828  0.39349  1.0000
  N   N292      1.0  0.35202  0.14172  0.89349  1.0000
  N   N293      1.0  0.14798  0.64172  0.89349  1.0000
  N   N294      1.0  0.35202  0.35828  0.39349  1.0000
  N   N295      1.0  0.85202  0.14172  0.60651  1.0000
  N   N296      1.0  0.64798  0.85828  0.10651  1.0000
  N   N297      1.0  0.88185  0.42192  0.10503  1.0000
  N   N298      1.0  0.61815  0.57808  0.60503  1.0000
  N   N299      1.0  0.11815  0.92192  0.39497  1.0000
  N   N300      1.0  0.38185  0.07808  0.89497  1.0000
  N   N301      1.0  0.11815  0.57808  0.89497  1.0000
  N   N302      1.0  0.38185  0.42192  0.39497  1.0000
  N   N303      1.0  0.88185  0.07808  0.60503  1.0000
  N   N304      1.0  0.61815  0.92192  0.10503  1.0000
  N   N305      1.0  0.94506  0.41621  0.12533  1.0000
  N   N306      1.0  0.55494  0.58379  0.62533  1.0000
  N   N307      1.0  0.05494  0.91621  0.37467  1.0000
  N   N308      1.0  0.44506  0.08379  0.87467  1.0000
  N   N309      1.0  0.05494  0.58379  0.87467  1.0000
  N   N310      1.0  0.44506  0.41621  0.37467  1.0000
  N   N311      1.0  0.94506  0.08379  0.62533  1.0000
  N   N312      1.0  0.55494  0.91621  0.12533  1.0000
  N   N313      1.0  0.00535  0.32001  0.16352  1.0000
  N   N314      1.0  0.49465  0.67999  0.66352  1.0000
  N   N315      1.0  0.99465  0.82001  0.33648  1.0000
  N   N316      1.0  0.50535  0.17999  0.83648  1.0000
  N   N317      1.0  0.99465  0.67999  0.83648  1.0000
  N   N318      1.0  0.50535  0.32001  0.33648  1.0000
  N   N319      1.0  0.00535  0.17999  0.66352  1.0000
  N   N320      1.0  0.49465  0.82001  0.16352  1.0000
  H   H113      1.0  0.03980  0.34760  0.17130  1.0000
  H   H114      1.0  0.46020  0.65240  0.67130  1.0000
  H   H115      1.0  0.96020  0.84760  0.32870  1.0000
  H   H116      1.0  0.53980  0.15240  0.82870  1.0000
  H   H117      1.0  0.96020  0.65240  0.82870  1.0000
  H   H118      1.0  0.53980  0.34760  0.32870  1.0000
  H   H119      1.0  0.03980  0.15240  0.67130  1.0000
  H   H120      1.0  0.46020  0.84760  0.17130  1.0000
  H   H121      1.0  0.00600  0.27530  0.17140  1.0000
  H   H122      1.0  0.49400  0.72470  0.67140  1.0000
  H   H123      1.0  0.99400  0.77530  0.32860  1.0000
  H   H124      1.0  0.50600  0.22470  0.82860  1.0000
  H   H125      1.0  0.99400  0.72470  0.82860  1.0000
  H   H126      1.0  0.50600  0.27530  0.32860  1.0000
  H   H127      1.0  0.00600  0.22470  0.67140  1.0000
  H   H128      1.0  0.49400  0.77530  0.17140  1.0000
  C   C1        1.0  0.76072  0.52131  0.67442  1.0000
  C   C2        1.0  0.73928  0.47869  0.17442  1.0000
  C   C3        1.0  0.23928  0.02131  0.82558  1.0000
  C   C4        1.0  0.26072  0.97869  0.32558  1.0000
  C   C5        1.0  0.23928  0.47869  0.32558  1.0000
  C   C6        1.0  0.26072  0.52131  0.82558  1.0000
  C   C7        1.0  0.76072  0.97869  0.17442  1.0000
  C   C8        1.0  0.73928  0.02131  0.67442  1.0000
  C   C9        1.0  0.68431  0.84971  0.52065  1.0000
  C   C10       1.0  0.81569  0.15029  0.02065  1.0000
  C   C11       1.0  0.31569  0.34971  0.97935  1.0000
  C   C12       1.0  0.18431  0.65029  0.47935  1.0000
  C   C13       1.0  0.31569  0.15029  0.47935  1.0000
  C   C14       1.0  0.18431  0.84971  0.97935  1.0000
  C   C15       1.0  0.68431  0.65029  0.02065  1.0000
  C   C16       1.0  0.81569  0.34971  0.52065  1.0000
  C   C17       1.0  0.99832  0.58641  0.37656  1.0000
  C   C18       1.0  0.50168  0.41359  0.87656  1.0000
  C   C19       1.0  0.00168  0.08641  0.12344  1.0000
  C   C20       1.0  0.49832  0.91359  0.62344  1.0000
  C   C21       1.0  0.00168  0.41359  0.62344  1.0000
  C   C22       1.0  0.49832  0.58641  0.12344  1.0000
  C   C23       1.0  0.99832  0.91359  0.87656  1.0000
  C   C24       1.0  0.50168  0.08641  0.37656  1.0000
  C   C25       1.0  0.78129  0.01373  0.50322  1.0000
  C   C26       1.0  0.71871  0.98627  0.00322  1.0000
  C   C27       1.0  0.21871  0.51373  0.99678  1.0000
  C   C28       1.0  0.28129  0.48627  0.49678  1.0000
  C   C29       1.0  0.21871  0.98627  0.49678  1.0000
  C   C30       1.0  0.28129  0.01373  0.99678  1.0000
  C   C31       1.0  0.78129  0.48627  0.00322  1.0000
  C   C32       1.0  0.71871  0.51373  0.50322  1.0000
  C   C33       1.0  0.87362  0.98679  0.29579  1.0000
  C   C34       1.0  0.62638  0.01321  0.79579  1.0000
  C   C35       1.0  0.12638  0.48679  0.20421  1.0000
  C   C36       1.0  0.37362  0.51321  0.70421  1.0000
  C   C37       1.0  0.12638  0.01321  0.70421  1.0000
  C   C38       1.0  0.37362  0.98679  0.20421  1.0000
  C   C39       1.0  0.87362  0.51321  0.79579  1.0000
  C   C40       1.0  0.62638  0.48679  0.29579  1.0000
  C   C41       1.0  0.76280  0.26117  0.32937  1.0000
  C   C42       1.0  0.73720  0.73883  0.82937  1.0000
  C   C43       1.0  0.23720  0.76117  0.17063  1.0000
  C   C44       1.0  0.26280  0.23883  0.67063  1.0000
  C   C45       1.0  0.23720  0.73883  0.67063  1.0000
  C   C46       1.0  0.26280  0.26117  0.17063  1.0000
  C   C47       1.0  0.76280  0.23883  0.82937  1.0000
  C   C48       1.0  0.73720  0.76117  0.32937  1.0000
  C   C49       1.0  0.66056  0.25230  0.21583  1.0000
  C   C50       1.0  0.83944  0.74770  0.71583  1.0000
  C   C51       1.0  0.33944  0.75230  0.28417  1.0000
  C   C52       1.0  0.16056  0.24770  0.78417  1.0000
  C   C53       1.0  0.33944  0.74770  0.78417  1.0000
  C   C54       1.0  0.16056  0.25230  0.28417  1.0000
  C   C55       1.0  0.66056  0.24770  0.71583  1.0000
  C   C56       1.0  0.83944  0.75230  0.21583  1.0000
  C   C57       1.0  0.94905  0.34757  0.13847  1.0000
  C   C58       1.0  0.55095  0.65243  0.63847  1.0000
  C   C59       1.0  0.05095  0.84757  0.36153  1.0000
  C   C60       1.0  0.44905  0.15243  0.86153  1.0000
  C   C61       1.0  0.05095  0.65243  0.86153  1.0000
  C   C62       1.0  0.44905  0.34757  0.36153  1.0000
  C   C63       1.0  0.94905  0.15243  0.63847  1.0000
  C   C64       1.0  0.55095  0.84757  0.13847  1.0000
