data_image0
_chemical_formula_structural       Eu2O6H2O18H4N4O6H2O6N2C2O2C4H2C2O2H4C6H2C6H2C2H2C2H2C10H2C16H2C6H2C2H2C6H2C6H2C2H2C6H2C10H2C2H2
_chemical_formula_sum              "Eu2 O40 H42 N6 C90"
_cell_length_a       10.6709
_cell_length_b       18.1669
_cell_length_c       18.767
_cell_angle_alpha    109.774
_cell_angle_beta     102.201
_cell_angle_gamma    97.897

_space_group_name_H-M_alt    "P 1"
_space_group_IT_number       1

loop_
  _space_group_symop_operation_xyz
  'x, y, z'

loop_
  _atom_site_type_symbol
  _atom_site_label
  _atom_site_symmetry_multiplicity
  _atom_site_fract_x
  _atom_site_fract_y
  _atom_site_fract_z
  _atom_site_occupancy
  Eu  Eu1       1.0  0.97439  0.94095  0.10539  1.0000
  Eu  Eu2       1.0  0.02561  0.05905  0.89461  1.0000
  O   O1        1.0  0.97250  0.92190  0.86850  1.0000
  O   O2        1.0  0.02750  0.07810  0.13150  1.0000
  O   O3        1.0  0.21750  0.98020  0.13230  1.0000
  O   O4        1.0  0.78250  0.01980  0.86770  1.0000
  O   O5        1.0  0.21250  0.56710  0.06540  1.0000
  O   O6        1.0  0.78750  0.43290  0.93460  1.0000
  H   H1        1.0  0.16953  0.58994  0.03986  1.0000
  H   H2        1.0  0.83047  0.41006  0.96014  1.0000
  O   O7        1.0  0.16450  0.18960  0.96370  1.0000
  O   O8        1.0  0.83550  0.81040  0.03630  1.0000
  O   O9        1.0  0.12010  0.45760  0.95540  1.0000
  O   O10       1.0  0.87990  0.54240  0.04460  1.0000
  O   O11       1.0  0.02560  0.90870  0.98370  1.0000
  O   O12       1.0  0.97440  0.09130  0.01630  1.0000
  O   O13       1.0  0.10470  0.64650  0.98550  1.0000
  O   O14       1.0  0.89530  0.35350  0.01450  1.0000
  O   O15       1.0  0.97230  0.58040  0.63360  1.0000
  O   O16       1.0  0.02770  0.41960  0.36640  1.0000
  O   O17       1.0  0.63980  0.69420  0.69960  1.0000
  O   O18       1.0  0.36020  0.30580  0.30040  1.0000
  O   O19       1.0  0.82720  0.96470  0.17390  1.0000
  O   O20       1.0  0.17280  0.03530  0.82610  1.0000
  O   O21       1.0  0.28090  0.53600  0.30060  1.0000
  O   O22       1.0  0.71910  0.46400  0.69940  1.0000
  O   O23       1.0  0.78870  0.96160  0.01850  1.0000
  O   O24       1.0  0.21130  0.03840  0.98150  1.0000
  H   H3        1.0  0.81829  0.98635  0.99005  1.0000
  H   H4        1.0  0.18171  0.01365  0.00995  1.0000
  H   H5        1.0  0.74917  0.99567  0.04643  1.0000
  H   H6        1.0  0.25083  0.00433  0.95357  1.0000
  N   N1        1.0  0.80920  0.63790  0.66740  1.0000
  N   N2        1.0  0.19080  0.36210  0.33260  1.0000
  N   N3        1.0  0.48790  0.70400  0.06620  1.0000
  N   N4        1.0  0.51210  0.29600  0.93380  1.0000
  O   O25       1.0  0.13110  0.85600  0.11230  1.0000
  O   O26       1.0  0.86890  0.14400  0.88770  1.0000
  O   O27       1.0  0.60350  0.40690  0.24040  1.0000
  O   O28       1.0  0.39650  0.59310  0.75960  1.0000
  O   O29       1.0  0.03730  0.54040  0.87160  1.0000
  O   O30       1.0  0.96270  0.45960  0.12840  1.0000
  H   H7        1.0  0.05926  0.51542  0.90090  1.0000
  H   H8        1.0  0.94074  0.48458  0.09910  1.0000
  O   O31       1.0  0.32350  0.18940  0.06340  1.0000
  O   O32       1.0  0.67650  0.81060  0.93660  1.0000
  O   O33       1.0  0.37430  0.68660  0.94580  1.0000
  O   O34       1.0  0.62570  0.31340  0.05420  1.0000
  O   O35       1.0  0.60100  0.72130  0.19240  1.0000
  O   O36       1.0  0.39900  0.27870  0.80760  1.0000
  N   N5        1.0  0.44240  0.47250  0.26740  1.0000
  N   N6        1.0  0.55760  0.52750  0.73260  1.0000
  C   C1        1.0  0.99280  0.88250  0.91040  1.0000
  C   C2        1.0  0.00720  0.11750  0.08960  1.0000
  O   O37       1.0  0.71980  0.06050  0.21600  1.0000
  O   O38       1.0  0.28020  0.93950  0.78400  1.0000
  C   C3        1.0  0.58790  0.53920  0.43080  1.0000
  C   C4        1.0  0.41210  0.46080  0.56920  1.0000
  C   C5        1.0  0.22090  0.36030  0.02960  1.0000
  C   C6        1.0  0.77910  0.63970  0.97040  1.0000
  H   H9        1.0  0.16736  0.33573  0.97669  1.0000
  H   H10       1.0  0.83264  0.66427  0.02331  1.0000
  C   C7        1.0  0.63640  0.48460  0.37420  1.0000
  C   C8        1.0  0.36360  0.51540  0.62580  1.0000
  O   O39       1.0  0.07310  0.97320  0.24370  1.0000
  O   O40       1.0  0.92690  0.02680  0.75630  1.0000
  H   H11       1.0  0.02929  0.96349  0.28312  1.0000
  H   H12       1.0  0.97071  0.03651  0.71688  1.0000
  H   H13       1.0  0.16745  0.99916  0.27501  1.0000
  H   H14       1.0  0.83255  0.00084  0.72499  1.0000
  C   C9        1.0  0.27490  0.31410  0.06830  1.0000
  C   C10       1.0  0.72510  0.68590  0.93170  1.0000
  C   C11       1.0  0.00300  0.66200  0.86810  1.0000
  C   C12       1.0  0.99700  0.33800  0.13190  1.0000
  C   C13       1.0  0.36660  0.52010  0.88580  1.0000
  C   C14       1.0  0.63340  0.47990  0.11420  1.0000
  H   H15       1.0  0.31795  0.54090  0.85162  1.0000
  H   H16       1.0  0.68205  0.45910  0.14838  1.0000
  C   C15       1.0  0.49520  0.54110  0.01220  1.0000
  C   C16       1.0  0.50480  0.45890  0.98780  1.0000
  C   C17       1.0  0.42920  0.57220  0.96100  1.0000
  C   C18       1.0  0.57080  0.42780  0.03900  1.0000
  C   C19       1.0  0.91000  0.75870  0.78910  1.0000
  C   C20       1.0  0.09000  0.24130  0.21090  1.0000
  H   H17       1.0  0.88215  0.79091  0.76086  1.0000
  H   H18       1.0  0.11785  0.20909  0.23914  1.0000
  C   C21       1.0  0.34680  0.35140  0.14660  1.0000
  C   C22       1.0  0.65320  0.64860  0.85340  1.0000
  H   H19       1.0  0.38271  0.32008  0.17376  1.0000
  H   H20       1.0  0.61729  0.67992  0.82624  1.0000
  C   C23       1.0  0.01980  0.74560  0.90960  1.0000
  C   C24       1.0  0.98020  0.25440  0.09040  1.0000
  H   H21       1.0  0.05992  0.76946  0.96481  1.0000
  H   H22       1.0  0.94008  0.23054  0.03519  1.0000
  C   C25       1.0  0.54990  0.67780  0.12150  1.0000
  C   C26       1.0  0.45010  0.32220  0.87850  1.0000
  C   C27       1.0  0.36750  0.43370  0.18620  1.0000
  C   C28       1.0  0.63250  0.56630  0.81380  1.0000
  C   C29       1.0  0.24620  0.44290  0.06950  1.0000
  C   C30       1.0  0.75380  0.55710  0.93050  1.0000
  C   C31       1.0  0.38800  0.52270  0.32110  1.0000
  C   C32       1.0  0.61200  0.47730  0.67890  1.0000
  C   C33       1.0  0.36360  0.80750  0.09800  1.0000
  C   C34       1.0  0.63640  0.19250  0.90200  1.0000
  H   H23       1.0  0.28592  0.76681  0.08253  1.0000
  H   H24       1.0  0.71408  0.23319  0.91747  1.0000
  C   C35       1.0  0.42880  0.65740  0.98980  1.0000
  C   C36       1.0  0.57120  0.34260  0.01020  1.0000
  C   C37       1.0  0.85900  0.58840  0.61300  1.0000
  C   C38       1.0  0.14100  0.41160  0.38700  1.0000
  C   C39       1.0  0.46500  0.55830  0.40500  1.0000
  C   C40       1.0  0.53500  0.44170  0.59500  1.0000
  C   C41       1.0  0.25620  0.22500  0.03010  1.0000
  C   C42       1.0  0.74380  0.77500  0.96990  1.0000
  C   C43       1.0  0.05450  0.61610  0.91450  1.0000
  C   C44       1.0  0.94550  0.38390  0.08550  1.0000
  C   C45       1.0  0.48450  0.78710  0.09600  1.0000
  C   C46       1.0  0.51550  0.21290  0.90400  1.0000
  C   C47       1.0  0.68600  0.65440  0.65040  1.0000
  C   C48       1.0  0.31400  0.34560  0.34960  1.0000
  C   C49       1.0  0.59950  0.84770  0.12170  1.0000
  C   C50       1.0  0.40050  0.15230  0.87830  1.0000
  H   H25       1.0  0.68130  0.83332  0.11936  1.0000
  H   H26       1.0  0.31870  0.16668  0.88064  1.0000
  C   C51       1.0  0.97560  0.79340  0.86700  1.0000
  C   C52       1.0  0.02440  0.20660  0.13300  1.0000
  C   C53       1.0  0.66220  0.56980  0.50960  1.0000
  C   C54       1.0  0.33780  0.43020  0.49040  1.0000
  C   C55       1.0  0.75090  0.46000  0.39540  1.0000
  C   C56       1.0  0.24910  0.54000  0.60460  1.0000
  H   H27       1.0  0.78152  0.42223  0.35800  1.0000
  H   H28       1.0  0.21848  0.57777  0.64200  1.0000
  C   C57       1.0  0.32090  0.48140  0.14870  1.0000
  C   C58       1.0  0.67910  0.51860  0.85130  1.0000
  H   H29       1.0  0.33823  0.53803  0.17511  1.0000
  H   H30       1.0  0.66177  0.46197  0.82489  1.0000
  C   C59       1.0  0.56270  0.59030  0.09290  1.0000
  C   C60       1.0  0.43730  0.40970  0.90710  1.0000
  C   C61       1.0  0.59580  0.92740  0.15010  1.0000
  C   C62       1.0  0.40420  0.07260  0.84990  1.0000
  C   C63       1.0  0.42220  0.61290  0.45910  1.0000
  C   C64       1.0  0.57780  0.38710  0.54090  1.0000
  H   H31       1.0  0.34348  0.62900  0.44299  1.0000
  H   H32       1.0  0.65652  0.37100  0.55701  1.0000
  C   C65       1.0  0.88410  0.67540  0.75100  1.0000
  C   C66       1.0  0.11590  0.32460  0.24900  1.0000
  C   C67       1.0  0.61850  0.62350  0.56440  1.0000
  C   C68       1.0  0.38150  0.37650  0.43560  1.0000
  C   C69       1.0  0.81930  0.49490  0.47650  1.0000
  C   C70       1.0  0.18070  0.50510  0.52350  1.0000
  H   H33       1.0  0.89693  0.47777  0.49254  1.0000
  H   H34       1.0  0.10307  0.52223  0.50746  1.0000
  C   C71       1.0  0.49600  0.64570  0.53970  1.0000
  C   C72       1.0  0.50400  0.35430  0.46030  1.0000
  H   H35       1.0  0.46482  0.68250  0.57763  1.0000
  H   H36       1.0  0.53518  0.31750  0.42237  1.0000
  C   C73       1.0  0.72960  0.98820  0.18190  1.0000
  C   C74       1.0  0.27040  0.01180  0.81810  1.0000
  C   C75       1.0  0.22860  0.90870  0.12420  1.0000
  C   C76       1.0  0.77140  0.09130  0.87580  1.0000
  C   C77       1.0  0.93430  0.62590  0.78970  1.0000
  C   C78       1.0  0.06570  0.37410  0.21030  1.0000
  H   H37       1.0  0.92062  0.56971  0.76211  1.0000
  H   H38       1.0  0.07938  0.43029  0.23789  1.0000
  C   C79       1.0  0.78440  0.55120  0.53410  1.0000
  C   C80       1.0  0.21560  0.44880  0.46590  1.0000
  C   C81       1.0  0.18610  0.48950  0.02300  1.0000
  C   C82       1.0  0.81390  0.51050  0.97700  1.0000
  C   C83       1.0  0.56330  0.45150  0.28940  1.0000
  C   C84       1.0  0.43670  0.54850  0.71060  1.0000
  C   C85       1.0  0.35800  0.88800  0.12290  1.0000
  C   C86       1.0  0.64200  0.11200  0.87710  1.0000
  C   C87       1.0  0.47520  0.94660  0.14880  1.0000
  C   C88       1.0  0.52480  0.05340  0.85120  1.0000
  H   H39       1.0  0.47140  0.00158  0.16625  1.0000
  H   H40       1.0  0.52860  0.99842  0.83375  1.0000
  C   C89       1.0  0.63240  0.56050  0.14500  1.0000
  C   C90       1.0  0.36760  0.43950  0.85500  1.0000
  H   H41       1.0  0.67652  0.59367  0.19834  1.0000
  H   H42       1.0  0.32348  0.40633  0.80166  1.0000
