data_image0
_chemical_formula_structural       U24O24H8O80H8O32N4C8H8C8H8C8H8C8H8C8H8O8C8H8C8H8C8H8C8H8C4H4
_chemical_formula_sum              "U24 O144 H92 N4 C76"
_cell_length_a       20.458
_cell_length_b       15.473
_cell_length_c       15.918
_cell_angle_alpha    90
_cell_angle_beta     107.718
_cell_angle_gamma    90

_space_group_name_H-M_alt    "P 1"
_space_group_IT_number       1

loop_
  _space_group_symop_operation_xyz
  'x, y, z'

loop_
  _atom_site_type_symbol
  _atom_site_label
  _atom_site_symmetry_multiplicity
  _atom_site_fract_x
  _atom_site_fract_y
  _atom_site_fract_z
  _atom_site_occupancy
  U   U1        1.0  0.50000  0.03966  0.25000  1.0000
  U   U2        1.0  0.00000  0.53966  0.25000  1.0000
  U   U3        1.0  0.50000  0.96034  0.75000  1.0000
  U   U4        1.0  0.00000  0.46034  0.75000  1.0000
  U   U5        1.0  0.61971  0.86646  0.21193  1.0000
  U   U6        1.0  0.38029  0.86646  0.28807  1.0000
  U   U7        1.0  0.11971  0.36646  0.21193  1.0000
  U   U8        1.0  0.88029  0.36646  0.28807  1.0000
  U   U9        1.0  0.38029  0.13354  0.78807  1.0000
  U   U10       1.0  0.61971  0.13354  0.71193  1.0000
  U   U11       1.0  0.88029  0.63354  0.78807  1.0000
  U   U12       1.0  0.11971  0.63354  0.71193  1.0000
  U   U13       1.0  0.42954  0.86435  0.07628  1.0000
  U   U14       1.0  0.57046  0.86435  0.42372  1.0000
  U   U15       1.0  0.92954  0.36435  0.07628  1.0000
  U   U16       1.0  0.07046  0.36435  0.42372  1.0000
  U   U17       1.0  0.57046  0.13565  0.92372  1.0000
  U   U18       1.0  0.42954  0.13565  0.57628  1.0000
  U   U19       1.0  0.07046  0.63565  0.92372  1.0000
  U   U20       1.0  0.92954  0.63565  0.57628  1.0000
  U   U21       1.0  0.50000  0.68893  0.25000  1.0000
  U   U22       1.0  0.00000  0.18893  0.25000  1.0000
  U   U23       1.0  0.50000  0.31107  0.75000  1.0000
  U   U24       1.0  0.00000  0.81107  0.75000  1.0000
  O   O1        1.0  0.39920  0.00050  0.99410  1.0000
  O   O2        1.0  0.60080  0.00050  0.50590  1.0000
  O   O3        1.0  0.89920  0.50050  0.99410  1.0000
  O   O4        1.0  0.10080  0.50050  0.50590  1.0000
  O   O5        1.0  0.60080  0.99950  0.00590  1.0000
  O   O6        1.0  0.39920  0.99950  0.49410  1.0000
  O   O7        1.0  0.10080  0.49950  0.00590  1.0000
  O   O8        1.0  0.89920  0.49950  0.49410  1.0000
  O   O9        1.0  0.31300  0.86280  0.99960  1.0000
  O   O10       1.0  0.68700  0.86280  0.50040  1.0000
  O   O11       1.0  0.81300  0.36280  0.99960  1.0000
  O   O12       1.0  0.18700  0.36280  0.50040  1.0000
  O   O13       1.0  0.68700  0.13720  0.00040  1.0000
  O   O14       1.0  0.31300  0.13720  0.49960  1.0000
  O   O15       1.0  0.18700  0.63720  0.00040  1.0000
  O   O16       1.0  0.81300  0.63720  0.49960  1.0000
  O   O17       1.0  0.52750  0.96360  0.13140  1.0000
  O   O18       1.0  0.47250  0.96360  0.36860  1.0000
  O   O19       1.0  0.02750  0.46360  0.13140  1.0000
  O   O20       1.0  0.97250  0.46360  0.36860  1.0000
  O   O21       1.0  0.47250  0.03640  0.86860  1.0000
  O   O22       1.0  0.52750  0.03640  0.63140  1.0000
  O   O23       1.0  0.97250  0.53640  0.86860  1.0000
  O   O24       1.0  0.02750  0.53640  0.63140  1.0000
  H   H1        1.0  0.53780  0.00020  0.08680  1.0000
  H   H2        1.0  0.46220  0.00020  0.41320  1.0000
  H   H3        1.0  0.03780  0.50020  0.08680  1.0000
  H   H4        1.0  0.96220  0.50020  0.41320  1.0000
  H   H5        1.0  0.46220  0.99980  0.91320  1.0000
  H   H6        1.0  0.53780  0.99980  0.58680  1.0000
  H   H7        1.0  0.96220  0.49980  0.91320  1.0000
  H   H8        1.0  0.03780  0.49980  0.58680  1.0000
  O   O25       1.0  0.41410  0.72620  0.00030  1.0000
  O   O26       1.0  0.58590  0.72620  0.49970  1.0000
  O   O27       1.0  0.91410  0.22620  0.00030  1.0000
  O   O28       1.0  0.08590  0.22620  0.49970  1.0000
  O   O29       1.0  0.58590  0.27380  0.99970  1.0000
  O   O30       1.0  0.41410  0.27380  0.50030  1.0000
  O   O31       1.0  0.08590  0.77380  0.99970  1.0000
  O   O32       1.0  0.91410  0.77380  0.50030  1.0000
  O   O33       1.0  0.59770  0.62690  0.21560  1.0000
  O   O34       1.0  0.40230  0.62690  0.28440  1.0000
  O   O35       1.0  0.09770  0.12690  0.21560  1.0000
  O   O36       1.0  0.90230  0.12690  0.28440  1.0000
  O   O37       1.0  0.40230  0.37310  0.78440  1.0000
  O   O38       1.0  0.59770  0.37310  0.71560  1.0000
  O   O39       1.0  0.90230  0.87310  0.78440  1.0000
  O   O40       1.0  0.09770  0.87310  0.71560  1.0000
  O   O41       1.0  0.52030  0.12720  0.04070  1.0000
  O   O42       1.0  0.47970  0.12720  0.45930  1.0000
  O   O43       1.0  0.02030  0.62720  0.04070  1.0000
  O   O44       1.0  0.97970  0.62720  0.45930  1.0000
  O   O45       1.0  0.47970  0.87280  0.95930  1.0000
  O   O46       1.0  0.52030  0.87280  0.54070  1.0000
  O   O47       1.0  0.97970  0.37280  0.95930  1.0000
  O   O48       1.0  0.02030  0.37280  0.54070  1.0000
  O   O49       1.0  0.73090  0.86390  0.30730  1.0000
  O   O50       1.0  0.26910  0.86390  0.19270  1.0000
  O   O51       1.0  0.23090  0.36390  0.30730  1.0000
  O   O52       1.0  0.76910  0.36390  0.19270  1.0000
  O   O53       1.0  0.26910  0.13610  0.69270  1.0000
  O   O54       1.0  0.73090  0.13610  0.80730  1.0000
  O   O55       1.0  0.76910  0.63610  0.69270  1.0000
  O   O56       1.0  0.23090  0.63610  0.80730  1.0000
  O   O57       1.0  0.45100  0.62560  0.10580  1.0000
  O   O58       1.0  0.54900  0.62560  0.39420  1.0000
  O   O59       1.0  0.95100  0.12560  0.10580  1.0000
  O   O60       1.0  0.04900  0.12560  0.39420  1.0000
  O   O61       1.0  0.54900  0.37440  0.89420  1.0000
  O   O62       1.0  0.45100  0.37440  0.60580  1.0000
  O   O63       1.0  0.04900  0.87440  0.89420  1.0000
  O   O64       1.0  0.95100  0.87440  0.60580  1.0000
  O   O65       1.0  0.52140  0.79510  0.16180  1.0000
  O   O66       1.0  0.47860  0.79510  0.33820  1.0000
  O   O67       1.0  0.02140  0.29510  0.16180  1.0000
  O   O68       1.0  0.97860  0.29510  0.33820  1.0000
  O   O69       1.0  0.47860  0.20490  0.83820  1.0000
  O   O70       1.0  0.52140  0.20490  0.66180  1.0000
  O   O71       1.0  0.97860  0.70490  0.83820  1.0000
  O   O72       1.0  0.02140  0.70490  0.66180  1.0000
  O   O73       1.0  0.46270  0.14780  0.13600  1.0000
  O   O74       1.0  0.53730  0.14780  0.36400  1.0000
  O   O75       1.0  0.96270  0.64780  0.13600  1.0000
  O   O76       1.0  0.03730  0.64780  0.36400  1.0000
  O   O77       1.0  0.53730  0.85220  0.86400  1.0000
  O   O78       1.0  0.46270  0.85220  0.63600  1.0000
  O   O79       1.0  0.03730  0.35220  0.86400  1.0000
  O   O80       1.0  0.96270  0.35220  0.63600  1.0000
  O   O81       1.0  0.41970  0.94030  0.19120  1.0000
  O   O82       1.0  0.58030  0.94030  0.30880  1.0000
  O   O83       1.0  0.91970  0.44030  0.19120  1.0000
  O   O84       1.0  0.08030  0.44030  0.30880  1.0000
  O   O85       1.0  0.58030  0.05970  0.80880  1.0000
  O   O86       1.0  0.41970  0.05970  0.69120  1.0000
  O   O87       1.0  0.08030  0.55970  0.80880  1.0000
  O   O88       1.0  0.91970  0.55970  0.69120  1.0000
  O   O89       1.0  0.35200  0.12030  0.92370  1.0000
  O   O90       1.0  0.64800  0.12030  0.57630  1.0000
  O   O91       1.0  0.85200  0.62030  0.92370  1.0000
  O   O92       1.0  0.14800  0.62030  0.57630  1.0000
  O   O93       1.0  0.64800  0.87970  0.07630  1.0000
  O   O94       1.0  0.35200  0.87970  0.42370  1.0000
  O   O95       1.0  0.14800  0.37970  0.07630  1.0000
  O   O96       1.0  0.85200  0.37970  0.42370  1.0000
  O   O97       1.0  0.39340  0.77090  0.17320  1.0000
  O   O98       1.0  0.60660  0.77090  0.32680  1.0000
  O   O99       1.0  0.89340  0.27090  0.17320  1.0000
  O   O100      1.0  0.10660  0.27090  0.32680  1.0000
  O   O101      1.0  0.60660  0.22910  0.82680  1.0000
  O   O102      1.0  0.39340  0.22910  0.67320  1.0000
  O   O103      1.0  0.10660  0.72910  0.82680  1.0000
  O   O104      1.0  0.89340  0.72910  0.67320  1.0000
  H   H9        1.0  0.35330  0.73510  0.14480  1.0000
  H   H10       1.0  0.64670  0.73510  0.35520  1.0000
  H   H11       1.0  0.85330  0.23510  0.14480  1.0000
  H   H12       1.0  0.14670  0.23510  0.35520  1.0000
  H   H13       1.0  0.64670  0.26490  0.85520  1.0000
  H   H14       1.0  0.35330  0.26490  0.64480  1.0000
  H   H15       1.0  0.14670  0.76490  0.85520  1.0000
  H   H16       1.0  0.85330  0.76490  0.64480  1.0000
  O   O105      1.0  0.60350  0.11070  0.24040  1.0000
  O   O106      1.0  0.39650  0.11070  0.25960  1.0000
  O   O107      1.0  0.10350  0.61070  0.24040  1.0000
  O   O108      1.0  0.89650  0.61070  0.25960  1.0000
  O   O109      1.0  0.39650  0.88930  0.75960  1.0000
  O   O110      1.0  0.60350  0.88930  0.74040  1.0000
  O   O111      1.0  0.89650  0.38930  0.75960  1.0000
  O   O112      1.0  0.10350  0.38930  0.74040  1.0000
  O   O113      1.0  0.66460  0.72800  0.18250  1.0000
  O   O114      1.0  0.33540  0.72800  0.31750  1.0000
  O   O115      1.0  0.16460  0.22800  0.18250  1.0000
  O   O116      1.0  0.83540  0.22800  0.31750  1.0000
  O   O117      1.0  0.33540  0.27200  0.81750  1.0000
  O   O118      1.0  0.66460  0.27200  0.68250  1.0000
  O   O119      1.0  0.83540  0.77200  0.81750  1.0000
  O   O120      1.0  0.16460  0.77200  0.68250  1.0000
  O   O121      1.0  0.67300  0.00950  0.21250  1.0000
  O   O122      1.0  0.32700  0.00950  0.28750  1.0000
  O   O123      1.0  0.17300  0.50950  0.21250  1.0000
  O   O124      1.0  0.82700  0.50950  0.28750  1.0000
  O   O125      1.0  0.32700  0.99050  0.78750  1.0000
  O   O126      1.0  0.67300  0.99050  0.71250  1.0000
  O   O127      1.0  0.82700  0.49050  0.78750  1.0000
  O   O128      1.0  0.17300  0.49050  0.71250  1.0000
  O   O129      1.0  0.20670  0.84230  0.91270  1.0000
  O   O130      1.0  0.79330  0.84230  0.58730  1.0000
  O   O131      1.0  0.70670  0.34230  0.91270  1.0000
  O   O132      1.0  0.29330  0.34230  0.58730  1.0000
  O   O133      1.0  0.79330  0.15770  0.08730  1.0000
  O   O134      1.0  0.20670  0.15770  0.41270  1.0000
  O   O135      1.0  0.29330  0.65770  0.08730  1.0000
  O   O136      1.0  0.70670  0.65770  0.41270  1.0000
  N   N1        1.0  0.50000  0.50990  0.25000  1.0000
  N   N2        1.0  0.00000  0.00990  0.25000  1.0000
  N   N3        1.0  0.50000  0.49010  0.75000  1.0000
  N   N4        1.0  0.00000  0.99010  0.75000  1.0000
  C   C1        1.0  0.42460  0.64980  0.02800  1.0000
  C   C2        1.0  0.57540  0.64980  0.47200  1.0000
  C   C3        1.0  0.92460  0.14980  0.02800  1.0000
  C   C4        1.0  0.07540  0.14980  0.47200  1.0000
  C   C5        1.0  0.57540  0.35020  0.97200  1.0000
  C   C6        1.0  0.42460  0.35020  0.52800  1.0000
  C   C7        1.0  0.07540  0.85020  0.97200  1.0000
  C   C8        1.0  0.92460  0.85020  0.52800  1.0000
  H   H17       1.0  0.41100  0.60650  0.98580  1.0000
  H   H18       1.0  0.58900  0.60650  0.51420  1.0000
  H   H19       1.0  0.91100  0.10650  0.98580  1.0000
  H   H20       1.0  0.08900  0.10650  0.51420  1.0000
  H   H21       1.0  0.58900  0.39350  0.01420  1.0000
  H   H22       1.0  0.41100  0.39350  0.48580  1.0000
  H   H23       1.0  0.08900  0.89350  0.01420  1.0000
  H   H24       1.0  0.91100  0.89350  0.48580  1.0000
  C   C9        1.0  0.35600  0.05780  0.97780  1.0000
  C   C10       1.0  0.64400  0.05780  0.52220  1.0000
  C   C11       1.0  0.85600  0.55780  0.97780  1.0000
  C   C12       1.0  0.14400  0.55780  0.52220  1.0000
  C   C13       1.0  0.64400  0.94220  0.02220  1.0000
  C   C14       1.0  0.35600  0.94220  0.47780  1.0000
  C   C15       1.0  0.14400  0.44220  0.02220  1.0000
  C   C16       1.0  0.85600  0.44220  0.47780  1.0000
  H   H25       1.0  0.32310  0.05580  0.00730  1.0000
  H   H26       1.0  0.67690  0.05580  0.49270  1.0000
  H   H27       1.0  0.82310  0.55580  0.00730  1.0000
  H   H28       1.0  0.17690  0.55580  0.49270  1.0000
  H   H29       1.0  0.67690  0.94420  0.99270  1.0000
  H   H30       1.0  0.32310  0.94420  0.50730  1.0000
  H   H31       1.0  0.17690  0.44420  0.99270  1.0000
  H   H32       1.0  0.82310  0.44420  0.50730  1.0000
  C   C17       1.0  0.48270  0.17080  0.07250  1.0000
  C   C18       1.0  0.51730  0.17080  0.42750  1.0000
  C   C19       1.0  0.98270  0.67080  0.07250  1.0000
  C   C20       1.0  0.01730  0.67080  0.42750  1.0000
  C   C21       1.0  0.51730  0.82920  0.92750  1.0000
  C   C22       1.0  0.48270  0.82920  0.57250  1.0000
  C   C23       1.0  0.01730  0.32920  0.92750  1.0000
  C   C24       1.0  0.98270  0.32920  0.57250  1.0000
  H   H33       1.0  0.46840  0.22450  0.04730  1.0000
  H   H34       1.0  0.53160  0.22450  0.45270  1.0000
  H   H35       1.0  0.96840  0.72450  0.04730  1.0000
  H   H36       1.0  0.03160  0.72450  0.45270  1.0000
  H   H37       1.0  0.53160  0.77550  0.95270  1.0000
  H   H38       1.0  0.46840  0.77550  0.54730  1.0000
  H   H39       1.0  0.03160  0.27550  0.95270  1.0000
  H   H40       1.0  0.96840  0.27550  0.54730  1.0000
  C   C25       1.0  0.26710  0.82340  0.93960  1.0000
  C   C26       1.0  0.73290  0.82340  0.56040  1.0000
  C   C27       1.0  0.76710  0.32340  0.93960  1.0000
  C   C28       1.0  0.23290  0.32340  0.56040  1.0000
  C   C29       1.0  0.73290  0.17660  0.06040  1.0000
  C   C30       1.0  0.26710  0.17660  0.43960  1.0000
  C   C31       1.0  0.23290  0.67660  0.06040  1.0000
  C   C32       1.0  0.76710  0.67660  0.43960  1.0000
  H   H41       1.0  0.28110  0.77560  0.91400  1.0000
  H   H42       1.0  0.71890  0.77560  0.58600  1.0000
  H   H43       1.0  0.78110  0.27560  0.91400  1.0000
  H   H44       1.0  0.21890  0.27560  0.58600  1.0000
  H   H45       1.0  0.71890  0.22440  0.08600  1.0000
  H   H46       1.0  0.28110  0.22440  0.41400  1.0000
  H   H47       1.0  0.21890  0.72440  0.08600  1.0000
  H   H48       1.0  0.78110  0.72440  0.41400  1.0000
  C   C33       1.0  0.65550  0.08610  0.22220  1.0000
  C   C34       1.0  0.34450  0.08610  0.27780  1.0000
  C   C35       1.0  0.15550  0.58610  0.22220  1.0000
  C   C36       1.0  0.84450  0.58610  0.27780  1.0000
  C   C37       1.0  0.34450  0.91390  0.77780  1.0000
  C   C38       1.0  0.65550  0.91390  0.72220  1.0000
  C   C39       1.0  0.84450  0.41390  0.77780  1.0000
  C   C40       1.0  0.15550  0.41390  0.72220  1.0000
  H   H49       1.0  0.68490  0.12930  0.21480  1.0000
  H   H50       1.0  0.31510  0.12930  0.28520  1.0000
  H   H51       1.0  0.18490  0.62930  0.21480  1.0000
  H   H52       1.0  0.81510  0.62930  0.28520  1.0000
  H   H53       1.0  0.31510  0.87070  0.78520  1.0000
  H   H54       1.0  0.68490  0.87070  0.71480  1.0000
  H   H55       1.0  0.81510  0.37070  0.78520  1.0000
  H   H56       1.0  0.18490  0.37070  0.71480  1.0000
  O   O137      1.0  0.82230  0.95110  0.34650  1.0000
  O   O138      1.0  0.17770  0.95110  0.15350  1.0000
  O   O139      1.0  0.32230  0.45110  0.34650  1.0000
  O   O140      1.0  0.67770  0.45110  0.15350  1.0000
  O   O141      1.0  0.17770  0.04890  0.65350  1.0000
  O   O142      1.0  0.82230  0.04890  0.84650  1.0000
  O   O143      1.0  0.67770  0.54890  0.65350  1.0000
  O   O144      1.0  0.32230  0.54890  0.84650  1.0000
  C   C41       1.0  0.64890  0.65170  0.19620  1.0000
  C   C42       1.0  0.35110  0.65170  0.30380  1.0000
  C   C43       1.0  0.14890  0.15170  0.19620  1.0000
  C   C44       1.0  0.85110  0.15170  0.30380  1.0000
  C   C45       1.0  0.35110  0.34830  0.80380  1.0000
  C   C46       1.0  0.64890  0.34830  0.69620  1.0000
  C   C47       1.0  0.85110  0.84830  0.80380  1.0000
  C   C48       1.0  0.14890  0.84830  0.69620  1.0000
  H   H57       1.0  0.67930  0.60890  0.19110  1.0000
  H   H58       1.0  0.32070  0.60890  0.30890  1.0000
  H   H59       1.0  0.17930  0.10890  0.19110  1.0000
  H   H60       1.0  0.82070  0.10890  0.30890  1.0000
  H   H61       1.0  0.32070  0.39110  0.80890  1.0000
  H   H62       1.0  0.67930  0.39110  0.69110  1.0000
  H   H63       1.0  0.82070  0.89110  0.80890  1.0000
  H   H64       1.0  0.17930  0.89110  0.69110  1.0000
  C   C49       1.0  0.51910  0.46500  0.19070  1.0000
  C   C50       1.0  0.48090  0.46500  0.30930  1.0000
  C   C51       1.0  0.01910  0.96500  0.19070  1.0000
  C   C52       1.0  0.98090  0.96500  0.30930  1.0000
  C   C53       1.0  0.48090  0.53500  0.80930  1.0000
  C   C54       1.0  0.51910  0.53500  0.69070  1.0000
  C   C55       1.0  0.98090  0.03500  0.80930  1.0000
  C   C56       1.0  0.01910  0.03500  0.69070  1.0000
  H   H65       1.0  0.53250  0.49520  0.14810  1.0000
  H   H66       1.0  0.46750  0.49520  0.35190  1.0000
  H   H67       1.0  0.03250  0.99520  0.14810  1.0000
  H   H68       1.0  0.96750  0.99520  0.35190  1.0000
  H   H69       1.0  0.46750  0.50480  0.85190  1.0000
  H   H70       1.0  0.53250  0.50480  0.64810  1.0000
  H   H71       1.0  0.96750  0.00480  0.85190  1.0000
  H   H72       1.0  0.03250  0.00480  0.64810  1.0000
  C   C57       1.0  0.77240  0.91600  0.36000  1.0000
  C   C58       1.0  0.22760  0.91600  0.14000  1.0000
  C   C59       1.0  0.27240  0.41600  0.36000  1.0000
  C   C60       1.0  0.72760  0.41600  0.14000  1.0000
  C   C61       1.0  0.22760  0.08400  0.64000  1.0000
  C   C62       1.0  0.77240  0.08400  0.86000  1.0000
  C   C63       1.0  0.72760  0.58400  0.64000  1.0000
  C   C64       1.0  0.27240  0.58400  0.86000  1.0000
  H   H73       1.0  0.76420  0.92840  0.41310  1.0000
  H   H74       1.0  0.23580  0.92840  0.08690  1.0000
  H   H75       1.0  0.26420  0.42840  0.41310  1.0000
  H   H76       1.0  0.73580  0.42840  0.08690  1.0000
  H   H77       1.0  0.23580  0.07160  0.58690  1.0000
  H   H78       1.0  0.76420  0.07160  0.91310  1.0000
  H   H79       1.0  0.73580  0.57160  0.58690  1.0000
  H   H80       1.0  0.26420  0.57160  0.91310  1.0000
  C   C65       1.0  0.52020  0.37540  0.18840  1.0000
  C   C66       1.0  0.47980  0.37540  0.31160  1.0000
  C   C67       1.0  0.02020  0.87540  0.18840  1.0000
  C   C68       1.0  0.97980  0.87540  0.31160  1.0000
  C   C69       1.0  0.47980  0.62460  0.81160  1.0000
  C   C70       1.0  0.52020  0.62460  0.68840  1.0000
  C   C71       1.0  0.97980  0.12460  0.81160  1.0000
  C   C72       1.0  0.02020  0.12460  0.68840  1.0000
  H   H81       1.0  0.53450  0.34710  0.14560  1.0000
  H   H82       1.0  0.46550  0.34710  0.35440  1.0000
  H   H83       1.0  0.03450  0.84710  0.14560  1.0000
  H   H84       1.0  0.96550  0.84710  0.35440  1.0000
  H   H85       1.0  0.46550  0.65290  0.85440  1.0000
  H   H86       1.0  0.53450  0.65290  0.64560  1.0000
  H   H87       1.0  0.96550  0.15290  0.85440  1.0000
  H   H88       1.0  0.03450  0.15290  0.64560  1.0000
  C   C73       1.0  0.50000  0.32850  0.25000  1.0000
  C   C74       1.0  0.00000  0.82850  0.25000  1.0000
  C   C75       1.0  0.50000  0.67150  0.75000  1.0000
  C   C76       1.0  0.00000  0.17150  0.75000  1.0000
  H   H89       1.0  0.50000  0.26840  0.25000  1.0000
  H   H90       1.0  0.00000  0.76840  0.25000  1.0000
  H   H91       1.0  0.50000  0.73160  0.75000  1.0000
  H   H92       1.0  0.00000  0.23160  0.75000  1.0000
