data_image0
_chemical_formula_structural       C24O48Cr8
_chemical_formula_sum              "C24 O48 Cr8"
_cell_length_a       11.6634
_cell_length_b       31.4028
_cell_length_c       9.327
_cell_angle_alpha    90
_cell_angle_beta     109.747
_cell_angle_gamma    90

_space_group_name_H-M_alt    "P 1"
_space_group_IT_number       1

loop_
  _space_group_symop_operation_xyz
  'x, y, z'

loop_
  _atom_site_type_symbol
  _atom_site_label
  _atom_site_symmetry_multiplicity
  _atom_site_fract_x
  _atom_site_fract_y
  _atom_site_fract_z
  _atom_site_occupancy
  C   C1        1.0  0.89310  0.12285  0.22450  1.0000
  C   C2        1.0  0.10690  0.62285  0.27550  1.0000
  C   C3        1.0  0.10690  0.87715  0.77550  1.0000
  C   C4        1.0  0.89310  0.37715  0.72450  1.0000
  C   C5        1.0  0.00900  0.12596  0.18270  1.0000
  C   C6        1.0  0.99100  0.62596  0.31730  1.0000
  C   C7        1.0  0.99100  0.87404  0.81730  1.0000
  C   C8        1.0  0.00900  0.37404  0.68270  1.0000
  C   C9        1.0  0.86340  0.26058  0.38560  1.0000
  C   C10       1.0  0.13660  0.76058  0.11440  1.0000
  C   C11       1.0  0.13660  0.73942  0.61440  1.0000
  C   C12       1.0  0.86340  0.23942  0.88560  1.0000
  C   C13       1.0  0.98180  0.23810  0.47960  1.0000
  C   C14       1.0  0.01820  0.73810  0.02040  1.0000
  C   C15       1.0  0.01820  0.76190  0.52040  1.0000
  C   C16       1.0  0.98180  0.26190  0.97960  1.0000
  C   C17       1.0  0.05420  0.01389  0.54150  1.0000
  C   C18       1.0  0.94580  0.51389  0.95850  1.0000
  C   C19       1.0  0.94580  0.98611  0.45850  1.0000
  C   C20       1.0  0.05420  0.48611  0.04150  1.0000
  C   C21       1.0  0.93740  0.00833  0.95180  1.0000
  C   C22       1.0  0.06260  0.50833  0.54820  1.0000
  C   C23       1.0  0.06260  0.99167  0.04820  1.0000
  C   C24       1.0  0.93740  0.49167  0.45180  1.0000
  O   O1        1.0  0.83460  0.15626  0.22160  1.0000
  O   O2        1.0  0.16540  0.65626  0.27840  1.0000
  O   O3        1.0  0.16540  0.84374  0.77840  1.0000
  O   O4        1.0  0.83460  0.34374  0.72160  1.0000
  O   O5        1.0  0.03730  0.16242  0.15100  1.0000
  O   O6        1.0  0.96270  0.66242  0.34900  1.0000
  O   O7        1.0  0.96270  0.83758  0.84900  1.0000
  O   O8        1.0  0.03730  0.33758  0.65100  1.0000
  O   O9        1.0  0.86560  0.08644  0.25880  1.0000
  O   O10       1.0  0.13440  0.58644  0.24120  1.0000
  O   O11       1.0  0.13440  0.91356  0.74120  1.0000
  O   O12       1.0  0.86560  0.41356  0.75880  1.0000
  O   O13       1.0  0.06850  0.09259  0.18880  1.0000
  O   O14       1.0  0.93150  0.59259  0.31120  1.0000
  O   O15       1.0  0.93150  0.90741  0.81120  1.0000
  O   O16       1.0  0.06850  0.40741  0.68880  1.0000
  O   O17       1.0  0.82070  0.28658  0.45690  1.0000
  O   O18       1.0  0.17930  0.78658  0.04310  1.0000
  O   O19       1.0  0.17930  0.71342  0.54310  1.0000
  O   O20       1.0  0.82070  0.21342  0.95690  1.0000
  O   O21       1.0  0.02390  0.24638  0.61880  1.0000
  O   O22       1.0  0.97610  0.74638  0.88120  1.0000
  O   O23       1.0  0.97610  0.75362  0.38120  1.0000
  O   O24       1.0  0.02390  0.25362  0.11880  1.0000
  O   O25       1.0  0.82030  0.25130  0.24670  1.0000
  O   O26       1.0  0.17970  0.75130  0.25330  1.0000
  O   O27       1.0  0.17970  0.74870  0.75330  1.0000
  O   O28       1.0  0.82030  0.24870  0.74670  1.0000
  O   O29       1.0  0.02840  0.21281  0.40930  1.0000
  O   O30       1.0  0.97160  0.71281  0.09070  1.0000
  O   O31       1.0  0.97160  0.78719  0.59070  1.0000
  O   O32       1.0  0.02840  0.28719  0.90930  1.0000
  O   O33       1.0  0.10160  0.00773  0.68380  1.0000
  O   O34       1.0  0.89840  0.50773  0.81620  1.0000
  O   O35       1.0  0.89840  0.99227  0.31620  1.0000
  O   O36       1.0  0.10160  0.49227  0.18380  1.0000
  O   O37       1.0  0.90070  0.99881  0.81320  1.0000
  O   O38       1.0  0.09930  0.49881  0.68680  1.0000
  O   O39       1.0  0.09930  0.00119  0.18680  1.0000
  O   O40       1.0  0.90070  0.50119  0.31320  1.0000
  O   O41       1.0  0.08870  0.04109  0.46600  1.0000
  O   O42       1.0  0.91130  0.54109  0.03400  1.0000
  O   O43       1.0  0.91130  0.95891  0.53400  1.0000
  O   O44       1.0  0.08870  0.45891  0.96600  1.0000
  O   O45       1.0  0.88140  0.03115  0.01770  1.0000
  O   O46       1.0  0.11860  0.53115  0.48230  1.0000
  O   O47       1.0  0.11860  0.96885  0.98230  1.0000
  O   O48       1.0  0.88140  0.46885  0.51770  1.0000
  Cr  Cr1       1.0  0.98324  0.04032  0.24173  1.0000
  Cr  Cr2       1.0  0.01676  0.54032  0.25827  1.0000
  Cr  Cr3       1.0  0.01676  0.95968  0.75827  1.0000
  Cr  Cr4       1.0  0.98324  0.45968  0.74173  1.0000
  Cr  Cr5       1.0  0.92281  0.20839  0.18085  1.0000
  Cr  Cr6       1.0  0.07719  0.70839  0.31915  1.0000
  Cr  Cr7       1.0  0.07719  0.79161  0.81915  1.0000
  Cr  Cr8       1.0  0.92281  0.29161  0.68085  1.0000
