data_image0
_chemical_formula_structural       C24O48Cr4Mn4
_chemical_formula_sum              "C24 O48 Cr4 Mn4"
_cell_length_a       11.7115
_cell_length_b       31.9453
_cell_length_c       9.5068
_cell_angle_alpha    90
_cell_angle_beta     109.821
_cell_angle_gamma    90

_space_group_name_H-M_alt    "P 1"
_space_group_IT_number       1

loop_
  _space_group_symop_operation_xyz
  'x, y, z'

loop_
  _atom_site_type_symbol
  _atom_site_label
  _atom_site_symmetry_multiplicity
  _atom_site_fract_x
  _atom_site_fract_y
  _atom_site_fract_z
  _atom_site_occupancy
  C   C1        1.0  0.52670  0.26244  0.01360  1.0000
  C   C2        1.0  0.47330  0.76244  0.48640  1.0000
  C   C3        1.0  0.47330  0.73756  0.98640  1.0000
  C   C4        1.0  0.52670  0.23756  0.51360  1.0000
  C   C5        1.0  0.64590  0.23982  0.10710  1.0000
  C   C6        1.0  0.35410  0.73982  0.39290  1.0000
  C   C7        1.0  0.35410  0.76018  0.89290  1.0000
  C   C8        1.0  0.64590  0.26018  0.60710  1.0000
  C   C9        1.0  0.49770  0.12632  0.81470  1.0000
  C   C10       1.0  0.50230  0.62632  0.68530  1.0000
  C   C11       1.0  0.50230  0.87368  0.18530  1.0000
  C   C12       1.0  0.49770  0.37368  0.31470  1.0000
  C   C13       1.0  0.61480  0.12238  0.77450  1.0000
  C   C14       1.0  0.38520  0.62238  0.72550  1.0000
  C   C15       1.0  0.38520  0.87762  0.22550  1.0000
  C   C16       1.0  0.61480  0.37762  0.27450  1.0000
  C   C17       1.0  0.44570  0.01427  0.45700  1.0000
  C   C18       1.0  0.55430  0.51427  0.04300  1.0000
  C   C19       1.0  0.55430  0.98573  0.54300  1.0000
  C   C20       1.0  0.44570  0.48573  0.95700  1.0000
  C   C21       1.0  0.56430  0.00788  0.04850  1.0000
  C   C22       1.0  0.43570  0.50788  0.45150  1.0000
  C   C23       1.0  0.43570  0.99212  0.95150  1.0000
  C   C24       1.0  0.56430  0.49212  0.54850  1.0000
  O   O1        1.0  0.48090  0.28678  0.08400  1.0000
  O   O2        1.0  0.51910  0.78678  0.41600  1.0000
  O   O3        1.0  0.51910  0.71322  0.91600  1.0000
  O   O4        1.0  0.48090  0.21322  0.58400  1.0000
  O   O5        1.0  0.68860  0.24876  0.24290  1.0000
  O   O6        1.0  0.31140  0.74876  0.25710  1.0000
  O   O7        1.0  0.31140  0.75124  0.75710  1.0000
  O   O8        1.0  0.68860  0.25124  0.74290  1.0000
  O   O9        1.0  0.48550  0.25425  0.87680  1.0000
  O   O10       1.0  0.51450  0.75425  0.62320  1.0000
  O   O11       1.0  0.51450  0.74575  0.12320  1.0000
  O   O12       1.0  0.48550  0.24575  0.37680  1.0000
  O   O13       1.0  0.68860  0.21434  0.03730  1.0000
  O   O14       1.0  0.31140  0.71434  0.46270  1.0000
  O   O15       1.0  0.31140  0.78566  0.96270  1.0000
  O   O16       1.0  0.68860  0.28566  0.53730  1.0000
  O   O17       1.0  0.47060  0.16265  0.84400  1.0000
  O   O18       1.0  0.52940  0.66265  0.65600  1.0000
  O   O19       1.0  0.52940  0.83735  0.15600  1.0000
  O   O20       1.0  0.47060  0.33735  0.34400  1.0000
  O   O21       1.0  0.67240  0.15506  0.77580  1.0000
  O   O22       1.0  0.32760  0.65506  0.72420  1.0000
  O   O23       1.0  0.32760  0.84494  0.22420  1.0000
  O   O24       1.0  0.67240  0.34494  0.27580  1.0000
  O   O25       1.0  0.43880  0.09342  0.81170  1.0000
  O   O26       1.0  0.56120  0.59342  0.68830  1.0000
  O   O27       1.0  0.56120  0.90658  0.18830  1.0000
  O   O28       1.0  0.43880  0.40658  0.31170  1.0000
  O   O29       1.0  0.64130  0.08619  0.74470  1.0000
  O   O30       1.0  0.35870  0.58619  0.75530  1.0000
  O   O31       1.0  0.35870  0.91381  0.25530  1.0000
  O   O32       1.0  0.64130  0.41381  0.24470  1.0000
  O   O33       1.0  0.41440  0.04113  0.53450  1.0000
  O   O34       1.0  0.58560  0.54113  0.96550  1.0000
  O   O35       1.0  0.58560  0.95887  0.46550  1.0000
  O   O36       1.0  0.41440  0.45887  0.03450  1.0000
  O   O37       1.0  0.62020  0.02942  0.98330  1.0000
  O   O38       1.0  0.37980  0.52942  0.51670  1.0000
  O   O39       1.0  0.37980  0.97058  0.01670  1.0000
  O   O40       1.0  0.62020  0.47058  0.48330  1.0000
  O   O41       1.0  0.39790  0.00840  0.31970  1.0000
  O   O42       1.0  0.60210  0.50840  0.18030  1.0000
  O   O43       1.0  0.60210  0.99160  0.68030  1.0000
  O   O44       1.0  0.39790  0.49160  0.81970  1.0000
  O   O45       1.0  0.60010  0.99744  0.18370  1.0000
  O   O46       1.0  0.39990  0.49744  0.31630  1.0000
  O   O47       1.0  0.39990  0.00256  0.81630  1.0000
  O   O48       1.0  0.60010  0.50256  0.68370  1.0000
  Cr  Cr1       1.0  0.58562  0.20850  0.81247  1.0000
  Cr  Cr2       1.0  0.41438  0.70850  0.68753  1.0000
  Cr  Cr3       1.0  0.41438  0.79150  0.18753  1.0000
  Cr  Cr4       1.0  0.58562  0.29150  0.31247  1.0000
  Mn  Mn1       1.0  0.52068  0.04039  0.75989  1.0000
  Mn  Mn2       1.0  0.47932  0.54039  0.74011  1.0000
  Mn  Mn3       1.0  0.47932  0.95961  0.24011  1.0000
  Mn  Mn4       1.0  0.52068  0.45961  0.25989  1.0000
