data_image0
_chemical_formula_structural       Mo10Co6P6O22H4O4H4O8H4O24N2C6H2C2H6C2H2C2H6C2H2C2H6C2H2C2H2C4H4C4H6C4H6C2H2C2H6C2H6C2H6C2H2C2H6
_chemical_formula_sum              "Mo10 Co6 P6 O58 H84 N2 C44"
_cell_length_a       13.75
_cell_length_b       16.8554
_cell_length_c       17.1095
_cell_angle_alpha    107.632
_cell_angle_beta     95.012
_cell_angle_gamma    101.664

_space_group_name_H-M_alt    "P 1"
_space_group_IT_number       1

loop_
  _space_group_symop_operation_xyz
  'x, y, z'

loop_
  _atom_site_type_symbol
  _atom_site_label
  _atom_site_symmetry_multiplicity
  _atom_site_fract_x
  _atom_site_fract_y
  _atom_site_fract_z
  _atom_site_occupancy
  Mo  Mo1       1.0  0.42769  0.45383  0.35404  1.0000
  Mo  Mo2       1.0  0.57231  0.54617  0.64596  1.0000
  Mo  Mo3       1.0  0.16604  0.28811  0.29673  1.0000
  Mo  Mo4       1.0  0.83396  0.71189  0.70327  1.0000
  Mo  Mo5       1.0  0.37140  0.63817  0.27980  1.0000
  Mo  Mo6       1.0  0.62860  0.36183  0.72020  1.0000
  Mo  Mo7       1.0  0.32017  0.28412  0.15895  1.0000
  Mo  Mo8       1.0  0.67983  0.71588  0.84105  1.0000
  Mo  Mo9       1.0  0.42734  0.47256  0.14714  1.0000
  Mo  Mo10      1.0  0.57266  0.52744  0.85286  1.0000
  Co  Co1       1.0  0.32961  0.56543  0.55423  1.0000
  Co  Co2       1.0  0.67039  0.43457  0.44577  1.0000
  Co  Co3       1.0  0.66842  0.77772  0.58042  1.0000
  Co  Co4       1.0  0.33158  0.22228  0.41958  1.0000
  Co  Co5       1.0  0.61755  0.70447  0.39185  1.0000
  Co  Co6       1.0  0.38245  0.29553  0.60815  1.0000
  P   P1        1.0  0.42360  0.72189  0.48610  1.0000
  P   P2        1.0  0.57640  0.27811  0.51390  1.0000
  P   P3        1.0  0.20869  0.36359  0.50413  1.0000
  P   P4        1.0  0.79131  0.63641  0.49587  1.0000
  P   P5        1.0  0.19348  0.45321  0.22050  1.0000
  P   P6        1.0  0.80652  0.54679  0.77950  1.0000
  O   O1        1.0  0.54400  0.43080  0.36719  1.0000
  O   O2        1.0  0.45600  0.56920  0.63281  1.0000
  O   O3        1.0  0.18640  0.36900  0.41541  1.0000
  O   O4        1.0  0.81360  0.63100  0.58459  1.0000
  O   O5        1.0  0.25140  0.45270  0.56556  1.0000
  O   O6        1.0  0.74860  0.54730  0.43444  1.0000
  O   O7        1.0  0.53750  0.73730  0.48322  1.0000
  O   O8        1.0  0.46250  0.26270  0.51678  1.0000
  O   O9        1.0  0.39820  0.50260  0.44975  1.0000
  O   O10       1.0  0.60180  0.49740  0.55025  1.0000
  O   O11       1.0  0.39820  0.68600  0.55485  1.0000
  O   O12       1.0  0.60180  0.31400  0.44515  1.0000
  O   O13       1.0  0.24260  0.54570  0.27594  1.0000
  O   O14       1.0  0.75740  0.45430  0.72406  1.0000
  O   O15       1.0  0.18790  0.25250  0.18587  1.0000
  O   O16       1.0  0.81210  0.74750  0.81413  1.0000
  O   O17       1.0  0.15080  0.40170  0.27475  1.0000
  O   O18       1.0  0.84920  0.59830  0.72525  1.0000
  O   O19       1.0  0.33210  0.35550  0.30254  1.0000
  O   O20       1.0  0.66790  0.64450  0.69746  1.0000
  O   O21       1.0  0.56980  0.77890  0.65786  1.0000
  O   O22       1.0  0.43020  0.22110  0.34214  1.0000
  H   H1        1.0  0.50920  0.74420  0.64030  1.0000
  H   H2        1.0  0.49080  0.25580  0.35970  1.0000
  H   H3        1.0  0.57830  0.78700  0.71150  1.0000
  H   H4        1.0  0.42170  0.21300  0.28850  1.0000
  O   O23       1.0  0.26830  0.41060  0.16907  1.0000
  O   O24       1.0  0.73170  0.58940  0.83093  1.0000
  O   O25       1.0  0.65650  0.60280  0.32036  1.0000
  O   O26       1.0  0.34350  0.39720  0.67964  1.0000
  H   H5        1.0  0.60830  0.57340  0.27800  1.0000
  H   H6        1.0  0.39170  0.42660  0.72200  1.0000
  H   H7        1.0  0.66090  0.56660  0.34770  1.0000
  H   H8        1.0  0.33910  0.43340  0.65230  1.0000
  O   O27       1.0  0.37130  0.57210  0.17040  1.0000
  O   O28       1.0  0.62870  0.42790  0.82960  1.0000
  O   O29       1.0  0.36230  0.65970  0.40200  1.0000
  O   O30       1.0  0.63770  0.34030  0.59800  1.0000
  O   O31       1.0  0.43840  0.37280  0.17611  1.0000
  O   O32       1.0  0.56160  0.62720  0.82389  1.0000
  O   O33       1.0  0.21030  0.55240  0.45836  1.0000
  O   O34       1.0  0.78970  0.44760  0.54164  1.0000
  H   H9        1.0  0.18590  0.49940  0.42630  1.0000
  H   H10       1.0  0.81410  0.50060  0.57370  1.0000
  H   H11       1.0  0.23740  0.57820  0.42530  1.0000
  H   H12       1.0  0.76260  0.42180  0.57470  1.0000
  O   O35       1.0  0.49770  0.69590  0.30678  1.0000
  O   O36       1.0  0.50230  0.30410  0.69322  1.0000
  O   O37       1.0  0.28280  0.30670  0.50656  1.0000
  O   O38       1.0  0.71720  0.69330  0.49344  1.0000
  O   O39       1.0  0.39560  0.43190  0.04266  1.0000
  O   O40       1.0  0.60440  0.56810  0.95734  1.0000
  O   O41       1.0  0.21630  0.21560  0.33240  1.0000
  O   O42       1.0  0.78370  0.78440  0.66760  1.0000
  O   O43       1.0  0.70090  0.82450  0.40590  1.0000
  O   O44       1.0  0.29910  0.17550  0.59410  1.0000
  O   O45       1.0  0.04070  0.24590  0.28214  1.0000
  O   O46       1.0  0.95930  0.75410  0.71786  1.0000
  O   O47       1.0  0.43400  0.52590  0.29439  1.0000
  O   O48       1.0  0.56600  0.47410  0.70561  1.0000
  O   O49       1.0  0.29100  0.24440  0.05410  1.0000
  O   O50       1.0  0.70900  0.75560  0.94590  1.0000
  O   O51       1.0  0.37430  0.21000  0.18466  1.0000
  O   O52       1.0  0.62570  0.79000  0.81534  1.0000
  O   O53       1.0  0.55290  0.52280  0.16464  1.0000
  O   O54       1.0  0.44710  0.47720  0.83536  1.0000
  O   O55       1.0  0.71930  0.87960  0.54730  1.0000
  O   O56       1.0  0.28070  0.12040  0.45270  1.0000
  O   O57       1.0  0.30890  0.71010  0.26259  1.0000
  O   O58       1.0  0.69110  0.28990  0.73741  1.0000
  N   N1        1.0  0.27020  0.62950  0.65900  1.0000
  N   N2        1.0  0.72980  0.37050  0.34100  1.0000
  C   C1        1.0  0.08960  0.45770  0.14980  1.0000
  C   C2        1.0  0.91040  0.54230  0.85020  1.0000
  C   C3        1.0  0.08960  0.31520  0.52950  1.0000
  C   C4        1.0  0.91040  0.68480  0.47050  1.0000
  C   C5        1.0  0.32890  0.68800  0.72650  1.0000
  C   C6        1.0  0.67110  0.31200  0.27350  1.0000
  H   H13       1.0  0.39980  0.69770  0.72940  1.0000
  H   H14       1.0  0.60020  0.30230  0.27060  1.0000
  C   C7        1.0  0.03320  0.36610  0.09680  1.0000
  C   C8        1.0  0.96680  0.63390  0.90320  1.0000
  H   H15       1.0  0.01200  0.33300  0.13320  1.0000
  H   H16       1.0  0.98800  0.66700  0.86680  1.0000
  H   H17       1.0  0.07760  0.33890  0.06140  1.0000
  H   H18       1.0  0.92240  0.66110  0.93860  1.0000
  H   H19       1.0  0.97380  0.36800  0.06190  1.0000
  H   H20       1.0  0.02620  0.63200  0.93810  1.0000
  C   C9        1.0  0.18700  0.71960  0.78920  1.0000
  C   C10       1.0  0.81300  0.28040  0.21080  1.0000
  H   H21       1.0  0.15880  0.75050  0.83400  1.0000
  H   H22       1.0  0.84120  0.24950  0.16600  1.0000
  C   C11       1.0  0.02070  0.50490  0.19990  1.0000
  C   C12       1.0  0.97930  0.49510  0.80010  1.0000
  H   H23       1.0  0.05860  0.56300  0.23320  1.0000
  H   H24       1.0  0.94140  0.43700  0.76680  1.0000
  H   H25       1.0  0.99420  0.47410  0.23680  1.0000
  H   H26       1.0  0.00580  0.52590  0.76320  1.0000
  H   H27       1.0  0.96480  0.50790  0.16220  1.0000
  H   H28       1.0  0.03520  0.49210  0.83780  1.0000
  C   C13       1.0  0.17070  0.61550  0.65650  1.0000
  C   C14       1.0  0.82930  0.38450  0.34350  1.0000
  H   H29       1.0  0.12850  0.57380  0.60870  1.0000
  H   H30       1.0  0.87150  0.42620  0.39130  1.0000
  C   C15       1.0  0.13280  0.50670  0.09250  1.0000
  C   C16       1.0  0.86720  0.49330  0.90750  1.0000
  H   H31       1.0  0.17450  0.47440  0.05810  1.0000
  H   H32       1.0  0.82550  0.52560  0.94190  1.0000
  H   H33       1.0  0.17400  0.56340  0.12650  1.0000
  H   H34       1.0  0.82600  0.43660  0.87350  1.0000
  H   H35       1.0  0.07750  0.51320  0.05670  1.0000
  H   H36       1.0  0.92250  0.48680  0.94330  1.0000
  C   C17       1.0  0.29040  0.73500  0.79230  1.0000
  C   C18       1.0  0.70960  0.26500  0.20770  1.0000
  H   H37       1.0  0.33400  0.77710  0.83890  1.0000
  H   H38       1.0  0.66600  0.22290  0.16110  1.0000
  C   C19       1.0  0.12600  0.65910  0.72050  1.0000
  C   C20       1.0  0.87400  0.34090  0.27950  1.0000
  H   H39       1.0  0.05490  0.64720  0.71690  1.0000
  H   H40       1.0  0.94510  0.35280  0.28310  1.0000
  C   C21       1.0  0.38530  0.82210  0.50470  1.0000
  C   C22       1.0  0.61470  0.17790  0.49530  1.0000
  C   C23       1.0  0.78090  0.96970  0.47070  1.0000
  C   C24       1.0  0.21910  0.03030  0.52930  1.0000
  H   H41       1.0  0.75930  0.97290  0.41520  1.0000
  H   H42       1.0  0.24070  0.02710  0.58480  1.0000
  H   H43       1.0  0.75980  0.01520  0.51260  1.0000
  H   H44       1.0  0.24020  0.98480  0.48740  1.0000
  C   C25       1.0  0.72870  0.88280  0.47470  1.0000
  C   C26       1.0  0.27130  0.11720  0.52530  1.0000
  C   C27       1.0  0.01130  0.36390  0.51140  1.0000
  C   C28       1.0  0.98870  0.63610  0.48860  1.0000
  H   H45       1.0  0.00480  0.36030  0.45280  1.0000
  H   H46       1.0  0.99520  0.63970  0.54720  1.0000
  H   H47       1.0  0.03330  0.42420  0.54660  1.0000
  H   H48       1.0  0.96670  0.57580  0.45340  1.0000
  H   H49       1.0  0.94610  0.33820  0.52330  1.0000
  H   H50       1.0  0.05390  0.66180  0.47670  1.0000
  C   C29       1.0  0.89470  0.98590  0.48630  1.0000
  C   C30       1.0  0.10530  0.01410  0.51370  1.0000
  C   C31       1.0  0.42050  0.87920  0.59550  1.0000
  C   C32       1.0  0.57950  0.12080  0.40450  1.0000
  H   H51       1.0  0.38870  0.85040  0.63190  1.0000
  H   H52       1.0  0.61130  0.14960  0.36810  1.0000
  H   H53       1.0  0.40150  0.93390  0.60400  1.0000
  H   H54       1.0  0.59850  0.06610  0.39600  1.0000
  H   H55       1.0  0.49370  0.89000  0.60870  1.0000
  H   H56       1.0  0.50630  0.11000  0.39130  1.0000
  C   C33       1.0  0.94650  0.95580  0.42150  1.0000
  C   C34       1.0  0.05350  0.04420  0.57850  1.0000
  H   H57       1.0  0.91000  0.92580  0.36710  1.0000
  H   H58       1.0  0.09000  0.07420  0.63290  1.0000
  C   C35       1.0  0.26930  0.79940  0.48550  1.0000
  C   C36       1.0  0.73070  0.20060  0.51450  1.0000
  H   H59       1.0  0.24720  0.76610  0.42660  1.0000
  H   H60       1.0  0.75280  0.23390  0.57340  1.0000
  H   H61       1.0  0.24560  0.85230  0.49850  1.0000
  H   H62       1.0  0.75440  0.14770  0.50150  1.0000
  H   H63       1.0  0.24160  0.76550  0.51940  1.0000
  H   H64       1.0  0.75840  0.23450  0.48060  1.0000
  C   C37       1.0  0.05360  0.22020  0.47690  1.0000
  C   C38       1.0  0.94640  0.77980  0.52310  1.0000
  H   H65       1.0  0.10230  0.18900  0.48990  1.0000
  H   H66       1.0  0.89770  0.81100  0.51010  1.0000
  H   H67       1.0  0.04740  0.21450  0.41790  1.0000
  H   H68       1.0  0.95260  0.78550  0.58210  1.0000
  H   H69       1.0  0.98800  0.19620  0.48940  1.0000
  H   H70       1.0  0.01200  0.80380  0.51060  1.0000
  C   C39       1.0  0.10250  0.32280  0.62230  1.0000
  C   C40       1.0  0.89750  0.67720  0.37770  1.0000
  H   H71       1.0  0.12540  0.38340  0.65650  1.0000
  H   H72       1.0  0.87460  0.61660  0.34350  1.0000
  H   H73       1.0  0.15230  0.29180  0.63350  1.0000
  H   H74       1.0  0.84770  0.70820  0.36650  1.0000
  H   H75       1.0  0.03790  0.29790  0.63570  1.0000
  H   H76       1.0  0.96210  0.70210  0.36430  1.0000
  C   C41       1.0  0.94870  0.03130  0.56530  1.0000
  C   C42       1.0  0.05130  0.96870  0.43470  1.0000
  H   H77       1.0  0.91470  0.05330  0.61000  1.0000
  H   H78       1.0  0.08530  0.94670  0.39000  1.0000
  C   C43       1.0  0.43030  0.86980  0.44780  1.0000
  C   C44       1.0  0.56970  0.13020  0.55220  1.0000
  H   H79       1.0  0.50380  0.88520  0.46160  1.0000
  H   H80       1.0  0.49620  0.11480  0.53840  1.0000
  H   H81       1.0  0.40580  0.92190  0.45580  1.0000
  H   H82       1.0  0.59420  0.07810  0.54420  1.0000
  H   H83       1.0  0.40990  0.83260  0.38980  1.0000
  H   H84       1.0  0.59010  0.16740  0.61020  1.0000
