data_image0
_chemical_formula_structural       U5P8O2H2O32C2H4C2H4C2H4C2H4
_chemical_formula_sum              "U5 P8 O34 H18 C8"
_cell_length_a       9.8792
_cell_length_b       12.0798
_cell_length_c       12.2591
_cell_angle_alpha    109.808
_cell_angle_beta     100.045
_cell_angle_gamma    102.515

_space_group_name_H-M_alt    "P 1"
_space_group_IT_number       1

loop_
  _space_group_symop_operation_xyz
  'x, y, z'

loop_
  _atom_site_type_symbol
  _atom_site_label
  _atom_site_symmetry_multiplicity
  _atom_site_fract_x
  _atom_site_fract_y
  _atom_site_fract_z
  _atom_site_occupancy
  U   U1        1.0  0.89620  0.17411  0.52161  1.0000
  U   U2        1.0  0.10380  0.82589  0.47839  1.0000
  U   U3        1.0  0.13682  0.33724  0.98842  1.0000
  U   U4        1.0  0.86318  0.66276  0.01158  1.0000
  U   U5        1.0  0.50000  0.50000  0.50000  1.0000
  P   P1        1.0  0.74280  0.33790  0.36620  1.0000
  P   P2        1.0  0.25720  0.66210  0.63380  1.0000
  P   P3        1.0  0.01710  0.54250  0.20850  1.0000
  P   P4        1.0  0.98290  0.45750  0.79150  1.0000
  P   P5        1.0  0.03550  0.04740  0.72830  1.0000
  P   P6        1.0  0.96450  0.95260  0.27170  1.0000
  P   P7        1.0  0.72280  0.75850  0.77940  1.0000
  P   P8        1.0  0.27720  0.24150  0.22060  1.0000
  O   O1        1.0  0.64660  0.23060  0.25110  1.0000
  O   O2        1.0  0.35340  0.76940  0.74890  1.0000
  H   H1        1.0  0.56220  0.22900  0.24570  1.0000
  H   H2        1.0  0.43780  0.77100  0.75430  1.0000
  O   O3        1.0  0.65860  0.38720  0.45250  1.0000
  O   O4        1.0  0.34140  0.61280  0.54750  1.0000
  O   O5        1.0  0.86250  0.29650  0.42160  1.0000
  O   O6        1.0  0.13750  0.70350  0.57840  1.0000
  O   O7        1.0  0.12890  0.50560  0.14290  1.0000
  O   O8        1.0  0.87110  0.49440  0.85710  1.0000
  O   O9        1.0  0.88730  0.54880  0.12440  1.0000
  O   O10       1.0  0.11270  0.45120  0.87560  1.0000
  O   O11       1.0  0.09370  0.66730  0.30910  1.0000
  O   O12       1.0  0.90630  0.33270  0.69090  1.0000
  O   O13       1.0  0.13310  0.16960  0.82590  1.0000
  O   O14       1.0  0.86690  0.83040  0.17410  1.0000
  O   O15       1.0  0.92140  0.06550  0.63960  1.0000
  O   O16       1.0  0.07860  0.93450  0.36040  1.0000
  O   O17       1.0  0.13270  0.98050  0.66390  1.0000
  O   O18       1.0  0.86730  0.01950  0.33610  1.0000
  O   O19       1.0  0.62040  0.83080  0.82260  1.0000
  O   O20       1.0  0.37960  0.16920  0.17740  1.0000
  O   O21       1.0  0.64360  0.62800  0.68860  1.0000
  O   O22       1.0  0.35640  0.37200  0.31140  1.0000
  O   O23       1.0  0.82810  0.75860  0.88650  1.0000
  O   O24       1.0  0.17190  0.24140  0.11350  1.0000
  O   O25       1.0  0.08350  0.22150  0.54640  1.0000
  O   O26       1.0  0.91650  0.77850  0.45360  1.0000
  O   O27       1.0  0.70890  0.11560  0.49830  1.0000
  O   O28       1.0  0.29110  0.88440  0.50170  1.0000
  O   O29       1.0  0.32630  0.40160  0.01910  1.0000
  O   O30       1.0  0.67370  0.59840  0.98090  1.0000
  O   O31       1.0  0.94720  0.28020  0.95640  1.0000
  O   O32       1.0  0.05280  0.71980  0.04360  1.0000
  O   O33       1.0  0.41960  0.39650  0.55920  1.0000
  O   O34       1.0  0.58040  0.60350  0.44080  1.0000
  C   C1        1.0  0.82950  0.45670  0.32560  1.0000
  C   C2        1.0  0.17050  0.54330  0.67440  1.0000
  H   H3        1.0  0.75740  0.47080  0.27140  1.0000
  H   H4        1.0  0.24260  0.52920  0.72860  1.0000
  H   H5        1.0  0.87030  0.53200  0.39750  1.0000
  H   H6        1.0  0.12970  0.46800  0.60250  1.0000
  C   C3        1.0  0.94980  0.43140  0.26460  1.0000
  C   C4        1.0  0.05020  0.56860  0.73540  1.0000
  H   H7        1.0  0.91280  0.35100  0.19870  1.0000
  H   H8        1.0  0.08720  0.64900  0.80130  1.0000
  H   H9        1.0  0.02850  0.42880  0.32250  1.0000
  H   H10       1.0  0.97150  0.57120  0.67750  1.0000
  C   C5        1.0  0.94340  0.95580  0.79890  1.0000
  C   C6        1.0  0.05660  0.04420  0.20110  1.0000
  H   H11       1.0  0.01420  0.93670  0.84930  1.0000
  H   H12       1.0  0.98580  0.06330  0.15070  1.0000
  H   H13       1.0  0.89580  0.00450  0.85070  1.0000
  H   H14       1.0  0.10420  0.99550  0.14930  1.0000
  C   C7        1.0  0.83390  0.83770  0.71070  1.0000
  C   C8        1.0  0.16610  0.16230  0.28930  1.0000
  H   H15       1.0  0.88350  0.78350  0.66780  1.0000
  H   H16       1.0  0.11650  0.21650  0.33220  1.0000
  H   H17       1.0  0.77250  0.85570  0.65210  1.0000
  H   H18       1.0  0.22750  0.14430  0.34790  1.0000
