data_image0
_chemical_formula_structural       Ho4O40H16N8C8H8C16H8C8H8C16H8C16H8C8H8C16H8C16
_chemical_formula_sum              "Ho4 O40 H72 N8 C104"
_cell_length_a       23.367
_cell_length_b       11.476
_cell_length_c       11.949
_cell_angle_alpha    90
_cell_angle_beta     120.19
_cell_angle_gamma    90

_space_group_name_H-M_alt    "P 1"
_space_group_IT_number       1

loop_
  _space_group_symop_operation_xyz
  'x, y, z'

loop_
  _atom_site_type_symbol
  _atom_site_label
  _atom_site_symmetry_multiplicity
  _atom_site_fract_x
  _atom_site_fract_y
  _atom_site_fract_z
  _atom_site_occupancy
  Ho  Ho1       1.0  0.50000  0.56370  0.75000  1.0000
  Ho  Ho2       1.0  0.00000  0.06370  0.75000  1.0000
  Ho  Ho3       1.0  0.50000  0.43630  0.25000  1.0000
  Ho  Ho4       1.0  0.00000  0.93630  0.25000  1.0000
  O   O1        1.0  0.64190  0.34470  0.90360  1.0000
  O   O2        1.0  0.35810  0.34470  0.59640  1.0000
  O   O3        1.0  0.14190  0.84470  0.90360  1.0000
  O   O4        1.0  0.85810  0.84470  0.59640  1.0000
  O   O5        1.0  0.35810  0.65530  0.09640  1.0000
  O   O6        1.0  0.64190  0.65530  0.40360  1.0000
  O   O7        1.0  0.85810  0.15530  0.09640  1.0000
  O   O8        1.0  0.14190  0.15530  0.40360  1.0000
  O   O9        1.0  0.59660  0.49390  0.76480  1.0000
  O   O10       1.0  0.40340  0.49390  0.73520  1.0000
  O   O11       1.0  0.09660  0.99390  0.76480  1.0000
  O   O12       1.0  0.90340  0.99390  0.73520  1.0000
  O   O13       1.0  0.40340  0.50610  0.23520  1.0000
  O   O14       1.0  0.59660  0.50610  0.26480  1.0000
  O   O15       1.0  0.90340  0.00610  0.23520  1.0000
  O   O16       1.0  0.09660  0.00610  0.26480  1.0000
  O   O17       1.0  0.99150  0.15870  0.56530  1.0000
  O   O18       1.0  0.00850  0.15870  0.93470  1.0000
  O   O19       1.0  0.49150  0.65870  0.56530  1.0000
  O   O20       1.0  0.50850  0.65870  0.93470  1.0000
  O   O21       1.0  0.00850  0.84130  0.43470  1.0000
  O   O22       1.0  0.99150  0.84130  0.06530  1.0000
  O   O23       1.0  0.50850  0.34130  0.43470  1.0000
  O   O24       1.0  0.49150  0.34130  0.06530  1.0000
  O   O25       1.0  0.95220  0.30010  0.41340  1.0000
  O   O26       1.0  0.04780  0.30010  0.08660  1.0000
  O   O27       1.0  0.45220  0.80010  0.41340  1.0000
  O   O28       1.0  0.54780  0.80010  0.08660  1.0000
  O   O29       1.0  0.04780  0.69990  0.58660  1.0000
  O   O30       1.0  0.95220  0.69990  0.91340  1.0000
  O   O31       1.0  0.54780  0.19990  0.58660  1.0000
  O   O32       1.0  0.45220  0.19990  0.91340  1.0000
  O   O33       1.0  0.46220  0.41370  0.59460  1.0000
  O   O34       1.0  0.53780  0.41370  0.90540  1.0000
  O   O35       1.0  0.96220  0.91370  0.59460  1.0000
  O   O36       1.0  0.03780  0.91370  0.90540  1.0000
  O   O37       1.0  0.53780  0.58630  0.40540  1.0000
  O   O38       1.0  0.46220  0.58630  0.09460  1.0000
  O   O39       1.0  0.03780  0.08630  0.40540  1.0000
  O   O40       1.0  0.96220  0.08630  0.09460  1.0000
  H   H1        1.0  0.48960  0.37490  0.58260  1.0000
  H   H2        1.0  0.51040  0.37490  0.91740  1.0000
  H   H3        1.0  0.98960  0.87490  0.58260  1.0000
  H   H4        1.0  0.01040  0.87490  0.91740  1.0000
  H   H5        1.0  0.51040  0.62510  0.41740  1.0000
  H   H6        1.0  0.48960  0.62510  0.08260  1.0000
  H   H7        1.0  0.01040  0.12510  0.41740  1.0000
  H   H8        1.0  0.98960  0.12510  0.08260  1.0000
  H   H9        1.0  0.42110  0.39840  0.55050  1.0000
  H   H10       1.0  0.57890  0.39840  0.94950  1.0000
  H   H11       1.0  0.92110  0.89840  0.55050  1.0000
  H   H12       1.0  0.07890  0.89840  0.94950  1.0000
  H   H13       1.0  0.57890  0.60160  0.44950  1.0000
  H   H14       1.0  0.42110  0.60160  0.05050  1.0000
  H   H15       1.0  0.07890  0.10160  0.44950  1.0000
  H   H16       1.0  0.92110  0.10160  0.05050  1.0000
  N   N1        1.0  0.91580  0.23050  0.65510  1.0000
  N   N2        1.0  0.08420  0.23050  0.84490  1.0000
  N   N3        1.0  0.41580  0.73050  0.65510  1.0000
  N   N4        1.0  0.58420  0.73050  0.84490  1.0000
  N   N5        1.0  0.08420  0.76950  0.34490  1.0000
  N   N6        1.0  0.91580  0.76950  0.15510  1.0000
  N   N7        1.0  0.58420  0.26950  0.34490  1.0000
  N   N8        1.0  0.41580  0.26950  0.15510  1.0000
  C   C1        1.0  0.87560  0.25950  0.70000  1.0000
  C   C2        1.0  0.12440  0.25950  0.80000  1.0000
  C   C3        1.0  0.37560  0.75950  0.70000  1.0000
  C   C4        1.0  0.62440  0.75950  0.80000  1.0000
  C   C5        1.0  0.12440  0.74050  0.30000  1.0000
  C   C6        1.0  0.87560  0.74050  0.20000  1.0000
  C   C7        1.0  0.62440  0.24050  0.30000  1.0000
  C   C8        1.0  0.37560  0.24050  0.20000  1.0000
  H   H17       1.0  0.88360  0.22630  0.77750  1.0000
  H   H18       1.0  0.11640  0.22630  0.72250  1.0000
  H   H19       1.0  0.38360  0.72630  0.77750  1.0000
  H   H20       1.0  0.61640  0.72630  0.72250  1.0000
  H   H21       1.0  0.11640  0.77370  0.22250  1.0000
  H   H22       1.0  0.88360  0.77370  0.27750  1.0000
  H   H23       1.0  0.61640  0.27370  0.22250  1.0000
  H   H24       1.0  0.38360  0.27370  0.27750  1.0000
  C   C9        1.0  0.82280  0.33590  0.63820  1.0000
  C   C10       1.0  0.17720  0.33590  0.86180  1.0000
  C   C11       1.0  0.32280  0.83590  0.63820  1.0000
  C   C12       1.0  0.67720  0.83590  0.86180  1.0000
  C   C13       1.0  0.17720  0.66410  0.36180  1.0000
  C   C14       1.0  0.82280  0.66410  0.13820  1.0000
  C   C15       1.0  0.67720  0.16410  0.36180  1.0000
  C   C16       1.0  0.32280  0.16410  0.13820  1.0000
  C   C17       1.0  0.81260  0.38580  0.52240  1.0000
  C   C18       1.0  0.18740  0.38580  0.97760  1.0000
  C   C19       1.0  0.31260  0.88580  0.52240  1.0000
  C   C20       1.0  0.68740  0.88580  0.97760  1.0000
  C   C21       1.0  0.18740  0.61420  0.47760  1.0000
  C   C22       1.0  0.81260  0.61420  0.02240  1.0000
  C   C23       1.0  0.68740  0.11420  0.47760  1.0000
  C   C24       1.0  0.31260  0.11420  0.02240  1.0000
  H   H25       1.0  0.77760  0.43710  0.47660  1.0000
  H   H26       1.0  0.22240  0.43710  0.02340  1.0000
  H   H27       1.0  0.27760  0.93710  0.47660  1.0000
  H   H28       1.0  0.72240  0.93710  0.02340  1.0000
  H   H29       1.0  0.22240  0.56290  0.52340  1.0000
  H   H30       1.0  0.77760  0.56290  0.97660  1.0000
  H   H31       1.0  0.72240  0.06290  0.52340  1.0000
  H   H32       1.0  0.27760  0.06290  0.97660  1.0000
  C   C25       1.0  0.85440  0.35860  0.47710  1.0000
  C   C26       1.0  0.14560  0.35860  0.02290  1.0000
  C   C27       1.0  0.35440  0.85860  0.47710  1.0000
  C   C28       1.0  0.64560  0.85860  0.02290  1.0000
  C   C29       1.0  0.14560  0.64140  0.52290  1.0000
  C   C30       1.0  0.85440  0.64140  0.97710  1.0000
  C   C31       1.0  0.64560  0.14140  0.52290  1.0000
  C   C32       1.0  0.35440  0.14140  0.97710  1.0000
  H   H33       1.0  0.84850  0.39210  0.40120  1.0000
  H   H34       1.0  0.15150  0.39210  0.09880  1.0000
  H   H35       1.0  0.34850  0.89210  0.40120  1.0000
  H   H36       1.0  0.65150  0.89210  0.09880  1.0000
  H   H37       1.0  0.15150  0.60790  0.59880  1.0000
  H   H38       1.0  0.84850  0.60790  0.90120  1.0000
  H   H39       1.0  0.65150  0.10790  0.59880  1.0000
  H   H40       1.0  0.34850  0.10790  0.90120  1.0000
  C   C33       1.0  0.90630  0.27940  0.54700  1.0000
  C   C34       1.0  0.09370  0.27940  0.95300  1.0000
  C   C35       1.0  0.40630  0.77940  0.54700  1.0000
  C   C36       1.0  0.59370  0.77940  0.95300  1.0000
  C   C37       1.0  0.09370  0.72060  0.45300  1.0000
  C   C38       1.0  0.90630  0.72060  0.04700  1.0000
  C   C39       1.0  0.59370  0.22060  0.45300  1.0000
  C   C40       1.0  0.40630  0.22060  0.04700  1.0000
  C   C41       1.0  0.78040  0.29380  0.78820  1.0000
  C   C42       1.0  0.21960  0.29380  0.71180  1.0000
  C   C43       1.0  0.28040  0.79380  0.78820  1.0000
  C   C44       1.0  0.71960  0.79380  0.71180  1.0000
  C   C45       1.0  0.21960  0.70620  0.21180  1.0000
  C   C46       1.0  0.78040  0.70620  0.28820  1.0000
  C   C47       1.0  0.71960  0.20620  0.21180  1.0000
  C   C48       1.0  0.28040  0.20620  0.28820  1.0000
  H   H41       1.0  0.81300  0.23720  0.82800  1.0000
  H   H42       1.0  0.18700  0.23720  0.67200  1.0000
  H   H43       1.0  0.31300  0.73720  0.82800  1.0000
  H   H44       1.0  0.68700  0.73720  0.67200  1.0000
  H   H45       1.0  0.18700  0.76280  0.17200  1.0000
  H   H46       1.0  0.81300  0.76280  0.32800  1.0000
  H   H47       1.0  0.68700  0.26280  0.17200  1.0000
  H   H48       1.0  0.31300  0.26280  0.32800  1.0000
  C   C49       1.0  0.77760  0.35970  0.68800  1.0000
  C   C50       1.0  0.22240  0.35970  0.81200  1.0000
  C   C51       1.0  0.27760  0.85970  0.68800  1.0000
  C   C52       1.0  0.72240  0.85970  0.81200  1.0000
  C   C53       1.0  0.22240  0.64030  0.31200  1.0000
  C   C54       1.0  0.77760  0.64030  0.18800  1.0000
  C   C55       1.0  0.72240  0.14030  0.31200  1.0000
  C   C56       1.0  0.27760  0.14030  0.18800  1.0000
  C   C57       1.0  0.72880  0.44400  0.63360  1.0000
  C   C58       1.0  0.27120  0.44400  0.86640  1.0000
  C   C59       1.0  0.22880  0.94400  0.63360  1.0000
  C   C60       1.0  0.77120  0.94400  0.86640  1.0000
  C   C61       1.0  0.27120  0.55600  0.36640  1.0000
  C   C62       1.0  0.72880  0.55600  0.13360  1.0000
  C   C63       1.0  0.77120  0.05600  0.36640  1.0000
  C   C64       1.0  0.22880  0.05600  0.13360  1.0000
  H   H49       1.0  0.72650  0.49070  0.56780  1.0000
  H   H50       1.0  0.27350  0.49070  0.93220  1.0000
  H   H51       1.0  0.22650  0.99070  0.56780  1.0000
  H   H52       1.0  0.77350  0.99070  0.93220  1.0000
  H   H53       1.0  0.27350  0.50930  0.43220  1.0000
  H   H54       1.0  0.72650  0.50930  0.06780  1.0000
  H   H55       1.0  0.77350  0.00930  0.43220  1.0000
  H   H56       1.0  0.22650  0.00930  0.06780  1.0000
  C   C65       1.0  0.68370  0.46110  0.67360  1.0000
  C   C66       1.0  0.31630  0.46110  0.82640  1.0000
  C   C67       1.0  0.18370  0.96110  0.67360  1.0000
  C   C68       1.0  0.81630  0.96110  0.82640  1.0000
  C   C69       1.0  0.31630  0.53890  0.32640  1.0000
  C   C70       1.0  0.68370  0.53890  0.17360  1.0000
  C   C71       1.0  0.81630  0.03890  0.32640  1.0000
  C   C72       1.0  0.18370  0.03890  0.17360  1.0000
  H   H57       1.0  0.65130  0.51800  0.63430  1.0000
  H   H58       1.0  0.34870  0.51800  0.86570  1.0000
  H   H59       1.0  0.15130  0.01800  0.63430  1.0000
  H   H60       1.0  0.84870  0.01800  0.86570  1.0000
  H   H61       1.0  0.34870  0.48200  0.36570  1.0000
  H   H62       1.0  0.65130  0.48200  0.13430  1.0000
  H   H63       1.0  0.84870  0.98200  0.36570  1.0000
  H   H64       1.0  0.15130  0.98200  0.13430  1.0000
  C   C73       1.0  0.68650  0.39360  0.77250  1.0000
  C   C74       1.0  0.31350  0.39360  0.72750  1.0000
  C   C75       1.0  0.18650  0.89360  0.77250  1.0000
  C   C76       1.0  0.81350  0.89360  0.72750  1.0000
  C   C77       1.0  0.31350  0.60640  0.22750  1.0000
  C   C78       1.0  0.68650  0.60640  0.27250  1.0000
  C   C79       1.0  0.81350  0.10640  0.22750  1.0000
  C   C80       1.0  0.18650  0.10640  0.27250  1.0000
  C   C81       1.0  0.73570  0.31100  0.82970  1.0000
  C   C82       1.0  0.26430  0.31100  0.67030  1.0000
  C   C83       1.0  0.23570  0.81100  0.82970  1.0000
  C   C84       1.0  0.76430  0.81100  0.67030  1.0000
  C   C85       1.0  0.26430  0.68900  0.17030  1.0000
  C   C86       1.0  0.73570  0.68900  0.32970  1.0000
  C   C87       1.0  0.76430  0.18900  0.17030  1.0000
  C   C88       1.0  0.23570  0.18900  0.32970  1.0000
  H   H65       1.0  0.73880  0.26610  0.89740  1.0000
  H   H66       1.0  0.26120  0.26610  0.60260  1.0000
  H   H67       1.0  0.23880  0.76610  0.89740  1.0000
  H   H68       1.0  0.76120  0.76610  0.60260  1.0000
  H   H69       1.0  0.26120  0.73390  0.10260  1.0000
  H   H70       1.0  0.73880  0.73390  0.39740  1.0000
  H   H71       1.0  0.76120  0.23390  0.10260  1.0000
  H   H72       1.0  0.23880  0.23390  0.39740  1.0000
  C   C89       1.0  0.63770  0.41120  0.81660  1.0000
  C   C90       1.0  0.36230  0.41120  0.68340  1.0000
  C   C91       1.0  0.13770  0.91120  0.81660  1.0000
  C   C92       1.0  0.86230  0.91120  0.68340  1.0000
  C   C93       1.0  0.36230  0.58880  0.18340  1.0000
  C   C94       1.0  0.63770  0.58880  0.31660  1.0000
  C   C95       1.0  0.86230  0.08880  0.18340  1.0000
  C   C96       1.0  0.13770  0.08880  0.31660  1.0000
  C   C97       1.0  0.95350  0.24320  0.50300  1.0000
  C   C98       1.0  0.04650  0.24320  0.99700  1.0000
  C   C99       1.0  0.45350  0.74320  0.50300  1.0000
  C   C100      1.0  0.54650  0.74320  0.99700  1.0000
  C   C101      1.0  0.04650  0.75680  0.49700  1.0000
  C   C102      1.0  0.95350  0.75680  0.00300  1.0000
  C   C103      1.0  0.54650  0.25680  0.49700  1.0000
  C   C104      1.0  0.45350  0.25680  0.00300  1.0000
