data_image0
_chemical_formula_structural       O8C24Eu4O16N8C24O16C56H72
_chemical_formula_sum              "O40 C104 Eu4 N8 H72"
_cell_length_a       23.56
_cell_length_b       11.451
_cell_length_c       11.957
_cell_angle_alpha    90
_cell_angle_beta     120.22
_cell_angle_gamma    90

_space_group_name_H-M_alt    "P 1"
_space_group_IT_number       1

loop_
  _space_group_symop_operation_xyz
  'x, y, z'

loop_
  _atom_site_type_symbol
  _atom_site_label
  _atom_site_symmetry_multiplicity
  _atom_site_fract_x
  _atom_site_fract_y
  _atom_site_fract_z
  _atom_site_occupancy
  O   O1        1.0  0.09735  0.00670  0.26540  1.0000
  O   O2        1.0  0.90265  0.00670  0.23460  1.0000
  O   O3        1.0  0.59735  0.50670  0.26540  1.0000
  O   O4        1.0  0.40265  0.50670  0.23460  1.0000
  O   O5        1.0  0.90265  0.99330  0.73460  1.0000
  O   O6        1.0  0.09735  0.99330  0.76540  1.0000
  O   O7        1.0  0.40265  0.49330  0.73460  1.0000
  O   O8        1.0  0.59735  0.49330  0.76540  1.0000
  C   C1        1.0  0.13870  0.09020  0.31810  1.0000
  C   C2        1.0  0.86130  0.09020  0.18190  1.0000
  C   C3        1.0  0.63870  0.59020  0.31810  1.0000
  C   C4        1.0  0.36130  0.59020  0.18190  1.0000
  C   C5        1.0  0.86130  0.90980  0.68190  1.0000
  C   C6        1.0  0.13870  0.90980  0.81810  1.0000
  C   C7        1.0  0.36130  0.40980  0.68190  1.0000
  C   C8        1.0  0.63870  0.40980  0.81810  1.0000
  C   C9        1.0  0.18710  0.10520  0.27280  1.0000
  C   C10       1.0  0.81290  0.10520  0.22720  1.0000
  C   C11       1.0  0.68710  0.60520  0.27280  1.0000
  C   C12       1.0  0.31290  0.60520  0.22720  1.0000
  C   C13       1.0  0.81290  0.89480  0.72720  1.0000
  C   C14       1.0  0.18710  0.89480  0.77280  1.0000
  C   C15       1.0  0.31290  0.39480  0.72720  1.0000
  C   C16       1.0  0.68710  0.39480  0.77280  1.0000
  C   C17       1.0  0.23580  0.18980  0.32920  1.0000
  C   C18       1.0  0.76420  0.18980  0.17080  1.0000
  C   C19       1.0  0.73580  0.68980  0.32920  1.0000
  C   C20       1.0  0.26420  0.68980  0.17080  1.0000
  C   C21       1.0  0.76420  0.81020  0.67080  1.0000
  C   C22       1.0  0.23580  0.81020  0.82920  1.0000
  C   C23       1.0  0.26420  0.31020  0.67080  1.0000
  C   C24       1.0  0.73580  0.31020  0.82920  1.0000
  Eu  Eu1       1.0  0.50000  0.43590  0.25000  1.0000
  Eu  Eu2       1.0  0.00000  0.93590  0.25000  1.0000
  Eu  Eu3       1.0  0.50000  0.56410  0.75000  1.0000
  Eu  Eu4       1.0  0.00000  0.06410  0.75000  1.0000
  O   O9        1.0  0.49057  0.33670  0.06310  1.0000
  O   O10       1.0  0.50943  0.33670  0.43690  1.0000
  O   O11       1.0  0.99057  0.83670  0.06310  1.0000
  O   O12       1.0  0.00943  0.83670  0.43690  1.0000
  O   O13       1.0  0.50943  0.66330  0.93690  1.0000
  O   O14       1.0  0.49057  0.66330  0.56310  1.0000
  O   O15       1.0  0.00943  0.16330  0.93690  1.0000
  O   O16       1.0  0.99057  0.16330  0.56310  1.0000
  O   O17       1.0  0.53820  0.58780  0.40760  1.0000
  O   O18       1.0  0.46180  0.58780  0.09240  1.0000
  O   O19       1.0  0.03820  0.08780  0.40760  1.0000
  O   O20       1.0  0.96180  0.08780  0.09240  1.0000
  O   O21       1.0  0.46180  0.41220  0.59240  1.0000
  O   O22       1.0  0.53820  0.41220  0.90760  1.0000
  O   O23       1.0  0.96180  0.91220  0.59240  1.0000
  O   O24       1.0  0.03820  0.91220  0.90760  1.0000
  N   N1        1.0  0.41504  0.26670  0.15470  1.0000
  N   N2        1.0  0.58496  0.26670  0.34530  1.0000
  N   N3        1.0  0.91504  0.76670  0.15470  1.0000
  N   N4        1.0  0.08496  0.76670  0.34530  1.0000
  N   N5        1.0  0.58496  0.73330  0.84530  1.0000
  N   N6        1.0  0.41504  0.73330  0.65470  1.0000
  N   N7        1.0  0.08496  0.23330  0.84530  1.0000
  N   N8        1.0  0.91504  0.23330  0.65470  1.0000
  C   C25       1.0  0.32120  0.16210  0.13490  1.0000
  C   C26       1.0  0.67880  0.16210  0.36510  1.0000
  C   C27       1.0  0.82120  0.66210  0.13490  1.0000
  C   C28       1.0  0.17880  0.66210  0.36510  1.0000
  C   C29       1.0  0.67880  0.83790  0.86510  1.0000
  C   C30       1.0  0.32120  0.83790  0.63490  1.0000
  C   C31       1.0  0.17880  0.33790  0.86510  1.0000
  C   C32       1.0  0.82120  0.33790  0.63490  1.0000
  C   C33       1.0  0.35360  0.14040  0.97540  1.0000
  C   C34       1.0  0.64640  0.14040  0.52460  1.0000
  C   C35       1.0  0.85360  0.64040  0.97540  1.0000
  C   C36       1.0  0.14640  0.64040  0.52460  1.0000
  C   C37       1.0  0.64640  0.85960  0.02460  1.0000
  C   C38       1.0  0.35360  0.85960  0.47540  1.0000
  C   C39       1.0  0.14640  0.35960  0.02460  1.0000
  C   C40       1.0  0.85360  0.35960  0.47540  1.0000
  C   C41       1.0  0.40470  0.21720  0.04450  1.0000
  C   C42       1.0  0.59530  0.21720  0.45550  1.0000
  C   C43       1.0  0.90470  0.71720  0.04450  1.0000
  C   C44       1.0  0.09530  0.71720  0.45550  1.0000
  C   C45       1.0  0.59530  0.78280  0.95550  1.0000
  C   C46       1.0  0.40470  0.78280  0.54450  1.0000
  C   C47       1.0  0.09530  0.28280  0.95550  1.0000
  C   C48       1.0  0.90470  0.28280  0.54450  1.0000
  O   O25       1.0  0.14192  0.15640  0.40320  1.0000
  O   O26       1.0  0.85808  0.15640  0.09680  1.0000
  O   O27       1.0  0.64192  0.65640  0.40320  1.0000
  O   O28       1.0  0.35808  0.65640  0.09680  1.0000
  O   O29       1.0  0.85808  0.84360  0.59680  1.0000
  O   O30       1.0  0.14192  0.84360  0.90320  1.0000
  O   O31       1.0  0.35808  0.34360  0.59680  1.0000
  O   O32       1.0  0.64192  0.34360  0.90320  1.0000
  O   O33       1.0  0.45027  0.19750  0.91020  1.0000
  O   O34       1.0  0.54973  0.19750  0.58980  1.0000
  O   O35       1.0  0.95027  0.69750  0.91020  1.0000
  O   O36       1.0  0.04973  0.69750  0.58980  1.0000
  O   O37       1.0  0.54973  0.80250  0.08980  1.0000
  O   O38       1.0  0.45027  0.80250  0.41020  1.0000
  O   O39       1.0  0.04973  0.30250  0.08980  1.0000
  O   O40       1.0  0.95027  0.30250  0.41020  1.0000
  C   C49       1.0  0.22840  0.05530  0.13280  1.0000
  C   C50       1.0  0.77160  0.05530  0.36720  1.0000
  C   C51       1.0  0.72840  0.55530  0.13280  1.0000
  C   C52       1.0  0.27160  0.55530  0.36720  1.0000
  C   C53       1.0  0.77160  0.94470  0.86720  1.0000
  C   C54       1.0  0.22840  0.94470  0.63280  1.0000
  C   C55       1.0  0.27160  0.44470  0.86720  1.0000
  C   C56       1.0  0.72840  0.44470  0.63280  1.0000
  C   C57       1.0  0.27680  0.13980  0.18750  1.0000
  C   C58       1.0  0.72320  0.13980  0.31250  1.0000
  C   C59       1.0  0.77680  0.63980  0.18750  1.0000
  C   C60       1.0  0.22320  0.63980  0.31250  1.0000
  C   C61       1.0  0.72320  0.86020  0.81250  1.0000
  C   C62       1.0  0.27680  0.86020  0.68750  1.0000
  C   C63       1.0  0.22320  0.36020  0.81250  1.0000
  C   C64       1.0  0.77680  0.36020  0.68750  1.0000
  C   C65       1.0  0.37400  0.23910  0.19770  1.0000
  C   C66       1.0  0.62600  0.23910  0.30230  1.0000
  C   C67       1.0  0.87400  0.73910  0.19770  1.0000
  C   C68       1.0  0.12600  0.73910  0.30230  1.0000
  C   C69       1.0  0.62600  0.76090  0.80230  1.0000
  C   C70       1.0  0.37400  0.76090  0.69770  1.0000
  C   C71       1.0  0.12600  0.26090  0.80230  1.0000
  C   C72       1.0  0.87400  0.26090  0.69770  1.0000
  C   C73       1.0  0.45210  0.25230  0.00090  1.0000
  C   C74       1.0  0.54790  0.25230  0.49910  1.0000
  C   C75       1.0  0.95210  0.75230  0.00090  1.0000
  C   C76       1.0  0.04790  0.75230  0.49910  1.0000
  C   C77       1.0  0.54790  0.74770  0.99910  1.0000
  C   C78       1.0  0.45210  0.74770  0.50090  1.0000
  C   C79       1.0  0.04790  0.24770  0.99910  1.0000
  C   C80       1.0  0.95210  0.24770  0.50090  1.0000
  C   C81       1.0  0.18380  0.03970  0.17420  1.0000
  C   C82       1.0  0.81620  0.03970  0.32580  1.0000
  C   C83       1.0  0.68380  0.53970  0.17420  1.0000
  C   C84       1.0  0.31620  0.53970  0.32580  1.0000
  C   C85       1.0  0.81620  0.96030  0.82580  1.0000
  C   C86       1.0  0.18380  0.96030  0.67420  1.0000
  C   C87       1.0  0.31620  0.46030  0.82580  1.0000
  C   C88       1.0  0.68380  0.46030  0.67420  1.0000
  C   C89       1.0  0.31160  0.11430  0.02140  1.0000
  C   C90       1.0  0.68840  0.11430  0.47860  1.0000
  C   C91       1.0  0.81160  0.61430  0.02140  1.0000
  C   C92       1.0  0.18840  0.61430  0.47860  1.0000
  C   C93       1.0  0.68840  0.88570  0.97860  1.0000
  C   C94       1.0  0.31160  0.88570  0.52140  1.0000
  C   C95       1.0  0.18840  0.38570  0.97860  1.0000
  C   C96       1.0  0.81160  0.38570  0.52140  1.0000
  C   C97       1.0  0.28040  0.20520  0.28870  1.0000
  C   C98       1.0  0.71960  0.20520  0.21130  1.0000
  C   C99       1.0  0.78040  0.70520  0.28870  1.0000
  C   C100      1.0  0.21960  0.70520  0.21130  1.0000
  C   C101      1.0  0.71960  0.79480  0.71130  1.0000
  C   C102      1.0  0.28040  0.79480  0.78870  1.0000
  C   C103      1.0  0.21960  0.29480  0.71130  1.0000
  C   C104      1.0  0.78040  0.29480  0.78870  1.0000
  H   H1        1.0  0.52900  0.60800  0.45400  1.0000
  H   H2        1.0  0.47100  0.60800  0.04600  1.0000
  H   H3        1.0  0.02900  0.10800  0.45400  1.0000
  H   H4        1.0  0.97100  0.10800  0.04600  1.0000
  H   H5        1.0  0.47100  0.39200  0.54600  1.0000
  H   H6        1.0  0.52900  0.39200  0.95400  1.0000
  H   H7        1.0  0.97100  0.89200  0.54600  1.0000
  H   H8        1.0  0.02900  0.89200  0.95400  1.0000
  H   H9        1.0  0.27200  0.06900  0.96500  1.0000
  H   H10       1.0  0.72800  0.06900  0.53500  1.0000
  H   H11       1.0  0.77200  0.56900  0.96500  1.0000
  H   H12       1.0  0.22800  0.56900  0.53500  1.0000
  H   H13       1.0  0.72800  0.93100  0.03500  1.0000
  H   H14       1.0  0.27200  0.93100  0.46500  1.0000
  H   H15       1.0  0.22800  0.43100  0.03500  1.0000
  H   H16       1.0  0.77200  0.43100  0.46500  1.0000
  H   H17       1.0  0.34800  0.09800  0.90300  1.0000
  H   H18       1.0  0.65200  0.09800  0.59700  1.0000
  H   H19       1.0  0.84800  0.59800  0.90300  1.0000
  H   H20       1.0  0.15200  0.59800  0.59700  1.0000
  H   H21       1.0  0.65200  0.90200  0.09700  1.0000
  H   H22       1.0  0.34800  0.90200  0.40300  1.0000
  H   H23       1.0  0.15200  0.40200  0.09700  1.0000
  H   H24       1.0  0.84800  0.40200  0.40300  1.0000
  H   H25       1.0  0.56900  0.60500  0.42200  1.0000
  H   H26       1.0  0.43100  0.60500  0.07800  1.0000
  H   H27       1.0  0.06900  0.10500  0.42200  1.0000
  H   H28       1.0  0.93100  0.10500  0.07800  1.0000
  H   H29       1.0  0.43100  0.39500  0.57800  1.0000
  H   H30       1.0  0.56900  0.39500  0.92200  1.0000
  H   H31       1.0  0.93100  0.89500  0.57800  1.0000
  H   H32       1.0  0.06900  0.89500  0.92200  1.0000
  H   H33       1.0  0.15200  0.98800  0.12900  1.0000
  H   H34       1.0  0.84800  0.98800  0.37100  1.0000
  H   H35       1.0  0.65200  0.48800  0.12900  1.0000
  H   H36       1.0  0.34800  0.48800  0.37100  1.0000
  H   H37       1.0  0.84800  0.01200  0.87100  1.0000
  H   H38       1.0  0.15200  0.01200  0.62900  1.0000
  H   H39       1.0  0.34800  0.51200  0.87100  1.0000
  H   H40       1.0  0.65200  0.51200  0.62900  1.0000
  H   H41       1.0  0.38600  0.26700  0.28200  1.0000
  H   H42       1.0  0.61400  0.26700  0.21800  1.0000
  H   H43       1.0  0.88600  0.76700  0.28200  1.0000
  H   H44       1.0  0.11400  0.76700  0.21800  1.0000
  H   H45       1.0  0.61400  0.73300  0.71800  1.0000
  H   H46       1.0  0.38600  0.73300  0.78200  1.0000
  H   H47       1.0  0.11400  0.23300  0.71800  1.0000
  H   H48       1.0  0.88600  0.23300  0.78200  1.0000
  H   H49       1.0  0.22300  0.01200  0.05700  1.0000
  H   H50       1.0  0.77700  0.01200  0.44300  1.0000
  H   H51       1.0  0.72300  0.51200  0.05700  1.0000
  H   H52       1.0  0.27700  0.51200  0.44300  1.0000
  H   H53       1.0  0.77700  0.98800  0.94300  1.0000
  H   H54       1.0  0.22300  0.98800  0.55700  1.0000
  H   H55       1.0  0.27700  0.48800  0.94300  1.0000
  H   H56       1.0  0.72300  0.48800  0.55700  1.0000
  H   H57       1.0  0.31400  0.26600  0.33400  1.0000
  H   H58       1.0  0.68600  0.26600  0.16600  1.0000
  H   H59       1.0  0.81400  0.76600  0.33400  1.0000
  H   H60       1.0  0.18600  0.76600  0.16600  1.0000
  H   H61       1.0  0.68600  0.73400  0.66600  1.0000
  H   H62       1.0  0.31400  0.73400  0.83400  1.0000
  H   H63       1.0  0.18600  0.23400  0.66600  1.0000
  H   H64       1.0  0.81400  0.23400  0.83400  1.0000
  H   H65       1.0  0.24200  0.23200  0.40300  1.0000
  H   H66       1.0  0.75800  0.23200  0.09700  1.0000
  H   H67       1.0  0.74200  0.73200  0.40300  1.0000
  H   H68       1.0  0.25800  0.73200  0.09700  1.0000
  H   H69       1.0  0.75800  0.76800  0.59700  1.0000
  H   H70       1.0  0.24200  0.76800  0.90300  1.0000
  H   H71       1.0  0.25800  0.26800  0.59700  1.0000
  H   H72       1.0  0.74200  0.26800  0.90300  1.0000
