data_image0
_chemical_formula_structural       H8C8Er4O8H16O24N8O8C96H48
_chemical_formula_sum              "H72 C104 Er4 O40 N8"
_cell_length_a       23.375
_cell_length_b       11.46
_cell_length_c       11.94
_cell_angle_alpha    90
_cell_angle_beta     120.54
_cell_angle_gamma    90

_space_group_name_H-M_alt    "P 1"
_space_group_IT_number       1

loop_
  _space_group_symop_operation_xyz
  'x, y, z'

loop_
  _atom_site_type_symbol
  _atom_site_label
  _atom_site_symmetry_multiplicity
  _atom_site_fract_x
  _atom_site_fract_y
  _atom_site_fract_z
  _atom_site_occupancy
  H   H1        1.0  0.25600  0.28400  0.41100  1.0000
  H   H2        1.0  0.74400  0.28400  0.08900  1.0000
  H   H3        1.0  0.75600  0.78400  0.41100  1.0000
  H   H4        1.0  0.24400  0.78400  0.08900  1.0000
  H   H5        1.0  0.74400  0.71600  0.58900  1.0000
  H   H6        1.0  0.25600  0.71600  0.91100  1.0000
  H   H7        1.0  0.24400  0.21600  0.58900  1.0000
  H   H8        1.0  0.75600  0.21600  0.91100  1.0000
  C   C1        1.0  0.04600  0.24290  0.59680  1.0000
  C   C2        1.0  0.95400  0.24290  0.90320  1.0000
  C   C3        1.0  0.54600  0.74290  0.59680  1.0000
  C   C4        1.0  0.45400  0.74290  0.90320  1.0000
  C   C5        1.0  0.95400  0.75710  0.40320  1.0000
  C   C6        1.0  0.04600  0.75710  0.09680  1.0000
  C   C7        1.0  0.45400  0.25710  0.40320  1.0000
  C   C8        1.0  0.54600  0.25710  0.09680  1.0000
  Er  Er1       1.0  0.00000  0.06386  0.75000  1.0000
  Er  Er2       1.0  0.50000  0.56386  0.75000  1.0000
  Er  Er3       1.0  1.00000  0.93614  0.25000  1.0000
  Er  Er4       1.0  0.50000  0.43614  0.25000  1.0000
  O   O1        1.0  0.96290  0.91750  0.83050  1.0000
  O   O2        1.0  0.03710  0.91750  0.66950  1.0000
  O   O3        1.0  0.46290  0.41750  0.83050  1.0000
  O   O4        1.0  0.53710  0.41750  0.66950  1.0000
  O   O5        1.0  0.03710  0.08250  0.16950  1.0000
  O   O6        1.0  0.96290  0.08250  0.33050  1.0000
  O   O7        1.0  0.53710  0.58250  0.16950  1.0000
  O   O8        1.0  0.46290  0.58250  0.33050  1.0000
  H   H9        1.0  0.92420  0.87710  0.77490  1.0000
  H   H10       1.0  0.07580  0.87710  0.72510  1.0000
  H   H11       1.0  0.42420  0.37710  0.77490  1.0000
  H   H12       1.0  0.57580  0.37710  0.72510  1.0000
  H   H13       1.0  0.07580  0.12290  0.22510  1.0000
  H   H14       1.0  0.92420  0.12290  0.27490  1.0000
  H   H15       1.0  0.57580  0.62290  0.22510  1.0000
  H   H16       1.0  0.42420  0.62290  0.27490  1.0000
  H   H17       1.0  0.98680  0.89900  0.91850  1.0000
  H   H18       1.0  0.01320  0.89900  0.58150  1.0000
  H   H19       1.0  0.48680  0.39900  0.91850  1.0000
  H   H20       1.0  0.51320  0.39900  0.58150  1.0000
  H   H21       1.0  0.01320  0.10100  0.08150  1.0000
  H   H22       1.0  0.98680  0.10100  0.41850  1.0000
  H   H23       1.0  0.51320  0.60100  0.08150  1.0000
  H   H24       1.0  0.48680  0.60100  0.41850  1.0000
  O   O9        1.0  0.40400  0.49540  0.57330  1.0000
  O   O10       1.0  0.59600  0.49540  0.92670  1.0000
  O   O11       1.0  0.90400  0.99540  0.57330  1.0000
  O   O12       1.0  0.09600  0.99540  0.92670  1.0000
  O   O13       1.0  0.59600  0.50460  0.42670  1.0000
  O   O14       1.0  0.40400  0.50460  0.07330  1.0000
  O   O15       1.0  0.09600  0.00460  0.42670  1.0000
  O   O16       1.0  0.90400  0.00460  0.07330  1.0000
  O   O17       1.0  0.00890  0.15690  0.58360  1.0000
  O   O18       1.0  0.99110  0.15690  0.91640  1.0000
  O   O19       1.0  0.50890  0.65690  0.58360  1.0000
  O   O20       1.0  0.49110  0.65690  0.91640  1.0000
  O   O21       1.0  0.99110  0.84310  0.41640  1.0000
  O   O22       1.0  0.00890  0.84310  0.08360  1.0000
  O   O23       1.0  0.49110  0.34310  0.41640  1.0000
  O   O24       1.0  0.50890  0.34310  0.08360  1.0000
  O   O25       1.0  0.04740  0.29780  0.50910  1.0000
  O   O26       1.0  0.95260  0.29780  0.99090  1.0000
  O   O27       1.0  0.54740  0.79780  0.50910  1.0000
  O   O28       1.0  0.45260  0.79780  0.99090  1.0000
  O   O29       1.0  0.95260  0.70220  0.49090  1.0000
  O   O30       1.0  0.04740  0.70220  0.00910  1.0000
  O   O31       1.0  0.45260  0.20220  0.49090  1.0000
  O   O32       1.0  0.54740  0.20220  0.00910  1.0000
  N   N1        1.0  0.08320  0.22980  0.82320  1.0000
  N   N2        1.0  0.91680  0.22980  0.67680  1.0000
  N   N3        1.0  0.58320  0.72980  0.82320  1.0000
  N   N4        1.0  0.41680  0.72980  0.67680  1.0000
  N   N5        1.0  0.91680  0.77020  0.17680  1.0000
  N   N6        1.0  0.08320  0.77020  0.32320  1.0000
  N   N7        1.0  0.41680  0.27020  0.17680  1.0000
  N   N8        1.0  0.58320  0.27020  0.32320  1.0000
  O   O33       1.0  0.35880  0.34510  0.62000  1.0000
  O   O34       1.0  0.64120  0.34510  0.88000  1.0000
  O   O35       1.0  0.85880  0.84510  0.62000  1.0000
  O   O36       1.0  0.14120  0.84510  0.88000  1.0000
  O   O37       1.0  0.64120  0.65490  0.38000  1.0000
  O   O38       1.0  0.35880  0.65490  0.12000  1.0000
  O   O39       1.0  0.14120  0.15490  0.38000  1.0000
  O   O40       1.0  0.85880  0.15490  0.12000  1.0000
  C   C9        1.0  0.09340  0.27880  0.73530  1.0000
  C   C10       1.0  0.90660  0.27880  0.76470  1.0000
  C   C11       1.0  0.59340  0.77880  0.73530  1.0000
  C   C12       1.0  0.40660  0.77880  0.76470  1.0000
  C   C13       1.0  0.90660  0.72120  0.26470  1.0000
  C   C14       1.0  0.09340  0.72120  0.23530  1.0000
  C   C15       1.0  0.40660  0.22120  0.26470  1.0000
  C   C16       1.0  0.59340  0.22120  0.23530  1.0000
  C   C17       1.0  0.36320  0.41330  0.54210  1.0000
  C   C18       1.0  0.63680  0.41330  0.95790  1.0000
  C   C19       1.0  0.86320  0.91330  0.54210  1.0000
  C   C20       1.0  0.13680  0.91330  0.95790  1.0000
  C   C21       1.0  0.63680  0.58670  0.45790  1.0000
  C   C22       1.0  0.36320  0.58670  0.04210  1.0000
  C   C23       1.0  0.13680  0.08670  0.45790  1.0000
  C   C24       1.0  0.86320  0.08670  0.04210  1.0000
  C   C25       1.0  0.22220  0.35820  0.13330  1.0000
  C   C26       1.0  0.77780  0.35820  0.36670  1.0000
  C   C27       1.0  0.72220  0.85820  0.13330  1.0000
  C   C28       1.0  0.27780  0.85820  0.36670  1.0000
  C   C29       1.0  0.77780  0.64180  0.86670  1.0000
  C   C30       1.0  0.22220  0.64180  0.63330  1.0000
  C   C31       1.0  0.27780  0.14180  0.86670  1.0000
  C   C32       1.0  0.72220  0.14180  0.63330  1.0000
  C   C33       1.0  0.27080  0.44400  0.17470  1.0000
  C   C34       1.0  0.72920  0.44400  0.32530  1.0000
  C   C35       1.0  0.77080  0.94400  0.17470  1.0000
  C   C36       1.0  0.22920  0.94400  0.32530  1.0000
  C   C37       1.0  0.72920  0.55600  0.82530  1.0000
  C   C38       1.0  0.27080  0.55600  0.67470  1.0000
  C   C39       1.0  0.22920  0.05600  0.82530  1.0000
  C   C40       1.0  0.77080  0.05600  0.67470  1.0000
  C   C41       1.0  0.14370  0.35760  0.76640  1.0000
  C   C42       1.0  0.85630  0.35760  0.73360  1.0000
  C   C43       1.0  0.64370  0.85760  0.76640  1.0000
  C   C44       1.0  0.35630  0.85760  0.73360  1.0000
  C   C45       1.0  0.85630  0.64240  0.23360  1.0000
  C   C46       1.0  0.14370  0.64240  0.26640  1.0000
  C   C47       1.0  0.35630  0.14240  0.23360  1.0000
  C   C48       1.0  0.64370  0.14240  0.26640  1.0000
  C   C49       1.0  0.31410  0.39480  0.40010  1.0000
  C   C50       1.0  0.68590  0.39480  0.09990  1.0000
  C   C51       1.0  0.81410  0.89480  0.40010  1.0000
  C   C52       1.0  0.18590  0.89480  0.09990  1.0000
  C   C53       1.0  0.68590  0.60520  0.59990  1.0000
  C   C54       1.0  0.31410  0.60520  0.90010  1.0000
  C   C55       1.0  0.18590  0.10520  0.59990  1.0000
  C   C56       1.0  0.81410  0.10520  0.90010  1.0000
  C   C57       1.0  0.17720  0.33630  0.99350  1.0000
  C   C58       1.0  0.82280  0.33630  0.50650  1.0000
  C   C59       1.0  0.67720  0.83630  0.99350  1.0000
  C   C60       1.0  0.32280  0.83630  0.50650  1.0000
  C   C61       1.0  0.82280  0.66370  0.00650  1.0000
  C   C62       1.0  0.17720  0.66370  0.49350  1.0000
  C   C63       1.0  0.32280  0.16370  0.00650  1.0000
  C   C64       1.0  0.67720  0.16370  0.49350  1.0000
  C   C65       1.0  0.12600  0.26010  0.95110  1.0000
  C   C66       1.0  0.87400  0.26010  0.54890  1.0000
  C   C67       1.0  0.62600  0.76010  0.95110  1.0000
  C   C68       1.0  0.37400  0.76010  0.54890  1.0000
  C   C69       1.0  0.87400  0.73990  0.04890  1.0000
  C   C70       1.0  0.12600  0.73990  0.45110  1.0000
  C   C71       1.0  0.37400  0.23990  0.04890  1.0000
  C   C72       1.0  0.62600  0.23990  0.45110  1.0000
  C   C73       1.0  0.21960  0.29390  0.22790  1.0000
  C   C74       1.0  0.78040  0.29390  0.27210  1.0000
  C   C75       1.0  0.71960  0.79390  0.22790  1.0000
  C   C76       1.0  0.28040  0.79390  0.27210  1.0000
  C   C77       1.0  0.78040  0.70610  0.77210  1.0000
  C   C78       1.0  0.21960  0.70610  0.72790  1.0000
  C   C79       1.0  0.28040  0.20610  0.77210  1.0000
  C   C80       1.0  0.71960  0.20610  0.72790  1.0000
  C   C81       1.0  0.18760  0.38400  0.89900  1.0000
  C   C82       1.0  0.81240  0.38400  0.60100  1.0000
  C   C83       1.0  0.68760  0.88400  0.89900  1.0000
  C   C84       1.0  0.31240  0.88400  0.60100  1.0000
  C   C85       1.0  0.81240  0.61600  0.10100  1.0000
  C   C86       1.0  0.18760  0.61600  0.39900  1.0000
  C   C87       1.0  0.31240  0.11600  0.10100  1.0000
  C   C88       1.0  0.68760  0.11600  0.39900  1.0000
  C   C89       1.0  0.31520  0.46190  0.30720  1.0000
  C   C90       1.0  0.68480  0.46190  0.19280  1.0000
  C   C91       1.0  0.81520  0.96190  0.30720  1.0000
  C   C92       1.0  0.18480  0.96190  0.19280  1.0000
  C   C93       1.0  0.68480  0.53810  0.69280  1.0000
  C   C94       1.0  0.31520  0.53810  0.80720  1.0000
  C   C95       1.0  0.18480  0.03810  0.69280  1.0000
  C   C96       1.0  0.81520  0.03810  0.80720  1.0000
  C   C97       1.0  0.26500  0.30880  0.35930  1.0000
  C   C98       1.0  0.73500  0.30880  0.14070  1.0000
  C   C99       1.0  0.76500  0.80880  0.35930  1.0000
  C   C100      1.0  0.23500  0.80880  0.14070  1.0000
  C   C101      1.0  0.73500  0.69120  0.64070  1.0000
  C   C102      1.0  0.26500  0.69120  0.85930  1.0000
  C   C103      1.0  0.23500  0.19120  0.64070  1.0000
  C   C104      1.0  0.76500  0.19120  0.85930  1.0000
  H   H25       1.0  0.21900  0.43900  0.91200  1.0000
  H   H26       1.0  0.78100  0.43900  0.58800  1.0000
  H   H27       1.0  0.71900  0.93900  0.91200  1.0000
  H   H28       1.0  0.28100  0.93900  0.58800  1.0000
  H   H29       1.0  0.78100  0.56100  0.08800  1.0000
  H   H30       1.0  0.21900  0.56100  0.41200  1.0000
  H   H31       1.0  0.28100  0.06100  0.08800  1.0000
  H   H32       1.0  0.71900  0.06100  0.41200  1.0000
  H   H33       1.0  0.35000  0.52100  0.31800  1.0000
  H   H34       1.0  0.65000  0.52100  0.18200  1.0000
  H   H35       1.0  0.85000  0.02100  0.31800  1.0000
  H   H36       1.0  0.15000  0.02100  0.18200  1.0000
  H   H37       1.0  0.65000  0.47900  0.68200  1.0000
  H   H38       1.0  0.35000  0.47900  0.81800  1.0000
  H   H39       1.0  0.15000  0.97900  0.68200  1.0000
  H   H40       1.0  0.85000  0.97900  0.81800  1.0000
  H   H41       1.0  0.19200  0.22200  0.20000  1.0000
  H   H42       1.0  0.80800  0.22200  0.30000  1.0000
  H   H43       1.0  0.69200  0.72200  0.20000  1.0000
  H   H44       1.0  0.30800  0.72200  0.30000  1.0000
  H   H45       1.0  0.80800  0.77800  0.80000  1.0000
  H   H46       1.0  0.19200  0.77800  0.70000  1.0000
  H   H47       1.0  0.30800  0.27800  0.80000  1.0000
  H   H48       1.0  0.69200  0.27800  0.70000  1.0000
  H   H49       1.0  0.27100  0.49100  0.11800  1.0000
  H   H50       1.0  0.72900  0.49100  0.38200  1.0000
  H   H51       1.0  0.77100  0.99100  0.11800  1.0000
  H   H52       1.0  0.22900  0.99100  0.38200  1.0000
  H   H53       1.0  0.72900  0.50900  0.88200  1.0000
  H   H54       1.0  0.27100  0.50900  0.61800  1.0000
  H   H55       1.0  0.22900  0.00900  0.88200  1.0000
  H   H56       1.0  0.77100  0.00900  0.61800  1.0000
  H   H57       1.0  0.12100  0.22000  0.99700  1.0000
  H   H58       1.0  0.87900  0.22000  0.50300  1.0000
  H   H59       1.0  0.62100  0.72000  0.99700  1.0000
  H   H60       1.0  0.37900  0.72000  0.50300  1.0000
  H   H61       1.0  0.87900  0.78000  0.00300  1.0000
  H   H62       1.0  0.12100  0.78000  0.49700  1.0000
  H   H63       1.0  0.37900  0.28000  0.00300  1.0000
  H   H64       1.0  0.62100  0.28000  0.49700  1.0000
  H   H65       1.0  0.14600  0.38800  0.70000  1.0000
  H   H66       1.0  0.85400  0.38800  0.80000  1.0000
  H   H67       1.0  0.64600  0.88800  0.70000  1.0000
  H   H68       1.0  0.35400  0.88800  0.80000  1.0000
  H   H69       1.0  0.85400  0.61200  0.30000  1.0000
  H   H70       1.0  0.14600  0.61200  0.20000  1.0000
  H   H71       1.0  0.35400  0.11200  0.30000  1.0000
  H   H72       1.0  0.64600  0.11200  0.20000  1.0000
