data_image0
_chemical_formula_structural       Dy4O8C8O24C8O8C48N8C24H8C16H64
_chemical_formula_sum              "Dy4 O40 C104 N8 H72"
_cell_length_a       23.371
_cell_length_b       11.445
_cell_length_c       11.905
_cell_angle_alpha    90
_cell_angle_beta     120.21
_cell_angle_gamma    90

_space_group_name_H-M_alt    "P 1"
_space_group_IT_number       1

loop_
  _space_group_symop_operation_xyz
  'x, y, z'

loop_
  _atom_site_type_symbol
  _atom_site_label
  _atom_site_symmetry_multiplicity
  _atom_site_fract_x
  _atom_site_fract_y
  _atom_site_fract_z
  _atom_site_occupancy
  Dy  Dy1       1.0  0.50000  0.43613  0.25000  1.0000
  Dy  Dy2       1.0  0.00000  0.93613  0.25000  1.0000
  Dy  Dy3       1.0  0.50000  0.56387  0.75000  1.0000
  Dy  Dy4       1.0  0.00000  0.06387  0.75000  1.0000
  O   O1        1.0  0.49130  0.34080  0.06540  1.0000
  O   O2        1.0  0.50870  0.34080  0.43460  1.0000
  O   O3        1.0  0.99130  0.84080  0.06540  1.0000
  O   O4        1.0  0.00870  0.84080  0.43460  1.0000
  O   O5        1.0  0.50870  0.65920  0.93460  1.0000
  O   O6        1.0  0.49130  0.65920  0.56540  1.0000
  O   O7        1.0  0.00870  0.15920  0.93460  1.0000
  O   O8        1.0  0.99130  0.15920  0.56540  1.0000
  C   C1        1.0  0.22880  0.05490  0.13370  1.0000
  C   C2        1.0  0.77120  0.05490  0.36630  1.0000
  C   C3        1.0  0.72880  0.55490  0.13370  1.0000
  C   C4        1.0  0.27120  0.55490  0.36630  1.0000
  C   C5        1.0  0.77120  0.94510  0.86630  1.0000
  C   C6        1.0  0.22880  0.94510  0.63370  1.0000
  C   C7        1.0  0.27120  0.44510  0.86630  1.0000
  C   C8        1.0  0.72880  0.44510  0.63370  1.0000
  O   O9        1.0  0.46300  0.58490  0.09490  1.0000
  O   O10       1.0  0.53700  0.58490  0.40510  1.0000
  O   O11       1.0  0.96300  0.08490  0.09490  1.0000
  O   O12       1.0  0.03700  0.08490  0.40510  1.0000
  O   O13       1.0  0.53700  0.41510  0.90510  1.0000
  O   O14       1.0  0.46300  0.41510  0.59490  1.0000
  O   O15       1.0  0.03700  0.91510  0.90510  1.0000
  O   O16       1.0  0.96300  0.91510  0.59490  1.0000
  O   O17       1.0  0.09665  0.00550  0.26570  1.0000
  O   O18       1.0  0.90335  0.00550  0.23430  1.0000
  O   O19       1.0  0.59665  0.50550  0.26570  1.0000
  O   O20       1.0  0.40335  0.50550  0.23430  1.0000
  O   O21       1.0  0.90335  0.99450  0.73430  1.0000
  O   O22       1.0  0.09665  0.99450  0.76570  1.0000
  O   O23       1.0  0.40335  0.49450  0.73430  1.0000
  O   O24       1.0  0.59665  0.49450  0.76570  1.0000
  O   O25       1.0  0.14170  0.15460  0.40380  1.0000
  O   O26       1.0  0.85830  0.15460  0.09620  1.0000
  O   O27       1.0  0.64170  0.65460  0.40380  1.0000
  O   O28       1.0  0.35830  0.65460  0.09620  1.0000
  O   O29       1.0  0.85830  0.84540  0.59620  1.0000
  O   O30       1.0  0.14170  0.84540  0.90380  1.0000
  O   O31       1.0  0.35830  0.34540  0.59620  1.0000
  O   O32       1.0  0.64170  0.34540  0.90380  1.0000
  C   C9        1.0  0.27690  0.14030  0.18710  1.0000
  C   C10       1.0  0.72310  0.14030  0.31290  1.0000
  C   C11       1.0  0.77690  0.64030  0.18710  1.0000
  C   C12       1.0  0.22310  0.64030  0.31290  1.0000
  C   C13       1.0  0.72310  0.85970  0.81290  1.0000
  C   C14       1.0  0.27690  0.85970  0.68710  1.0000
  C   C15       1.0  0.22310  0.35970  0.81290  1.0000
  C   C16       1.0  0.77690  0.35970  0.68710  1.0000
  O   O33       1.0  0.45180  0.20140  0.91320  1.0000
  O   O34       1.0  0.54820  0.20140  0.58680  1.0000
  O   O35       1.0  0.95180  0.70140  0.91320  1.0000
  O   O36       1.0  0.04820  0.70140  0.58680  1.0000
  O   O37       1.0  0.54820  0.79860  0.08680  1.0000
  O   O38       1.0  0.45180  0.79860  0.41320  1.0000
  O   O39       1.0  0.04820  0.29860  0.08680  1.0000
  O   O40       1.0  0.95180  0.29860  0.41320  1.0000
  C   C17       1.0  0.13790  0.08820  0.31710  1.0000
  C   C18       1.0  0.86210  0.08820  0.18290  1.0000
  C   C19       1.0  0.63790  0.58820  0.31710  1.0000
  C   C20       1.0  0.36210  0.58820  0.18290  1.0000
  C   C21       1.0  0.86210  0.91180  0.68290  1.0000
  C   C22       1.0  0.13790  0.91180  0.81710  1.0000
  C   C23       1.0  0.36210  0.41180  0.68290  1.0000
  C   C24       1.0  0.63790  0.41180  0.81710  1.0000
  C   C25       1.0  0.40650  0.21880  0.04800  1.0000
  C   C26       1.0  0.59350  0.21880  0.45200  1.0000
  C   C27       1.0  0.90650  0.71880  0.04800  1.0000
  C   C28       1.0  0.09350  0.71880  0.45200  1.0000
  C   C29       1.0  0.59350  0.78120  0.95200  1.0000
  C   C30       1.0  0.40650  0.78120  0.54800  1.0000
  C   C31       1.0  0.09350  0.28120  0.95200  1.0000
  C   C32       1.0  0.90650  0.28120  0.54800  1.0000
  C   C33       1.0  0.37490  0.24100  0.19920  1.0000
  C   C34       1.0  0.62510  0.24100  0.30080  1.0000
  C   C35       1.0  0.87490  0.74100  0.19920  1.0000
  C   C36       1.0  0.12510  0.74100  0.30080  1.0000
  C   C37       1.0  0.62510  0.75900  0.80080  1.0000
  C   C38       1.0  0.37490  0.75900  0.69920  1.0000
  C   C39       1.0  0.12510  0.25900  0.80080  1.0000
  C   C40       1.0  0.87490  0.25900  0.69920  1.0000
  C   C41       1.0  0.32230  0.16430  0.13740  1.0000
  C   C42       1.0  0.67770  0.16430  0.36260  1.0000
  C   C43       1.0  0.82230  0.66430  0.13740  1.0000
  C   C44       1.0  0.17770  0.66430  0.36260  1.0000
  C   C45       1.0  0.67770  0.83570  0.86260  1.0000
  C   C46       1.0  0.32230  0.83570  0.63740  1.0000
  C   C47       1.0  0.17770  0.33570  0.86260  1.0000
  C   C48       1.0  0.82230  0.33570  0.63740  1.0000
  C   C49       1.0  0.35500  0.14240  0.97810  1.0000
  C   C50       1.0  0.64500  0.14240  0.52190  1.0000
  C   C51       1.0  0.85500  0.64240  0.97810  1.0000
  C   C52       1.0  0.14500  0.64240  0.52190  1.0000
  C   C53       1.0  0.64500  0.85760  0.02190  1.0000
  C   C54       1.0  0.35500  0.85760  0.47810  1.0000
  C   C55       1.0  0.14500  0.35760  0.02190  1.0000
  C   C56       1.0  0.85500  0.35760  0.47810  1.0000
  C   C57       1.0  0.45320  0.25510  0.00340  1.0000
  C   C58       1.0  0.54680  0.25510  0.49660  1.0000
  C   C59       1.0  0.95320  0.75510  0.00340  1.0000
  C   C60       1.0  0.04680  0.75510  0.49660  1.0000
  C   C61       1.0  0.54680  0.74490  0.99660  1.0000
  C   C62       1.0  0.45320  0.74490  0.50340  1.0000
  C   C63       1.0  0.04680  0.24490  0.99660  1.0000
  C   C64       1.0  0.95320  0.24490  0.50340  1.0000
  N   N1        1.0  0.41540  0.26920  0.15520  1.0000
  N   N2        1.0  0.58460  0.26920  0.34480  1.0000
  N   N3        1.0  0.91540  0.76920  0.15520  1.0000
  N   N4        1.0  0.08460  0.76920  0.34480  1.0000
  N   N5        1.0  0.58460  0.73080  0.84480  1.0000
  N   N6        1.0  0.41540  0.73080  0.65520  1.0000
  N   N7        1.0  0.08460  0.23080  0.84480  1.0000
  N   N8        1.0  0.91540  0.23080  0.65520  1.0000
  C   C65       1.0  0.18420  0.03740  0.17570  1.0000
  C   C66       1.0  0.81580  0.03740  0.32430  1.0000
  C   C67       1.0  0.68420  0.53740  0.17570  1.0000
  C   C68       1.0  0.31580  0.53740  0.32430  1.0000
  C   C69       1.0  0.81580  0.96260  0.82430  1.0000
  C   C70       1.0  0.18420  0.96260  0.67570  1.0000
  C   C71       1.0  0.31580  0.46260  0.82430  1.0000
  C   C72       1.0  0.68420  0.46260  0.67570  1.0000
  C   C73       1.0  0.18700  0.10590  0.27270  1.0000
  C   C74       1.0  0.81300  0.10590  0.22730  1.0000
  C   C75       1.0  0.68700  0.60590  0.27270  1.0000
  C   C76       1.0  0.31300  0.60590  0.22730  1.0000
  C   C77       1.0  0.81300  0.89410  0.72730  1.0000
  C   C78       1.0  0.18700  0.89410  0.77270  1.0000
  C   C79       1.0  0.31300  0.39410  0.72730  1.0000
  C   C80       1.0  0.68700  0.39410  0.77270  1.0000
  C   C81       1.0  0.28040  0.20560  0.28850  1.0000
  C   C82       1.0  0.71960  0.20560  0.21150  1.0000
  C   C83       1.0  0.78040  0.70560  0.28850  1.0000
  C   C84       1.0  0.21960  0.70560  0.21150  1.0000
  C   C85       1.0  0.71960  0.79440  0.71150  1.0000
  C   C86       1.0  0.28040  0.79440  0.78850  1.0000
  C   C87       1.0  0.21960  0.29440  0.71150  1.0000
  C   C88       1.0  0.78040  0.29440  0.78850  1.0000
  H   H1        1.0  0.31330  0.26190  0.32860  1.0000
  H   H2        1.0  0.68670  0.26190  0.17140  1.0000
  H   H3        1.0  0.81330  0.76190  0.32860  1.0000
  H   H4        1.0  0.18670  0.76190  0.17140  1.0000
  H   H5        1.0  0.68670  0.73810  0.67140  1.0000
  H   H6        1.0  0.31330  0.73810  0.82860  1.0000
  H   H7        1.0  0.18670  0.23810  0.67140  1.0000
  H   H8        1.0  0.81330  0.23810  0.82860  1.0000
  C   C89       1.0  0.23620  0.18850  0.33050  1.0000
  C   C90       1.0  0.76380  0.18850  0.16950  1.0000
  C   C91       1.0  0.73620  0.68850  0.33050  1.0000
  C   C92       1.0  0.26380  0.68850  0.16950  1.0000
  C   C93       1.0  0.76380  0.81150  0.66950  1.0000
  C   C94       1.0  0.23620  0.81150  0.83050  1.0000
  C   C95       1.0  0.26380  0.31150  0.66950  1.0000
  C   C96       1.0  0.73620  0.31150  0.83050  1.0000
  C   C97       1.0  0.31240  0.11400  0.02210  1.0000
  C   C98       1.0  0.68760  0.11400  0.47790  1.0000
  C   C99       1.0  0.81240  0.61400  0.02210  1.0000
  C   C100      1.0  0.18760  0.61400  0.47790  1.0000
  C   C101      1.0  0.68760  0.88600  0.97790  1.0000
  C   C102      1.0  0.31240  0.88600  0.52210  1.0000
  C   C103      1.0  0.18760  0.38600  0.97790  1.0000
  C   C104      1.0  0.81240  0.38600  0.52210  1.0000
  H   H9        1.0  0.27300  0.06800  0.96500  1.0000
  H   H10       1.0  0.72700  0.06800  0.53500  1.0000
  H   H11       1.0  0.77300  0.56800  0.96500  1.0000
  H   H12       1.0  0.22700  0.56800  0.53500  1.0000
  H   H13       1.0  0.72700  0.93200  0.03500  1.0000
  H   H14       1.0  0.27300  0.93200  0.46500  1.0000
  H   H15       1.0  0.22700  0.43200  0.03500  1.0000
  H   H16       1.0  0.77300  0.43200  0.46500  1.0000
  H   H17       1.0  0.15200  0.97400  0.13600  1.0000
  H   H18       1.0  0.84800  0.97400  0.36400  1.0000
  H   H19       1.0  0.65200  0.47400  0.13600  1.0000
  H   H20       1.0  0.34800  0.47400  0.36400  1.0000
  H   H21       1.0  0.84800  0.02600  0.86400  1.0000
  H   H22       1.0  0.15200  0.02600  0.63600  1.0000
  H   H23       1.0  0.34800  0.52600  0.86400  1.0000
  H   H24       1.0  0.65200  0.52600  0.63600  1.0000
  H   H25       1.0  0.35400  0.10000  0.90900  1.0000
  H   H26       1.0  0.64600  0.10000  0.59100  1.0000
  H   H27       1.0  0.85400  0.60000  0.90900  1.0000
  H   H28       1.0  0.14600  0.60000  0.59100  1.0000
  H   H29       1.0  0.64600  0.90000  0.09100  1.0000
  H   H30       1.0  0.35400  0.90000  0.40900  1.0000
  H   H31       1.0  0.14600  0.40000  0.09100  1.0000
  H   H32       1.0  0.85400  0.40000  0.40900  1.0000
  H   H33       1.0  0.22300  0.00000  0.06200  1.0000
  H   H34       1.0  0.77700  0.00000  0.43800  1.0000
  H   H35       1.0  0.72300  0.50000  0.06200  1.0000
  H   H36       1.0  0.27700  0.50000  0.43800  1.0000
  H   H37       1.0  0.77700  0.00000  0.93800  1.0000
  H   H38       1.0  0.22300  0.00000  0.56200  1.0000
  H   H39       1.0  0.27700  0.50000  0.93800  1.0000
  H   H40       1.0  0.72300  0.50000  0.56200  1.0000
  H   H41       1.0  0.38300  0.27500  0.27600  1.0000
  H   H42       1.0  0.61700  0.27500  0.22400  1.0000
  H   H43       1.0  0.88300  0.77500  0.27600  1.0000
  H   H44       1.0  0.11700  0.77500  0.22400  1.0000
  H   H45       1.0  0.61700  0.72500  0.72400  1.0000
  H   H46       1.0  0.38300  0.72500  0.77600  1.0000
  H   H47       1.0  0.11700  0.22500  0.72400  1.0000
  H   H48       1.0  0.88300  0.22500  0.77600  1.0000
  H   H49       1.0  0.24200  0.23700  0.39900  1.0000
  H   H50       1.0  0.75800  0.23700  0.10100  1.0000
  H   H51       1.0  0.74200  0.73700  0.39900  1.0000
  H   H52       1.0  0.25800  0.73700  0.10100  1.0000
  H   H53       1.0  0.75800  0.76300  0.60100  1.0000
  H   H54       1.0  0.24200  0.76300  0.89900  1.0000
  H   H55       1.0  0.25800  0.26300  0.60100  1.0000
  H   H56       1.0  0.74200  0.26300  0.89900  1.0000
  H   H57       1.0  0.43300  0.60700  0.07400  1.0000
  H   H58       1.0  0.56700  0.60700  0.42600  1.0000
  H   H59       1.0  0.93300  0.10700  0.07400  1.0000
  H   H60       1.0  0.06700  0.10700  0.42600  1.0000
  H   H61       1.0  0.56700  0.39300  0.92600  1.0000
  H   H62       1.0  0.43300  0.39300  0.57400  1.0000
  H   H63       1.0  0.06700  0.89300  0.92600  1.0000
  H   H64       1.0  0.93300  0.89300  0.57400  1.0000
  H   H65       1.0  0.47300  0.60000  0.05000  1.0000
  H   H66       1.0  0.52700  0.60000  0.45000  1.0000
  H   H67       1.0  0.97300  0.10000  0.05000  1.0000
  H   H68       1.0  0.02700  0.10000  0.45000  1.0000
  H   H69       1.0  0.52700  0.40000  0.95000  1.0000
  H   H70       1.0  0.47300  0.40000  0.55000  1.0000
  H   H71       1.0  0.02700  0.90000  0.95000  1.0000
  H   H72       1.0  0.97300  0.90000  0.55000  1.0000
