data_image0
_chemical_formula_structural       Tb4O24H8O16N8C16H8C16H8C16H8C8H8C24H8C16H8C8H16
_chemical_formula_sum              "Tb4 O40 H72 N8 C104"
_cell_length_a       23.386
_cell_length_b       11.423
_cell_length_c       11.928
_cell_angle_alpha    90
_cell_angle_beta     120.3
_cell_angle_gamma    90

_space_group_name_H-M_alt    "P 1"
_space_group_IT_number       1

loop_
  _space_group_symop_operation_xyz
  'x, y, z'

loop_
  _atom_site_type_symbol
  _atom_site_label
  _atom_site_symmetry_multiplicity
  _atom_site_fract_x
  _atom_site_fract_y
  _atom_site_fract_z
  _atom_site_occupancy
  Tb  Tb1       1.0  0.00000  0.06442  0.75000  1.0000
  Tb  Tb2       1.0  0.50000  0.56442  0.75000  1.0000
  Tb  Tb3       1.0  0.00000  0.93558  0.25000  1.0000
  Tb  Tb4       1.0  0.50000  0.43558  0.25000  1.0000
  O   O1        1.0  0.04890  0.29980  0.50920  1.0000
  O   O2        1.0  0.95110  0.29980  0.99080  1.0000
  O   O3        1.0  0.54890  0.79980  0.50920  1.0000
  O   O4        1.0  0.45110  0.79980  0.99080  1.0000
  O   O5        1.0  0.95110  0.70020  0.49080  1.0000
  O   O6        1.0  0.04890  0.70020  0.00920  1.0000
  O   O7        1.0  0.45110  0.20020  0.49080  1.0000
  O   O8        1.0  0.54890  0.20020  0.00920  1.0000
  O   O9        1.0  0.00838  0.16070  0.58160  1.0000
  O   O10       1.0  0.99162  0.16070  0.91840  1.0000
  O   O11       1.0  0.50838  0.66070  0.58160  1.0000
  O   O12       1.0  0.49162  0.66070  0.91840  1.0000
  O   O13       1.0  0.99162  0.83930  0.41840  1.0000
  O   O14       1.0  0.00838  0.83930  0.08160  1.0000
  O   O15       1.0  0.49162  0.33930  0.41840  1.0000
  O   O16       1.0  0.50838  0.33930  0.08160  1.0000
  O   O17       1.0  0.96170  0.91260  0.83090  1.0000
  O   O18       1.0  0.03830  0.91260  0.66910  1.0000
  O   O19       1.0  0.46170  0.41260  0.83090  1.0000
  O   O20       1.0  0.53830  0.41260  0.66910  1.0000
  O   O21       1.0  0.03830  0.08740  0.16910  1.0000
  O   O22       1.0  0.96170  0.08740  0.33090  1.0000
  O   O23       1.0  0.53830  0.58740  0.16910  1.0000
  O   O24       1.0  0.46170  0.58740  0.33090  1.0000
  H   H1        1.0  0.98220  0.91440  0.91050  1.0000
  H   H2        1.0  0.01780  0.91440  0.58950  1.0000
  H   H3        1.0  0.48220  0.41440  0.91050  1.0000
  H   H4        1.0  0.51780  0.41440  0.58950  1.0000
  H   H5        1.0  0.01780  0.08560  0.08950  1.0000
  H   H6        1.0  0.98220  0.08560  0.41050  1.0000
  H   H7        1.0  0.51780  0.58560  0.08950  1.0000
  H   H8        1.0  0.48220  0.58560  0.41050  1.0000
  O   O25       1.0  0.40317  0.49480  0.57180  1.0000
  O   O26       1.0  0.59683  0.49480  0.92820  1.0000
  O   O27       1.0  0.90317  0.99480  0.57180  1.0000
  O   O28       1.0  0.09683  0.99480  0.92820  1.0000
  O   O29       1.0  0.59683  0.50520  0.42820  1.0000
  O   O30       1.0  0.40317  0.50520  0.07180  1.0000
  O   O31       1.0  0.09683  0.00520  0.42820  1.0000
  O   O32       1.0  0.90317  0.00520  0.07180  1.0000
  O   O33       1.0  0.35860  0.34520  0.62010  1.0000
  O   O34       1.0  0.64140  0.34520  0.87990  1.0000
  O   O35       1.0  0.85860  0.84520  0.62010  1.0000
  O   O36       1.0  0.14140  0.84520  0.87990  1.0000
  O   O37       1.0  0.64140  0.65480  0.37990  1.0000
  O   O38       1.0  0.35860  0.65480  0.12010  1.0000
  O   O39       1.0  0.14140  0.15480  0.37990  1.0000
  O   O40       1.0  0.85860  0.15480  0.12010  1.0000
  N   N1        1.0  0.08430  0.23180  0.82460  1.0000
  N   N2        1.0  0.91570  0.23180  0.67540  1.0000
  N   N3        1.0  0.58430  0.73180  0.82460  1.0000
  N   N4        1.0  0.41570  0.73180  0.67540  1.0000
  N   N5        1.0  0.91570  0.76820  0.17540  1.0000
  N   N6        1.0  0.08430  0.76820  0.32460  1.0000
  N   N7        1.0  0.41570  0.26820  0.17540  1.0000
  N   N8        1.0  0.58430  0.26820  0.32460  1.0000
  C   C1        1.0  0.09450  0.28180  0.73490  1.0000
  C   C2        1.0  0.90550  0.28180  0.76510  1.0000
  C   C3        1.0  0.59450  0.78180  0.73490  1.0000
  C   C4        1.0  0.40550  0.78180  0.76510  1.0000
  C   C5        1.0  0.90550  0.71820  0.26510  1.0000
  C   C6        1.0  0.09450  0.71820  0.23490  1.0000
  C   C7        1.0  0.40550  0.21820  0.26510  1.0000
  C   C8        1.0  0.59450  0.21820  0.23490  1.0000
  C   C9        1.0  0.14600  0.35860  0.76760  1.0000
  C   C10       1.0  0.85400  0.35860  0.73240  1.0000
  C   C11       1.0  0.64600  0.85860  0.76760  1.0000
  C   C12       1.0  0.35400  0.85860  0.73240  1.0000
  C   C13       1.0  0.85400  0.64140  0.23240  1.0000
  C   C14       1.0  0.14600  0.64140  0.26760  1.0000
  C   C15       1.0  0.35400  0.14140  0.23240  1.0000
  C   C16       1.0  0.64600  0.14140  0.26760  1.0000
  H   H9        1.0  0.15230  0.39220  0.70370  1.0000
  H   H10       1.0  0.84770  0.39220  0.79630  1.0000
  H   H11       1.0  0.65230  0.89220  0.70370  1.0000
  H   H12       1.0  0.34770  0.89220  0.79630  1.0000
  H   H13       1.0  0.84770  0.60780  0.29630  1.0000
  H   H14       1.0  0.15230  0.60780  0.20370  1.0000
  H   H15       1.0  0.34770  0.10780  0.29630  1.0000
  H   H16       1.0  0.65230  0.10780  0.20370  1.0000
  C   C17       1.0  0.04720  0.24570  0.59730  1.0000
  C   C18       1.0  0.95280  0.24570  0.90270  1.0000
  C   C19       1.0  0.54720  0.74570  0.59730  1.0000
  C   C20       1.0  0.45280  0.74570  0.90270  1.0000
  C   C21       1.0  0.95280  0.75430  0.40270  1.0000
  C   C22       1.0  0.04720  0.75430  0.09730  1.0000
  C   C23       1.0  0.45280  0.25430  0.40270  1.0000
  C   C24       1.0  0.54720  0.25430  0.09730  1.0000
  C   C25       1.0  0.12500  0.26090  0.94940  1.0000
  C   C26       1.0  0.87500  0.26090  0.55060  1.0000
  C   C27       1.0  0.62500  0.76090  0.94940  1.0000
  C   C28       1.0  0.37500  0.76090  0.55060  1.0000
  C   C29       1.0  0.87500  0.73910  0.05060  1.0000
  C   C30       1.0  0.12500  0.73910  0.44940  1.0000
  C   C31       1.0  0.37500  0.23910  0.05060  1.0000
  C   C32       1.0  0.62500  0.23910  0.44940  1.0000
  H   H17       1.0  0.11690  0.22770  0.01120  1.0000
  H   H18       1.0  0.88310  0.22770  0.48880  1.0000
  H   H19       1.0  0.61690  0.72770  0.01120  1.0000
  H   H20       1.0  0.38310  0.72770  0.48880  1.0000
  H   H21       1.0  0.88310  0.77230  0.98880  1.0000
  H   H22       1.0  0.11690  0.77230  0.51120  1.0000
  H   H23       1.0  0.38310  0.27230  0.98880  1.0000
  H   H24       1.0  0.61690  0.27230  0.51120  1.0000
  C   C33       1.0  0.22290  0.36060  0.13290  1.0000
  C   C34       1.0  0.77710  0.36060  0.36710  1.0000
  C   C35       1.0  0.72290  0.86060  0.13290  1.0000
  C   C36       1.0  0.27710  0.86060  0.36710  1.0000
  C   C37       1.0  0.77710  0.63940  0.86710  1.0000
  C   C38       1.0  0.22290  0.63940  0.63290  1.0000
  C   C39       1.0  0.27710  0.13940  0.86710  1.0000
  C   C40       1.0  0.72290  0.13940  0.63290  1.0000
  C   C41       1.0  0.31520  0.46220  0.30610  1.0000
  C   C42       1.0  0.68480  0.46220  0.19390  1.0000
  C   C43       1.0  0.81520  0.96220  0.30610  1.0000
  C   C44       1.0  0.18480  0.96220  0.19390  1.0000
  C   C45       1.0  0.68480  0.53780  0.69390  1.0000
  C   C46       1.0  0.31520  0.53780  0.80610  1.0000
  C   C47       1.0  0.18480  0.03780  0.69390  1.0000
  C   C48       1.0  0.81520  0.03780  0.80610  1.0000
  H   H25       1.0  0.34700  0.52070  0.33150  1.0000
  H   H26       1.0  0.65300  0.52070  0.16850  1.0000
  H   H27       1.0  0.84700  0.02070  0.33150  1.0000
  H   H28       1.0  0.15300  0.02070  0.16850  1.0000
  H   H29       1.0  0.65300  0.47930  0.66850  1.0000
  H   H30       1.0  0.34700  0.47930  0.83150  1.0000
  H   H31       1.0  0.15300  0.97930  0.66850  1.0000
  H   H32       1.0  0.84700  0.97930  0.83150  1.0000
  C   C49       1.0  0.18830  0.38520  0.89800  1.0000
  C   C50       1.0  0.81170  0.38520  0.60200  1.0000
  C   C51       1.0  0.68830  0.88520  0.89800  1.0000
  C   C52       1.0  0.31170  0.88520  0.60200  1.0000
  C   C53       1.0  0.81170  0.61480  0.10200  1.0000
  C   C54       1.0  0.18830  0.61480  0.39800  1.0000
  C   C55       1.0  0.31170  0.11480  0.10200  1.0000
  C   C56       1.0  0.68830  0.11480  0.39800  1.0000
  H   H33       1.0  0.22360  0.43610  0.92180  1.0000
  H   H34       1.0  0.77640  0.43610  0.57820  1.0000
  H   H35       1.0  0.72360  0.93610  0.92180  1.0000
  H   H36       1.0  0.27640  0.93610  0.57820  1.0000
  H   H37       1.0  0.77640  0.56390  0.07820  1.0000
  H   H38       1.0  0.22360  0.56390  0.42180  1.0000
  H   H39       1.0  0.27640  0.06390  0.07820  1.0000
  H   H40       1.0  0.72360  0.06390  0.42180  1.0000
  C   C57       1.0  0.17800  0.33610  0.99250  1.0000
  C   C58       1.0  0.82200  0.33610  0.50750  1.0000
  C   C59       1.0  0.67800  0.83610  0.99250  1.0000
  C   C60       1.0  0.32200  0.83610  0.50750  1.0000
  C   C61       1.0  0.82200  0.66390  0.00750  1.0000
  C   C62       1.0  0.17800  0.66390  0.49250  1.0000
  C   C63       1.0  0.32200  0.16390  0.00750  1.0000
  C   C64       1.0  0.67800  0.16390  0.49250  1.0000
  C   C65       1.0  0.31300  0.39490  0.39880  1.0000
  C   C66       1.0  0.68700  0.39490  0.10120  1.0000
  C   C67       1.0  0.81300  0.89490  0.39880  1.0000
  C   C68       1.0  0.18700  0.89490  0.10120  1.0000
  C   C69       1.0  0.68700  0.60510  0.60120  1.0000
  C   C70       1.0  0.31300  0.60510  0.89880  1.0000
  C   C71       1.0  0.18700  0.10510  0.60120  1.0000
  C   C72       1.0  0.81300  0.10510  0.89880  1.0000
  C   C73       1.0  0.27080  0.44480  0.17500  1.0000
  C   C74       1.0  0.72920  0.44480  0.32500  1.0000
  C   C75       1.0  0.77080  0.94480  0.17500  1.0000
  C   C76       1.0  0.22920  0.94480  0.32500  1.0000
  C   C77       1.0  0.72920  0.55520  0.82500  1.0000
  C   C78       1.0  0.27080  0.55520  0.67500  1.0000
  C   C79       1.0  0.22920  0.05520  0.82500  1.0000
  C   C80       1.0  0.77080  0.05520  0.67500  1.0000
  H   H41       1.0  0.27380  0.49160  0.11430  1.0000
  H   H42       1.0  0.72620  0.49160  0.38570  1.0000
  H   H43       1.0  0.77380  0.99160  0.11430  1.0000
  H   H44       1.0  0.22620  0.99160  0.38570  1.0000
  H   H45       1.0  0.72620  0.50840  0.88570  1.0000
  H   H46       1.0  0.27380  0.50840  0.61430  1.0000
  H   H47       1.0  0.22620  0.00840  0.88570  1.0000
  H   H48       1.0  0.77380  0.00840  0.61430  1.0000
  C   C81       1.0  0.36150  0.41140  0.54070  1.0000
  C   C82       1.0  0.63850  0.41140  0.95930  1.0000
  C   C83       1.0  0.86150  0.91140  0.54070  1.0000
  C   C84       1.0  0.13850  0.91140  0.95930  1.0000
  C   C85       1.0  0.63850  0.58860  0.45930  1.0000
  C   C86       1.0  0.36150  0.58860  0.04070  1.0000
  C   C87       1.0  0.13850  0.08860  0.45930  1.0000
  C   C88       1.0  0.86150  0.08860  0.04070  1.0000
  C   C89       1.0  0.26330  0.31110  0.35740  1.0000
  C   C90       1.0  0.73670  0.31110  0.14260  1.0000
  C   C91       1.0  0.76330  0.81110  0.35740  1.0000
  C   C92       1.0  0.23670  0.81110  0.14260  1.0000
  C   C93       1.0  0.73670  0.68890  0.64260  1.0000
  C   C94       1.0  0.26330  0.68890  0.85740  1.0000
  C   C95       1.0  0.23670  0.18890  0.64260  1.0000
  C   C96       1.0  0.76330  0.18890  0.85740  1.0000
  H   H49       1.0  0.25990  0.26530  0.41820  1.0000
  H   H50       1.0  0.74010  0.26530  0.08180  1.0000
  H   H51       1.0  0.75990  0.76530  0.41820  1.0000
  H   H52       1.0  0.24010  0.76530  0.08180  1.0000
  H   H53       1.0  0.74010  0.73470  0.58180  1.0000
  H   H54       1.0  0.25990  0.73470  0.91820  1.0000
  H   H55       1.0  0.24010  0.23470  0.58180  1.0000
  H   H56       1.0  0.75990  0.23470  0.91820  1.0000
  C   C97       1.0  0.21950  0.29560  0.22790  1.0000
  C   C98       1.0  0.78050  0.29560  0.27210  1.0000
  C   C99       1.0  0.71950  0.79560  0.22790  1.0000
  C   C100      1.0  0.28050  0.79560  0.27210  1.0000
  C   C101      1.0  0.78050  0.70440  0.77210  1.0000
  C   C102      1.0  0.21950  0.70440  0.72790  1.0000
  C   C103      1.0  0.28050  0.20440  0.77210  1.0000
  C   C104      1.0  0.71950  0.20440  0.72790  1.0000
  H   H57       1.0  0.18630  0.23970  0.20250  1.0000
  H   H58       1.0  0.81370  0.23970  0.29750  1.0000
  H   H59       1.0  0.68630  0.73970  0.20250  1.0000
  H   H60       1.0  0.31370  0.73970  0.29750  1.0000
  H   H61       1.0  0.81370  0.76030  0.79750  1.0000
  H   H62       1.0  0.18630  0.76030  0.70250  1.0000
  H   H63       1.0  0.31370  0.26030  0.79750  1.0000
  H   H64       1.0  0.68630  0.26030  0.70250  1.0000
  H   H65       1.0  0.91900  0.89400  0.77300  1.0000
  H   H66       1.0  0.08100  0.89400  0.72700  1.0000
  H   H67       1.0  0.41900  0.39400  0.77300  1.0000
  H   H68       1.0  0.58100  0.39400  0.72700  1.0000
  H   H69       1.0  0.08100  0.10600  0.22700  1.0000
  H   H70       1.0  0.91900  0.10600  0.27300  1.0000
  H   H71       1.0  0.58100  0.60600  0.22700  1.0000
  H   H72       1.0  0.41900  0.60600  0.27300  1.0000
