data_image0
_chemical_formula_structural       Tb4O16H16O8C8H8N8C8H8C8H8C8O8C16O8C16H8C16H8C8H8C16H8
_chemical_formula_sum              "Tb4 O40 H72 C104 N8"
_cell_length_a       23.577
_cell_length_b       11.491
_cell_length_c       11.968
_cell_angle_alpha    90
_cell_angle_beta     120.39
_cell_angle_gamma    90

_space_group_name_H-M_alt    "P 1"
_space_group_IT_number       1

loop_
  _space_group_symop_operation_xyz
  'x, y, z'

loop_
  _atom_site_type_symbol
  _atom_site_label
  _atom_site_symmetry_multiplicity
  _atom_site_fract_x
  _atom_site_fract_y
  _atom_site_fract_z
  _atom_site_occupancy
  Tb  Tb1       1.0  0.00000  0.06382  0.25000  1.0000
  Tb  Tb2       1.0  0.50000  0.56382  0.25000  1.0000
  Tb  Tb3       1.0  0.00000  0.93618  0.75000  1.0000
  Tb  Tb4       1.0  0.50000  0.43618  0.75000  1.0000
  O   O1        1.0  0.00891  0.16040  0.43550  1.0000
  O   O2        1.0  0.99109  0.16040  0.06450  1.0000
  O   O3        1.0  0.50891  0.66040  0.43550  1.0000
  O   O4        1.0  0.49109  0.66040  0.06450  1.0000
  O   O5        1.0  0.99109  0.83960  0.56450  1.0000
  O   O6        1.0  0.00891  0.83960  0.93550  1.0000
  O   O7        1.0  0.49109  0.33960  0.56450  1.0000
  O   O8        1.0  0.50891  0.33960  0.93550  1.0000
  O   O9        1.0  0.96200  0.91390  0.09300  1.0000
  O   O10       1.0  0.03800  0.91390  0.40700  1.0000
  O   O11       1.0  0.46200  0.41390  0.09300  1.0000
  O   O12       1.0  0.53800  0.41390  0.40700  1.0000
  O   O13       1.0  0.03800  0.08610  0.90700  1.0000
  O   O14       1.0  0.96200  0.08610  0.59300  1.0000
  O   O15       1.0  0.53800  0.58610  0.90700  1.0000
  O   O16       1.0  0.46200  0.58610  0.59300  1.0000
  H   H1        1.0  0.97920  0.90450  0.04610  1.0000
  H   H2        1.0  0.02080  0.90450  0.45390  1.0000
  H   H3        1.0  0.47920  0.40450  0.04610  1.0000
  H   H4        1.0  0.52080  0.40450  0.45390  1.0000
  H   H5        1.0  0.02080  0.09550  0.95390  1.0000
  H   H6        1.0  0.97920  0.09550  0.54610  1.0000
  H   H7        1.0  0.52080  0.59550  0.95390  1.0000
  H   H8        1.0  0.47920  0.59550  0.54610  1.0000
  H   H9        1.0  0.93110  0.86920  0.08370  1.0000
  H   H10       1.0  0.06890  0.86920  0.41630  1.0000
  H   H11       1.0  0.43110  0.36920  0.08370  1.0000
  H   H12       1.0  0.56890  0.36920  0.41630  1.0000
  H   H13       1.0  0.06890  0.13080  0.91630  1.0000
  H   H14       1.0  0.93110  0.13080  0.58370  1.0000
  H   H15       1.0  0.56890  0.63080  0.91630  1.0000
  H   H16       1.0  0.43110  0.63080  0.58370  1.0000
  O   O17       1.0  0.40342  0.49430  0.23570  1.0000
  O   O18       1.0  0.59658  0.49430  0.26430  1.0000
  O   O19       1.0  0.90342  0.99430  0.23570  1.0000
  O   O20       1.0  0.09658  0.99430  0.26430  1.0000
  O   O21       1.0  0.59658  0.50570  0.76430  1.0000
  O   O22       1.0  0.40342  0.50570  0.73570  1.0000
  O   O23       1.0  0.09658  0.00570  0.76430  1.0000
  O   O24       1.0  0.90342  0.00570  0.73570  1.0000
  C   C1        1.0  0.27170  0.44480  0.36810  1.0000
  C   C2        1.0  0.72830  0.44480  0.13190  1.0000
  C   C3        1.0  0.77170  0.94480  0.36810  1.0000
  C   C4        1.0  0.22830  0.94480  0.13190  1.0000
  C   C5        1.0  0.72830  0.55520  0.63190  1.0000
  C   C6        1.0  0.27170  0.55520  0.86810  1.0000
  C   C7        1.0  0.22830  0.05520  0.63190  1.0000
  C   C8        1.0  0.77170  0.05520  0.86810  1.0000
  H   H17       1.0  0.27500  0.49040  0.43540  1.0000
  H   H18       1.0  0.72500  0.49040  0.06460  1.0000
  H   H19       1.0  0.77500  0.99040  0.43540  1.0000
  H   H20       1.0  0.22500  0.99040  0.06460  1.0000
  H   H21       1.0  0.72500  0.50960  0.56460  1.0000
  H   H22       1.0  0.27500  0.50960  0.93540  1.0000
  H   H23       1.0  0.22500  0.00960  0.56460  1.0000
  H   H24       1.0  0.77500  0.00960  0.93540  1.0000
  N   N1        1.0  0.08460  0.23140  0.34460  1.0000
  N   N2        1.0  0.91540  0.23140  0.15540  1.0000
  N   N3        1.0  0.58460  0.73140  0.34460  1.0000
  N   N4        1.0  0.41540  0.73140  0.15540  1.0000
  N   N5        1.0  0.91540  0.76860  0.65540  1.0000
  N   N6        1.0  0.08460  0.76860  0.84460  1.0000
  N   N7        1.0  0.41540  0.26860  0.65540  1.0000
  N   N8        1.0  0.58460  0.26860  0.84460  1.0000
  C   C9        1.0  0.31550  0.46160  0.32480  1.0000
  C   C10       1.0  0.68450  0.46160  0.17520  1.0000
  C   C11       1.0  0.81550  0.96160  0.32480  1.0000
  C   C12       1.0  0.18450  0.96160  0.17520  1.0000
  C   C13       1.0  0.68450  0.53840  0.67520  1.0000
  C   C14       1.0  0.31550  0.53840  0.82480  1.0000
  C   C15       1.0  0.18450  0.03840  0.67520  1.0000
  C   C16       1.0  0.81550  0.03840  0.82480  1.0000
  H   H25       1.0  0.34730  0.51940  0.36260  1.0000
  H   H26       1.0  0.65270  0.51940  0.13740  1.0000
  H   H27       1.0  0.84730  0.01940  0.36260  1.0000
  H   H28       1.0  0.15270  0.01940  0.13740  1.0000
  H   H29       1.0  0.65270  0.48060  0.63740  1.0000
  H   H30       1.0  0.34730  0.48060  0.86260  1.0000
  H   H31       1.0  0.15270  0.98060  0.63740  1.0000
  H   H32       1.0  0.84730  0.98060  0.86260  1.0000
  C   C17       1.0  0.14510  0.35900  0.52260  1.0000
  C   C18       1.0  0.85490  0.35900  0.97740  1.0000
  C   C19       1.0  0.64510  0.85900  0.52260  1.0000
  C   C20       1.0  0.35490  0.85900  0.97740  1.0000
  C   C21       1.0  0.85490  0.64100  0.47740  1.0000
  C   C22       1.0  0.14510  0.64100  0.02260  1.0000
  C   C23       1.0  0.35490  0.14100  0.47740  1.0000
  C   C24       1.0  0.64510  0.14100  0.02260  1.0000
  H   H33       1.0  0.15060  0.39320  0.59790  1.0000
  H   H34       1.0  0.84940  0.39320  0.90210  1.0000
  H   H35       1.0  0.65060  0.89320  0.59790  1.0000
  H   H36       1.0  0.34940  0.89320  0.90210  1.0000
  H   H37       1.0  0.84940  0.60680  0.40210  1.0000
  H   H38       1.0  0.15060  0.60680  0.09790  1.0000
  H   H39       1.0  0.34940  0.10680  0.40210  1.0000
  H   H40       1.0  0.65060  0.10680  0.09790  1.0000
  C   C25       1.0  0.36260  0.41080  0.18380  1.0000
  C   C26       1.0  0.63740  0.41080  0.31620  1.0000
  C   C27       1.0  0.86260  0.91080  0.18380  1.0000
  C   C28       1.0  0.13740  0.91080  0.31620  1.0000
  C   C29       1.0  0.63740  0.58920  0.81620  1.0000
  C   C30       1.0  0.36260  0.58920  0.68380  1.0000
  C   C31       1.0  0.13740  0.08920  0.81620  1.0000
  C   C32       1.0  0.86260  0.08920  0.68380  1.0000
  O   O25       1.0  0.35830  0.34390  0.09690  1.0000
  O   O26       1.0  0.64170  0.34390  0.40310  1.0000
  O   O27       1.0  0.85830  0.84390  0.09690  1.0000
  O   O28       1.0  0.14170  0.84390  0.40310  1.0000
  O   O29       1.0  0.64170  0.65610  0.90310  1.0000
  O   O30       1.0  0.35830  0.65610  0.59690  1.0000
  O   O31       1.0  0.14170  0.15610  0.90310  1.0000
  O   O32       1.0  0.85830  0.15610  0.59690  1.0000
  C   C33       1.0  0.17820  0.33730  0.36360  1.0000
  C   C34       1.0  0.82180  0.33730  0.13640  1.0000
  C   C35       1.0  0.67820  0.83730  0.36360  1.0000
  C   C36       1.0  0.32180  0.83730  0.13640  1.0000
  C   C37       1.0  0.82180  0.66270  0.63640  1.0000
  C   C38       1.0  0.17820  0.66270  0.86360  1.0000
  C   C39       1.0  0.32180  0.16270  0.63640  1.0000
  C   C40       1.0  0.67820  0.16270  0.86360  1.0000
  C   C41       1.0  0.04680  0.24550  0.49670  1.0000
  C   C42       1.0  0.95320  0.24550  0.00330  1.0000
  C   C43       1.0  0.54680  0.74550  0.49670  1.0000
  C   C44       1.0  0.45320  0.74550  0.00330  1.0000
  C   C45       1.0  0.95320  0.75450  0.50330  1.0000
  C   C46       1.0  0.04680  0.75450  0.99670  1.0000
  C   C47       1.0  0.45320  0.25450  0.50330  1.0000
  C   C48       1.0  0.54680  0.25450  0.99670  1.0000
  O   O33       1.0  0.04810  0.30060  0.58740  1.0000
  O   O34       1.0  0.95190  0.30060  0.91260  1.0000
  O   O35       1.0  0.54810  0.80060  0.58740  1.0000
  O   O36       1.0  0.45190  0.80060  0.91260  1.0000
  O   O37       1.0  0.95190  0.69940  0.41260  1.0000
  O   O38       1.0  0.04810  0.69940  0.08740  1.0000
  O   O39       1.0  0.45190  0.19940  0.41260  1.0000
  O   O40       1.0  0.54810  0.19940  0.08740  1.0000
  C   C49       1.0  0.09400  0.28160  0.45330  1.0000
  C   C50       1.0  0.90600  0.28160  0.04670  1.0000
  C   C51       1.0  0.59400  0.78160  0.45330  1.0000
  C   C52       1.0  0.40600  0.78160  0.04670  1.0000
  C   C53       1.0  0.90600  0.71840  0.54670  1.0000
  C   C54       1.0  0.09400  0.71840  0.95330  1.0000
  C   C55       1.0  0.40600  0.21840  0.54670  1.0000
  C   C56       1.0  0.59400  0.21840  0.95330  1.0000
  C   C57       1.0  0.12550  0.26000  0.30140  1.0000
  C   C58       1.0  0.87450  0.26000  0.19860  1.0000
  C   C59       1.0  0.62550  0.76000  0.30140  1.0000
  C   C60       1.0  0.37450  0.76000  0.19860  1.0000
  C   C61       1.0  0.87450  0.74000  0.69860  1.0000
  C   C62       1.0  0.12550  0.74000  0.80140  1.0000
  C   C63       1.0  0.37450  0.24000  0.69860  1.0000
  C   C64       1.0  0.62550  0.24000  0.80140  1.0000
  H   H41       1.0  0.11820  0.22590  0.22480  1.0000
  H   H42       1.0  0.88180  0.22590  0.27520  1.0000
  H   H43       1.0  0.61820  0.72590  0.22480  1.0000
  H   H44       1.0  0.38180  0.72590  0.27520  1.0000
  H   H45       1.0  0.88180  0.77410  0.77520  1.0000
  H   H46       1.0  0.11820  0.77410  0.72480  1.0000
  H   H47       1.0  0.38180  0.27410  0.77520  1.0000
  H   H48       1.0  0.61820  0.27410  0.72480  1.0000
  C   C65       1.0  0.22260  0.36030  0.31180  1.0000
  C   C66       1.0  0.77740  0.36030  0.18820  1.0000
  C   C67       1.0  0.72260  0.86030  0.31180  1.0000
  C   C68       1.0  0.27740  0.86030  0.18820  1.0000
  C   C69       1.0  0.77740  0.63970  0.68820  1.0000
  C   C70       1.0  0.22260  0.63970  0.81180  1.0000
  C   C71       1.0  0.27740  0.13970  0.68820  1.0000
  C   C72       1.0  0.72260  0.13970  0.81180  1.0000
  C   C73       1.0  0.21980  0.29520  0.21210  1.0000
  C   C74       1.0  0.78020  0.29520  0.28790  1.0000
  C   C75       1.0  0.71980  0.79520  0.21210  1.0000
  C   C76       1.0  0.28020  0.79520  0.28790  1.0000
  C   C77       1.0  0.78020  0.70480  0.78790  1.0000
  C   C78       1.0  0.21980  0.70480  0.71210  1.0000
  C   C79       1.0  0.28020  0.20480  0.78790  1.0000
  C   C80       1.0  0.71980  0.20480  0.71210  1.0000
  H   H49       1.0  0.18730  0.23870  0.17250  1.0000
  H   H50       1.0  0.81270  0.23870  0.32750  1.0000
  H   H51       1.0  0.68730  0.73870  0.17250  1.0000
  H   H52       1.0  0.31270  0.73870  0.32750  1.0000
  H   H53       1.0  0.81270  0.76130  0.82750  1.0000
  H   H54       1.0  0.18730  0.76130  0.67250  1.0000
  H   H55       1.0  0.31270  0.26130  0.82750  1.0000
  H   H56       1.0  0.68730  0.26130  0.67250  1.0000
  C   C81       1.0  0.18790  0.38500  0.47860  1.0000
  C   C82       1.0  0.81210  0.38500  0.02140  1.0000
  C   C83       1.0  0.68790  0.88500  0.47860  1.0000
  C   C84       1.0  0.31210  0.88500  0.02140  1.0000
  C   C85       1.0  0.81210  0.61500  0.52140  1.0000
  C   C86       1.0  0.18790  0.61500  0.97860  1.0000
  C   C87       1.0  0.31210  0.11500  0.52140  1.0000
  C   C88       1.0  0.68790  0.11500  0.97860  1.0000
  H   H57       1.0  0.22320  0.43460  0.52630  1.0000
  H   H58       1.0  0.77680  0.43460  0.97370  1.0000
  H   H59       1.0  0.72320  0.93460  0.52630  1.0000
  H   H60       1.0  0.27680  0.93460  0.97370  1.0000
  H   H61       1.0  0.77680  0.56540  0.47370  1.0000
  H   H62       1.0  0.22320  0.56540  0.02630  1.0000
  H   H63       1.0  0.27680  0.06540  0.47370  1.0000
  H   H64       1.0  0.72320  0.06540  0.02630  1.0000
  C   C89       1.0  0.31320  0.39460  0.22700  1.0000
  C   C90       1.0  0.68680  0.39460  0.27300  1.0000
  C   C91       1.0  0.81320  0.89460  0.22700  1.0000
  C   C92       1.0  0.18680  0.89460  0.27300  1.0000
  C   C93       1.0  0.68680  0.60540  0.77300  1.0000
  C   C94       1.0  0.31320  0.60540  0.72700  1.0000
  C   C95       1.0  0.18680  0.10540  0.77300  1.0000
  C   C96       1.0  0.81320  0.10540  0.72700  1.0000
  C   C97       1.0  0.26360  0.31140  0.16960  1.0000
  C   C98       1.0  0.73640  0.31140  0.33040  1.0000
  C   C99       1.0  0.76360  0.81140  0.16960  1.0000
  C   C100      1.0  0.23640  0.81140  0.33040  1.0000
  C   C101      1.0  0.73640  0.68860  0.83040  1.0000
  C   C102      1.0  0.26360  0.68860  0.66960  1.0000
  C   C103      1.0  0.23640  0.18860  0.83040  1.0000
  C   C104      1.0  0.76360  0.18860  0.66960  1.0000
  H   H65       1.0  0.26000  0.26640  0.10180  1.0000
  H   H66       1.0  0.74000  0.26640  0.39820  1.0000
  H   H67       1.0  0.76000  0.76640  0.10180  1.0000
  H   H68       1.0  0.24000  0.76640  0.39820  1.0000
  H   H69       1.0  0.74000  0.73360  0.89820  1.0000
  H   H70       1.0  0.26000  0.73360  0.60180  1.0000
  H   H71       1.0  0.24000  0.23360  0.89820  1.0000
  H   H72       1.0  0.76000  0.23360  0.60180  1.0000
