data_image0
_chemical_formula_structural       Ni4O4C4O4Ni4O4C4O4C28O8Ni4O4C4O4C28O8C4O12C4O4C28O12C4O8C4N4C8H64
_chemical_formula_sum              "Ni12 O76 C120 N4 H64"
_cell_length_a       17.8669
_cell_length_b       14.1157
_cell_length_c       19.8394
_cell_angle_alpha    90
_cell_angle_beta     91.256
_cell_angle_gamma    90

_space_group_name_H-M_alt    "P 1"
_space_group_IT_number       1

loop_
  _space_group_symop_operation_xyz
  'x, y, z'

loop_
  _atom_site_type_symbol
  _atom_site_label
  _atom_site_symmetry_multiplicity
  _atom_site_fract_x
  _atom_site_fract_y
  _atom_site_fract_z
  _atom_site_occupancy
  Ni  Ni1       1.0  0.24806  0.05190  0.42907  1.0000
  Ni  Ni2       1.0  0.25194  0.55190  0.07093  1.0000
  Ni  Ni3       1.0  0.75194  0.94810  0.57093  1.0000
  Ni  Ni4       1.0  0.74806  0.44810  0.92907  1.0000
  O   O1        1.0  0.26160  0.01020  0.33190  1.0000
  O   O2        1.0  0.23840  0.51020  0.16810  1.0000
  O   O3        1.0  0.73840  0.98980  0.66810  1.0000
  O   O4        1.0  0.76160  0.48980  0.83190  1.0000
  C   C1        1.0  0.25810  0.93330  0.30260  1.0000
  C   C2        1.0  0.24190  0.43330  0.19740  1.0000
  C   C3        1.0  0.74190  0.06670  0.69740  1.0000
  C   C4        1.0  0.75810  0.56670  0.80260  1.0000
  O   O5        1.0  0.24300  0.85160  0.32690  1.0000
  O   O6        1.0  0.25700  0.35160  0.17310  1.0000
  O   O7        1.0  0.75700  0.14840  0.67310  1.0000
  O   O8        1.0  0.74300  0.64840  0.82690  1.0000
  Ni  Ni5       1.0  0.20257  0.81597  0.41592  1.0000
  Ni  Ni6       1.0  0.29743  0.31597  0.08408  1.0000
  Ni  Ni7       1.0  0.79743  0.18403  0.58408  1.0000
  Ni  Ni8       1.0  0.70257  0.68403  0.91592  1.0000
  O   O9        1.0  0.26330  0.91460  0.46660  1.0000
  O   O10       1.0  0.23670  0.41460  0.03340  1.0000
  O   O11       1.0  0.73670  0.08540  0.53340  1.0000
  O   O12       1.0  0.76330  0.58540  0.96660  1.0000
  C   C5        1.0  0.31840  0.85750  0.48060  1.0000
  C   C6        1.0  0.18160  0.35750  0.01940  1.0000
  C   C7        1.0  0.68160  0.14250  0.51940  1.0000
  C   C8        1.0  0.81840  0.64250  0.98060  1.0000
  O   O13       1.0  0.31540  0.77450  0.45690  1.0000
  O   O14       1.0  0.18460  0.27450  0.04310  1.0000
  O   O15       1.0  0.68460  0.22550  0.54310  1.0000
  O   O16       1.0  0.81540  0.72550  0.95690  1.0000
  C   C9        1.0  0.38200  0.89160  0.52330  1.0000
  C   C10       1.0  0.11800  0.39160  0.97670  1.0000
  C   C11       1.0  0.61800  0.10840  0.47670  1.0000
  C   C12       1.0  0.88200  0.60840  0.02330  1.0000
  C   C13       1.0  0.36760  0.96670  0.56850  1.0000
  C   C14       1.0  0.13240  0.46670  0.93150  1.0000
  C   C15       1.0  0.63240  0.03330  0.43150  1.0000
  C   C16       1.0  0.86760  0.53330  0.06850  1.0000
  C   C17       1.0  0.42480  0.00780  0.60670  1.0000
  C   C18       1.0  0.07520  0.50780  0.89330  1.0000
  C   C19       1.0  0.57520  0.99220  0.39330  1.0000
  C   C20       1.0  0.92480  0.49220  0.10670  1.0000
  C   C21       1.0  0.49770  0.97410  0.59840  1.0000
  C   C22       1.0  0.00230  0.47410  0.90160  1.0000
  C   C23       1.0  0.50230  0.02590  0.40160  1.0000
  C   C24       1.0  0.99770  0.52590  0.09840  1.0000
  C   C25       1.0  0.51190  0.90100  0.55340  1.0000
  C   C26       1.0  0.98810  0.40100  0.94660  1.0000
  C   C27       1.0  0.48810  0.09900  0.44660  1.0000
  C   C28       1.0  0.01190  0.59900  0.05340  1.0000
  C   C29       1.0  0.45390  0.85900  0.51590  1.0000
  C   C30       1.0  0.04610  0.35900  0.98410  1.0000
  C   C31       1.0  0.54610  0.14100  0.48410  1.0000
  C   C32       1.0  0.95390  0.64100  0.01590  1.0000
  C   C33       1.0  0.59350  0.87720  0.53800  1.0000
  C   C34       1.0  0.90650  0.37720  0.96200  1.0000
  C   C35       1.0  0.40650  0.12280  0.46200  1.0000
  C   C36       1.0  0.09350  0.62280  0.03800  1.0000
  O   O17       1.0  0.64190  0.92660  0.56760  1.0000
  O   O18       1.0  0.85810  0.42660  0.93240  1.0000
  O   O19       1.0  0.35810  0.07340  0.43240  1.0000
  O   O20       1.0  0.14190  0.57340  0.06760  1.0000
  O   O21       1.0  0.60400  0.81180  0.49550  1.0000
  O   O22       1.0  0.89600  0.31180  0.00450  1.0000
  O   O23       1.0  0.39600  0.18820  0.50450  1.0000
  O   O24       1.0  0.10400  0.68820  0.99550  1.0000
  Ni  Ni9       1.0  0.69737  0.79408  0.44362  1.0000
  Ni  Ni10      1.0  0.80263  0.29408  0.05638  1.0000
  Ni  Ni11      1.0  0.30263  0.20592  0.55638  1.0000
  Ni  Ni12      1.0  0.19737  0.70592  0.94362  1.0000
  O   O25       1.0  0.23690  0.09380  0.53050  1.0000
  O   O26       1.0  0.26310  0.59380  0.96950  1.0000
  O   O27       1.0  0.76310  0.90620  0.46950  1.0000
  O   O28       1.0  0.73690  0.40620  0.03050  1.0000
  C   C37       1.0  0.18410  0.11420  0.57050  1.0000
  C   C38       1.0  0.31590  0.61420  0.92950  1.0000
  C   C39       1.0  0.81590  0.88580  0.42950  1.0000
  C   C40       1.0  0.68410  0.38580  0.07050  1.0000
  O   O29       1.0  0.18830  0.18730  0.60570  1.0000
  O   O30       1.0  0.31170  0.68730  0.89430  1.0000
  O   O31       1.0  0.81170  0.81270  0.39430  1.0000
  O   O32       1.0  0.68830  0.31270  0.10570  1.0000
  C   C41       1.0  0.12160  0.04400  0.57600  1.0000
  C   C42       1.0  0.37840  0.54400  0.92400  1.0000
  C   C43       1.0  0.87840  0.95600  0.42400  1.0000
  C   C44       1.0  0.62160  0.45600  0.07600  1.0000
  C   C45       1.0  0.04830  0.07350  0.58970  1.0000
  C   C46       1.0  0.45170  0.57350  0.91030  1.0000
  C   C47       1.0  0.95170  0.92650  0.41030  1.0000
  C   C48       1.0  0.54830  0.42650  0.08970  1.0000
  C   C49       1.0  0.99050  0.00610  0.58690  1.0000
  C   C50       1.0  0.50950  0.50610  0.91310  1.0000
  C   C51       1.0  0.00950  0.99390  0.41310  1.0000
  C   C52       1.0  0.49050  0.49390  0.08690  1.0000
  C   C53       1.0  0.00720  0.91070  0.57390  1.0000
  C   C54       1.0  0.49280  0.41070  0.92610  1.0000
  C   C55       1.0  0.99280  0.08930  0.42610  1.0000
  C   C56       1.0  0.50720  0.58930  0.07390  1.0000
  C   C57       1.0  0.07990  0.88240  0.56350  1.0000
  C   C58       1.0  0.42010  0.38240  0.93650  1.0000
  C   C59       1.0  0.92010  0.11760  0.43650  1.0000
  C   C60       1.0  0.57990  0.61760  0.06350  1.0000
  C   C61       1.0  0.13760  0.94920  0.56400  1.0000
  C   C62       1.0  0.36240  0.44920  0.93600  1.0000
  C   C63       1.0  0.86240  0.05080  0.43600  1.0000
  C   C64       1.0  0.63760  0.55080  0.06400  1.0000
  C   C65       1.0  0.09510  0.78020  0.54560  1.0000
  C   C66       1.0  0.40490  0.28020  0.95440  1.0000
  C   C67       1.0  0.90490  0.21980  0.45440  1.0000
  C   C68       1.0  0.59510  0.71980  0.04560  1.0000
  O   O33       1.0  0.15960  0.76520  0.51590  1.0000
  O   O34       1.0  0.34040  0.26520  0.98410  1.0000
  O   O35       1.0  0.84040  0.23480  0.48410  1.0000
  O   O36       1.0  0.65960  0.73480  0.01590  1.0000
  O   O37       1.0  0.05060  0.71860  0.55780  1.0000
  O   O38       1.0  0.44940  0.21860  0.94220  1.0000
  O   O39       1.0  0.94940  0.28140  0.44220  1.0000
  O   O40       1.0  0.55060  0.78140  0.05780  1.0000
  C   C69       1.0  0.90890  0.03520  0.58930  1.0000
  C   C70       1.0  0.59110  0.53520  0.91070  1.0000
  C   C71       1.0  0.09110  0.96480  0.41070  1.0000
  C   C72       1.0  0.40890  0.46480  0.08930  1.0000
  O   O41       1.0  0.89680  0.12290  0.59930  1.0000
  O   O42       1.0  0.60320  0.62290  0.90070  1.0000
  O   O43       1.0  0.10320  0.87710  0.40070  1.0000
  O   O44       1.0  0.39680  0.37710  0.09930  1.0000
  O   O45       1.0  0.86260  0.97090  0.58150  1.0000
  O   O46       1.0  0.63740  0.47090  0.91850  1.0000
  O   O47       1.0  0.13740  0.02910  0.41850  1.0000
  O   O48       1.0  0.36260  0.52910  0.08150  1.0000
  O   O49       1.0  0.25120  0.77990  0.01610  1.0000
  O   O50       1.0  0.24880  0.27990  0.48390  1.0000
  O   O51       1.0  0.74880  0.22010  0.98390  1.0000
  O   O52       1.0  0.75120  0.72010  0.51610  1.0000
  C   C73       1.0  0.26510  0.76360  0.07850  1.0000
  C   C74       1.0  0.23490  0.26360  0.42150  1.0000
  C   C75       1.0  0.73490  0.23640  0.92150  1.0000
  C   C76       1.0  0.76510  0.73640  0.57850  1.0000
  O   O53       1.0  0.26940  0.68550  0.10800  1.0000
  O   O54       1.0  0.23060  0.18550  0.39200  1.0000
  O   O55       1.0  0.73060  0.31450  0.89200  1.0000
  O   O56       1.0  0.76940  0.81450  0.60800  1.0000
  C   C77       1.0  0.27680  0.85260  0.12160  1.0000
  C   C78       1.0  0.22320  0.35260  0.37840  1.0000
  C   C79       1.0  0.72320  0.14740  0.87840  1.0000
  C   C80       1.0  0.77680  0.64740  0.62160  1.0000
  C   C81       1.0  0.29280  0.93770  0.08870  1.0000
  C   C82       1.0  0.20720  0.43770  0.41130  1.0000
  C   C83       1.0  0.70720  0.06230  0.91130  1.0000
  C   C84       1.0  0.79280  0.56230  0.58870  1.0000
  C   C85       1.0  0.30000  0.01960  0.12670  1.0000
  C   C86       1.0  0.20000  0.51960  0.37330  1.0000
  C   C87       1.0  0.70000  0.98040  0.87330  1.0000
  C   C88       1.0  0.80000  0.48040  0.62670  1.0000
  C   C89       1.0  0.29070  0.01830  0.19520  1.0000
  C   C90       1.0  0.20930  0.51830  0.30480  1.0000
  C   C91       1.0  0.70930  0.98170  0.80480  1.0000
  C   C92       1.0  0.79070  0.48170  0.69520  1.0000
  C   C93       1.0  0.27380  0.93360  0.22730  1.0000
  C   C94       1.0  0.22620  0.43360  0.27270  1.0000
  C   C95       1.0  0.72620  0.06640  0.77270  1.0000
  C   C96       1.0  0.77380  0.56640  0.72730  1.0000
  C   C97       1.0  0.26720  0.85100  0.18910  1.0000
  C   C98       1.0  0.23280  0.35100  0.31090  1.0000
  C   C99       1.0  0.73280  0.14900  0.81090  1.0000
  C   C100      1.0  0.76720  0.64900  0.68910  1.0000
  C   C101      1.0  0.31560  0.11110  0.08970  1.0000
  C   C102      1.0  0.18440  0.61110  0.41030  1.0000
  C   C103      1.0  0.68440  0.88890  0.91030  1.0000
  C   C104      1.0  0.81560  0.38890  0.58970  1.0000
  O   O57       1.0  0.32120  0.18640  0.12270  1.0000
  O   O58       1.0  0.17880  0.68640  0.37730  1.0000
  O   O59       1.0  0.67880  0.81360  0.87730  1.0000
  O   O60       1.0  0.82120  0.31360  0.62270  1.0000
  O   O61       1.0  0.32030  0.10490  0.02520  1.0000
  O   O62       1.0  0.17970  0.60490  0.47480  1.0000
  O   O63       1.0  0.67970  0.89510  0.97480  1.0000
  O   O64       1.0  0.82030  0.39510  0.52520  1.0000
  O   O65       1.0  0.34890  0.13960  0.63970  1.0000
  O   O66       1.0  0.15110  0.63960  0.86030  1.0000
  O   O67       1.0  0.65110  0.86040  0.36030  1.0000
  O   O68       1.0  0.84890  0.36040  0.13970  1.0000
  C   C105      1.0  0.40850  0.09090  0.65210  1.0000
  C   C106      1.0  0.09150  0.59090  0.84790  1.0000
  C   C107      1.0  0.59150  0.90910  0.34790  1.0000
  C   C108      1.0  0.90850  0.40910  0.15210  1.0000
  O   O69       1.0  0.45380  0.10880  0.69830  1.0000
  O   O70       1.0  0.04620  0.60880  0.80170  1.0000
  O   O71       1.0  0.54620  0.89120  0.30170  1.0000
  O   O72       1.0  0.95380  0.39120  0.19830  1.0000
  O   O73       1.0  0.66190  0.66450  0.40740  1.0000
  O   O74       1.0  0.83810  0.16450  0.09260  1.0000
  O   O75       1.0  0.33810  0.33550  0.59260  1.0000
  O   O76       1.0  0.16190  0.83550  0.90740  1.0000
  C   C109      1.0  0.63710  0.60860  0.44970  1.0000
  C   C110      1.0  0.86290  0.10860  0.05030  1.0000
  C   C111      1.0  0.36290  0.39140  0.55030  1.0000
  C   C112      1.0  0.13710  0.89140  0.94970  1.0000
  N   N1        1.0  0.63340  0.51620  0.44390  1.0000
  N   N2        1.0  0.86660  0.01620  0.05610  1.0000
  N   N3        1.0  0.36660  0.48380  0.55610  1.0000
  N   N4        1.0  0.13340  0.98380  0.94390  1.0000
  C   C113      1.0  0.60400  0.45540  0.49530  1.0000
  C   C114      1.0  0.89600  0.95540  0.00470  1.0000
  C   C115      1.0  0.39600  0.54460  0.50470  1.0000
  C   C116      1.0  0.10400  0.04460  0.99530  1.0000
  C   C117      1.0  0.66360  0.47010  0.38490  1.0000
  C   C118      1.0  0.83640  0.97010  0.11510  1.0000
  C   C119      1.0  0.33640  0.52990  0.61510  1.0000
  C   C120      1.0  0.16360  0.02990  0.88490  1.0000
  H   H1        1.0  0.31810  0.98990  0.57250  1.0000
  H   H2        1.0  0.18190  0.48990  0.92750  1.0000
  H   H3        1.0  0.68190  0.01010  0.42750  1.0000
  H   H4        1.0  0.81810  0.51010  0.07250  1.0000
  H   H5        1.0  0.53840  0.00170  0.62360  1.0000
  H   H6        1.0  0.96160  0.50170  0.87640  1.0000
  H   H7        1.0  0.46160  0.99830  0.37640  1.0000
  H   H8        1.0  0.03840  0.49830  0.12360  1.0000
  H   H9        1.0  0.46340  0.80800  0.48510  1.0000
  H   H10       1.0  0.03660  0.30800  0.01490  1.0000
  H   H11       1.0  0.53660  0.19200  0.51490  1.0000
  H   H12       1.0  0.96340  0.69200  0.98510  1.0000
  H   H13       1.0  0.03790  0.13710  0.60060  1.0000
  H   H14       1.0  0.46210  0.63710  0.89940  1.0000
  H   H15       1.0  0.96210  0.86290  0.39940  1.0000
  H   H16       1.0  0.53790  0.36290  0.10060  1.0000
  H   H17       1.0  0.96810  0.86490  0.57280  1.0000
  H   H18       1.0  0.53190  0.36490  0.92720  1.0000
  H   H19       1.0  0.03190  0.13510  0.42720  1.0000
  H   H20       1.0  0.46810  0.63510  0.07280  1.0000
  H   H21       1.0  0.18730  0.92900  0.55630  1.0000
  H   H22       1.0  0.31270  0.42900  0.94370  1.0000
  H   H23       1.0  0.81270  0.07100  0.44370  1.0000
  H   H24       1.0  0.68730  0.57100  0.05630  1.0000
  H   H25       1.0  0.29700  0.93970  0.04120  1.0000
  H   H26       1.0  0.20300  0.43970  0.45880  1.0000
  H   H27       1.0  0.70300  0.06030  0.95880  1.0000
  H   H28       1.0  0.79700  0.56030  0.54120  1.0000
  H   H29       1.0  0.29600  0.07450  0.22070  1.0000
  H   H30       1.0  0.20400  0.57450  0.27930  1.0000
  H   H31       1.0  0.70400  0.92550  0.77930  1.0000
  H   H32       1.0  0.79600  0.42550  0.72070  1.0000
  H   H33       1.0  0.25480  0.79380  0.21080  1.0000
  H   H34       1.0  0.24520  0.29380  0.28920  1.0000
  H   H35       1.0  0.74520  0.20620  0.78920  1.0000
  H   H36       1.0  0.75480  0.70620  0.71080  1.0000
  H   H37       1.0  0.63610  0.39920  0.50120  1.0000
  H   H38       1.0  0.86390  0.89920  0.99880  1.0000
  H   H39       1.0  0.36390  0.60080  0.49880  1.0000
  H   H40       1.0  0.13610  0.10080  0.00120  1.0000
  H   H41       1.0  0.55290  0.43350  0.48200  1.0000
  H   H42       1.0  0.94710  0.93350  0.01800  1.0000
  H   H43       1.0  0.44710  0.56650  0.51800  1.0000
  H   H44       1.0  0.05290  0.06650  0.98200  1.0000
  H   H45       1.0  0.60110  0.48950  0.53870  1.0000
  H   H46       1.0  0.89890  0.98950  0.96130  1.0000
  H   H47       1.0  0.39890  0.51050  0.46130  1.0000
  H   H48       1.0  0.10110  0.01050  0.03870  1.0000
  H   H49       1.0  0.63970  0.40930  0.37630  1.0000
  H   H50       1.0  0.86030  0.90930  0.12370  1.0000
  H   H51       1.0  0.36030  0.59070  0.62370  1.0000
  H   H52       1.0  0.13970  0.09070  0.87630  1.0000
  H   H53       1.0  0.65600  0.50970  0.34510  1.0000
  H   H54       1.0  0.84400  0.00970  0.15490  1.0000
  H   H55       1.0  0.34400  0.49030  0.65490  1.0000
  H   H56       1.0  0.15600  0.99030  0.84510  1.0000
  H   H57       1.0  0.71720  0.45850  0.39040  1.0000
  H   H58       1.0  0.78280  0.95850  0.10960  1.0000
  H   H59       1.0  0.28280  0.54150  0.60960  1.0000
  H   H60       1.0  0.21720  0.04150  0.89040  1.0000
  H   H61       1.0  0.62000  0.63470  0.49070  1.0000
  H   H62       1.0  0.88000  0.13470  0.00930  1.0000
  H   H63       1.0  0.38000  0.36530  0.50930  1.0000
  H   H64       1.0  0.12000  0.86530  0.99070  1.0000
