data_image0
_chemical_formula_structural       U16P24O28H4O32H4O4H4O24H4O36H4O12H4C20H8C8H4C4H4C4H4C4H4C4H4C4H8C8H4C4H4C4H4C4H4C4H4C4H8C8H4C4H4C4H4C4H4C4H4C4H8C8H4C4H4C4H4C4H4C4H4C4H8C8H4C4H4C4H4C4H4C4H4C4H8C8H4C4H4C4H4C4H4C4H4
_chemical_formula_sum              "U16 P24 O136 H192 C184"
_cell_length_a       21.949
_cell_length_b       17.918
_cell_length_c       24.002
_cell_angle_alpha    90
_cell_angle_beta     113.989
_cell_angle_gamma    90

_space_group_name_H-M_alt    "P 1"
_space_group_IT_number       1

loop_
  _space_group_symop_operation_xyz
  'x, y, z'

loop_
  _atom_site_type_symbol
  _atom_site_label
  _atom_site_symmetry_multiplicity
  _atom_site_fract_x
  _atom_site_fract_y
  _atom_site_fract_z
  _atom_site_occupancy
  U   U1        1.0  0.11941  0.09359  0.73086  1.0000
  U   U2        1.0  0.38059  0.59359  0.76914  1.0000
  U   U3        1.0  0.88059  0.90641  0.26914  1.0000
  U   U4        1.0  0.61941  0.40641  0.23086  1.0000
  U   U5        1.0  0.87834  0.93335  0.76936  1.0000
  U   U6        1.0  0.62166  0.43335  0.73064  1.0000
  U   U7        1.0  0.12166  0.06665  0.23064  1.0000
  U   U8        1.0  0.37834  0.56665  0.26936  1.0000
  U   U9        1.0  0.65241  0.06154  0.79225  1.0000
  U   U10       1.0  0.84759  0.56154  0.70775  1.0000
  U   U11       1.0  0.34759  0.93846  0.20775  1.0000
  U   U12       1.0  0.15241  0.43846  0.29225  1.0000
  U   U13       1.0  0.34554  0.96545  0.70529  1.0000
  U   U14       1.0  0.15446  0.46545  0.79471  1.0000
  U   U15       1.0  0.65446  0.03455  0.29471  1.0000
  U   U16       1.0  0.84554  0.53455  0.20529  1.0000
  P   P1        1.0  0.27652  0.14712  0.72886  1.0000
  P   P2        1.0  0.22348  0.64712  0.77114  1.0000
  P   P3        1.0  0.72348  0.85288  0.27114  1.0000
  P   P4        1.0  0.77652  0.35288  0.22886  1.0000
  P   P5        1.0  0.86269  0.76464  0.67189  1.0000
  P   P6        1.0  0.63731  0.26464  0.82811  1.0000
  P   P7        1.0  0.13731  0.23536  0.32811  1.0000
  P   P8        1.0  0.36269  0.73536  0.17189  1.0000
  P   P9        1.0  0.72040  0.87941  0.76918  1.0000
  P   P10       1.0  0.77960  0.37941  0.73082  1.0000
  P   P11       1.0  0.27960  0.12059  0.23082  1.0000
  P   P12       1.0  0.22040  0.62059  0.26918  1.0000
  P   P13       1.0  0.83880  0.07113  0.86699  1.0000
  P   P14       1.0  0.66120  0.57113  0.63301  1.0000
  P   P15       1.0  0.16120  0.92887  0.13301  1.0000
  P   P16       1.0  0.33880  0.42887  0.36699  1.0000
  P   P17       1.0  0.36347  0.76284  0.67057  1.0000
  P   P18       1.0  0.13653  0.26284  0.82943  1.0000
  P   P19       1.0  0.63653  0.23716  0.32943  1.0000
  P   P20       1.0  0.86347  0.73716  0.17057  1.0000
  P   P21       1.0  0.15840  0.95110  0.63622  1.0000
  P   P22       1.0  0.34160  0.45110  0.86378  1.0000
  P   P23       1.0  0.84160  0.04890  0.36378  1.0000
  P   P24       1.0  0.65840  0.54890  0.13622  1.0000
  O   O1        1.0  0.18040  0.04210  0.78910  1.0000
  O   O2        1.0  0.31960  0.54210  0.71090  1.0000
  O   O3        1.0  0.81960  0.95790  0.21090  1.0000
  O   O4        1.0  0.68040  0.45790  0.28910  1.0000
  O   O5        1.0  0.05690  0.14540  0.67310  1.0000
  O   O6        1.0  0.44310  0.64540  0.82690  1.0000
  O   O7        1.0  0.94310  0.85460  0.32690  1.0000
  O   O8        1.0  0.55690  0.35460  0.17310  1.0000
  O   O9        1.0  0.03940  0.98820  0.70490  1.0000
  O   O10       1.0  0.46060  0.48820  0.79510  1.0000
  O   O11       1.0  0.96060  0.01180  0.29510  1.0000
  O   O12       1.0  0.53940  0.51180  0.20490  1.0000
  O   O13       1.0  0.04890  0.08920  0.78830  1.0000
  O   O14       1.0  0.45110  0.58920  0.71170  1.0000
  O   O15       1.0  0.95110  0.91080  0.21170  1.0000
  O   O16       1.0  0.54890  0.41080  0.28830  1.0000
  O   O17       1.0  0.20150  0.15280  0.70990  1.0000
  O   O18       1.0  0.29850  0.65280  0.79010  1.0000
  O   O19       1.0  0.79850  0.84720  0.29010  1.0000
  O   O20       1.0  0.70150  0.34720  0.20990  1.0000
  O   O21       1.0  0.29760  0.08460  0.70030  1.0000
  O   O22       1.0  0.20240  0.58460  0.79970  1.0000
  O   O23       1.0  0.70240  0.91540  0.29970  1.0000
  O   O24       1.0  0.79760  0.41540  0.20030  1.0000
  O   O25       1.0  0.30130  0.19070  0.84100  1.0000
  O   O26       1.0  0.19870  0.69070  0.65900  1.0000
  O   O27       1.0  0.69870  0.80930  0.15900  1.0000
  O   O28       1.0  0.80130  0.30930  0.34100  1.0000
  H   H1        1.0  0.26050  0.19170  0.82810  1.0000
  H   H2        1.0  0.23950  0.69170  0.67190  1.0000
  H   H3        1.0  0.73950  0.80830  0.17190  1.0000
  H   H4        1.0  0.76050  0.30830  0.32810  1.0000
  O   O29       1.0  0.96020  0.03850  0.79780  1.0000
  O   O30       1.0  0.53980  0.53850  0.70220  1.0000
  O   O31       1.0  0.03980  0.96150  0.20220  1.0000
  O   O32       1.0  0.46020  0.46150  0.29780  1.0000
  O   O33       1.0  0.95090  0.93860  0.71450  1.0000
  O   O34       1.0  0.54910  0.43860  0.78550  1.0000
  O   O35       1.0  0.04910  0.06140  0.28550  1.0000
  O   O36       1.0  0.45090  0.56140  0.21450  1.0000
  O   O37       1.0  0.93850  0.88110  0.82750  1.0000
  O   O38       1.0  0.56150  0.38110  0.67250  1.0000
  O   O39       1.0  0.06150  0.11890  0.17250  1.0000
  O   O40       1.0  0.43850  0.61890  0.32750  1.0000
  O   O41       1.0  0.81800  0.98540  0.71000  1.0000
  O   O42       1.0  0.68200  0.48540  0.79000  1.0000
  O   O43       1.0  0.18200  0.01460  0.29000  1.0000
  O   O44       1.0  0.31800  0.51460  0.21000  1.0000
  O   O45       1.0  0.85040  0.83020  0.70530  1.0000
  O   O46       1.0  0.64960  0.33020  0.79470  1.0000
  O   O47       1.0  0.14960  0.16980  0.29470  1.0000
  O   O48       1.0  0.35040  0.66980  0.20530  1.0000
  O   O49       1.0  0.86470  0.00760  0.84200  1.0000
  O   O50       1.0  0.63530  0.50760  0.65800  1.0000
  O   O51       1.0  0.13530  0.99240  0.15800  1.0000
  O   O52       1.0  0.36470  0.49240  0.34200  1.0000
  O   O53       1.0  0.84900  0.68970  0.69360  1.0000
  O   O54       1.0  0.65100  0.18970  0.80640  1.0000
  O   O55       1.0  0.15100  0.31030  0.30640  1.0000
  O   O56       1.0  0.34900  0.81030  0.19360  1.0000
  O   O57       1.0  0.96780  0.71430  0.65230  1.0000
  O   O58       1.0  0.53220  0.21430  0.84770  1.0000
  O   O59       1.0  0.03220  0.28570  0.34770  1.0000
  O   O60       1.0  0.46780  0.78570  0.15230  1.0000
  H   H5        1.0  0.95820  0.67390  0.66260  1.0000
  H   H6        1.0  0.54180  0.17390  0.83740  1.0000
  H   H7        1.0  0.04180  0.32610  0.33740  1.0000
  H   H8        1.0  0.45820  0.82610  0.16260  1.0000
  O   O61       1.0  0.95440  0.14060  0.89040  1.0000
  O   O62       1.0  0.54560  0.64060  0.60960  1.0000
  O   O63       1.0  0.04560  0.85940  0.10960  1.0000
  O   O64       1.0  0.45440  0.35940  0.39040  1.0000
  H   H9        1.0  0.97330  0.16910  0.87580  1.0000
  H   H10       1.0  0.52670  0.66910  0.62420  1.0000
  H   H11       1.0  0.02670  0.83090  0.12420  1.0000
  H   H12       1.0  0.47330  0.33090  0.37580  1.0000
  O   O65       1.0  0.76600  0.08820  0.83410  1.0000
  O   O66       1.0  0.73400  0.58820  0.66590  1.0000
  O   O67       1.0  0.23400  0.91180  0.16590  1.0000
  O   O68       1.0  0.26600  0.41180  0.33410  1.0000
  O   O69       1.0  0.65390  0.04340  0.86420  1.0000
  O   O70       1.0  0.84610  0.54340  0.63580  1.0000
  O   O71       1.0  0.34610  0.95660  0.13580  1.0000
  O   O72       1.0  0.15390  0.45660  0.36420  1.0000
  O   O73       1.0  0.64800  0.07850  0.71850  1.0000
  O   O74       1.0  0.85200  0.57850  0.78150  1.0000
  O   O75       1.0  0.35200  0.92150  0.28150  1.0000
  O   O76       1.0  0.14800  0.42150  0.21850  1.0000
  O   O77       1.0  0.69950  0.94310  0.79750  1.0000
  O   O78       1.0  0.80050  0.44310  0.70250  1.0000
  O   O79       1.0  0.30050  0.05690  0.20250  1.0000
  O   O80       1.0  0.19950  0.55690  0.29750  1.0000
  O   O81       1.0  0.79540  0.87110  0.78850  1.0000
  O   O82       1.0  0.70460  0.37110  0.71150  1.0000
  O   O83       1.0  0.20460  0.12890  0.21150  1.0000
  O   O84       1.0  0.29540  0.62890  0.28850  1.0000
  O   O85       1.0  0.69590  0.83950  0.65810  1.0000
  O   O86       1.0  0.80410  0.33950  0.84190  1.0000
  O   O87       1.0  0.30410  0.16050  0.34190  1.0000
  O   O88       1.0  0.19590  0.66050  0.15810  1.0000
  H   H13       1.0  0.72030  0.80950  0.68300  1.0000
  H   H14       1.0  0.77970  0.30950  0.81700  1.0000
  H   H15       1.0  0.27970  0.19050  0.31700  1.0000
  H   H16       1.0  0.22030  0.69050  0.18300  1.0000
  O   O89       1.0  0.56600  0.96400  0.74590  1.0000
  O   O90       1.0  0.93400  0.46400  0.75410  1.0000
  O   O91       1.0  0.43400  0.03600  0.25410  1.0000
  O   O92       1.0  0.06600  0.53600  0.24590  1.0000
  O   O93       1.0  0.53610  0.10050  0.76780  1.0000
  O   O94       1.0  0.96390  0.60050  0.73220  1.0000
  O   O95       1.0  0.46390  0.89950  0.23220  1.0000
  O   O96       1.0  0.03610  0.39950  0.26780  1.0000
  O   O97       1.0  0.43190  0.06400  0.74920  1.0000
  O   O98       1.0  0.06810  0.56400  0.75080  1.0000
  O   O99       1.0  0.56810  0.93600  0.25080  1.0000
  O   O100      1.0  0.93190  0.43600  0.24920  1.0000
  O   O101      1.0  0.46160  0.92740  0.72750  1.0000
  O   O102      1.0  0.03840  0.42740  0.77250  1.0000
  O   O103      1.0  0.53840  0.07260  0.27250  1.0000
  O   O104      1.0  0.96160  0.57260  0.22750  1.0000
  O   O105      1.0  0.34130  0.98180  0.63270  1.0000
  O   O106      1.0  0.15870  0.48180  0.86730  1.0000
  O   O107      1.0  0.65870  0.01820  0.36730  1.0000
  O   O108      1.0  0.84130  0.51820  0.13270  1.0000
  O   O109      1.0  0.35380  0.95130  0.78010  1.0000
  O   O110      1.0  0.14620  0.45130  0.71990  1.0000
  O   O111      1.0  0.64620  0.04870  0.21990  1.0000
  O   O112      1.0  0.85380  0.54870  0.28010  1.0000
  O   O113      1.0  0.23210  0.93880  0.66890  1.0000
  O   O114      1.0  0.26790  0.43880  0.83110  1.0000
  O   O115      1.0  0.76790  0.06120  0.33110  1.0000
  O   O116      1.0  0.73210  0.56120  0.16890  1.0000
  O   O117      1.0  0.34690  0.83630  0.68960  1.0000
  O   O118      1.0  0.15310  0.33630  0.81040  1.0000
  O   O119      1.0  0.65310  0.16370  0.31040  1.0000
  O   O120      1.0  0.84690  0.66370  0.18960  1.0000
  O   O121      1.0  0.46410  0.80340  0.65160  1.0000
  O   O122      1.0  0.03590  0.30340  0.84840  1.0000
  O   O123      1.0  0.53590  0.19660  0.34840  1.0000
  O   O124      1.0  0.96410  0.69660  0.15160  1.0000
  H   H17       1.0  0.46410  0.84100  0.67110  1.0000
  H   H18       1.0  0.03590  0.34100  0.82890  1.0000
  H   H19       1.0  0.53590  0.15900  0.32890  1.0000
  H   H20       1.0  0.96410  0.65900  0.17110  1.0000
  O   O125      1.0  0.35490  0.69740  0.70590  1.0000
  O   O126      1.0  0.14510  0.19740  0.79410  1.0000
  O   O127      1.0  0.64510  0.30260  0.29410  1.0000
  O   O128      1.0  0.85490  0.80260  0.20590  1.0000
  O   O129      1.0  0.13070  0.02030  0.65410  1.0000
  O   O130      1.0  0.36930  0.52030  0.84590  1.0000
  O   O131      1.0  0.86930  0.97970  0.34590  1.0000
  O   O132      1.0  0.63070  0.47970  0.15410  1.0000
  O   O133      1.0  0.04550  0.88010  0.62200  1.0000
  O   O134      1.0  0.45450  0.38010  0.87800  1.0000
  O   O135      1.0  0.95450  0.11990  0.37800  1.0000
  O   O136      1.0  0.54550  0.61990  0.12200  1.0000
  H   H21       1.0  0.03600  0.91100  0.64240  1.0000
  H   H22       1.0  0.46400  0.41100  0.85760  1.0000
  H   H23       1.0  0.96400  0.08900  0.35760  1.0000
  H   H24       1.0  0.53600  0.58900  0.14240  1.0000
  C   C1        1.0  0.00200  0.04270  0.77560  1.0000
  C   C2        1.0  0.49800  0.54270  0.72440  1.0000
  C   C3        1.0  0.99800  0.95730  0.22440  1.0000
  C   C4        1.0  0.50200  0.45730  0.27560  1.0000
  C   C5        1.0  0.99720  0.98340  0.72810  1.0000
  C   C6        1.0  0.50280  0.48340  0.77190  1.0000
  C   C7        1.0  0.00280  0.01660  0.27190  1.0000
  C   C8        1.0  0.49720  0.51660  0.22810  1.0000
  C   C9        1.0  0.48860  0.05280  0.75440  1.0000
  C   C10       1.0  0.01140  0.55280  0.74560  1.0000
  C   C11       1.0  0.51140  0.94720  0.24560  1.0000
  C   C12       1.0  0.98860  0.44720  0.25440  1.0000
  C   C13       1.0  0.50700  0.97360  0.74080  1.0000
  C   C14       1.0  0.99300  0.47360  0.75920  1.0000
  C   C15       1.0  0.49300  0.02640  0.25920  1.0000
  C   C16       1.0  0.00700  0.52640  0.24080  1.0000
  C   C17       1.0  0.31950  0.13810  0.81140  1.0000
  C   C18       1.0  0.18050  0.63810  0.68860  1.0000
  C   C19       1.0  0.68050  0.86190  0.18860  1.0000
  C   C20       1.0  0.81950  0.36190  0.31140  1.0000
  H   H25       1.0  0.31000  0.08940  0.82360  1.0000
  H   H26       1.0  0.19000  0.58940  0.67640  1.0000
  H   H27       1.0  0.69000  0.91060  0.17640  1.0000
  H   H28       1.0  0.81000  0.41060  0.32360  1.0000
  H   H29       1.0  0.36720  0.14140  0.82290  1.0000
  H   H30       1.0  0.13280  0.64140  0.67710  1.0000
  H   H31       1.0  0.63280  0.85860  0.17710  1.0000
  H   H32       1.0  0.86720  0.35860  0.32290  1.0000
  C   C21       1.0  0.29950  0.23620  0.70940  1.0000
  C   C22       1.0  0.20050  0.73620  0.79060  1.0000
  C   C23       1.0  0.70050  0.76380  0.29060  1.0000
  C   C24       1.0  0.79950  0.26380  0.20940  1.0000
  C   C25       1.0  0.35620  0.24210  0.69510  1.0000
  C   C26       1.0  0.14380  0.74210  0.80490  1.0000
  C   C27       1.0  0.64380  0.75790  0.30490  1.0000
  C   C28       1.0  0.85620  0.25790  0.19510  1.0000
  H   H33       1.0  0.38190  0.20040  0.69630  1.0000
  H   H34       1.0  0.11810  0.70040  0.80370  1.0000
  H   H35       1.0  0.61810  0.79960  0.30370  1.0000
  H   H36       1.0  0.88190  0.29960  0.19630  1.0000
  C   C29       1.0  0.37170  0.30990  0.67980  1.0000
  C   C30       1.0  0.12830  0.80990  0.82020  1.0000
  C   C31       1.0  0.62830  0.69010  0.32020  1.0000
  C   C32       1.0  0.87170  0.19010  0.17980  1.0000
  H   H37       1.0  0.40880  0.31430  0.67060  1.0000
  H   H38       1.0  0.09120  0.81430  0.82940  1.0000
  H   H39       1.0  0.59120  0.68570  0.32940  1.0000
  H   H40       1.0  0.90880  0.18570  0.17060  1.0000
  C   C33       1.0  0.33400  0.37320  0.67740  1.0000
  C   C34       1.0  0.16600  0.87320  0.82260  1.0000
  C   C35       1.0  0.66600  0.62680  0.32260  1.0000
  C   C36       1.0  0.83400  0.12680  0.17740  1.0000
  H   H41       1.0  0.34550  0.41920  0.66650  1.0000
  H   H42       1.0  0.15450  0.91920  0.83350  1.0000
  H   H43       1.0  0.65450  0.58080  0.33350  1.0000
  H   H44       1.0  0.84550  0.08080  0.16650  1.0000
  C   C37       1.0  0.27950  0.36650  0.69150  1.0000
  C   C38       1.0  0.22050  0.86650  0.80850  1.0000
  C   C39       1.0  0.72050  0.63350  0.30850  1.0000
  C   C40       1.0  0.77950  0.13350  0.19150  1.0000
  H   H45       1.0  0.25400  0.40840  0.69030  1.0000
  H   H46       1.0  0.24600  0.90840  0.80970  1.0000
  H   H47       1.0  0.74600  0.59160  0.30970  1.0000
  H   H48       1.0  0.75400  0.09160  0.19030  1.0000
  C   C41       1.0  0.26210  0.29860  0.70740  1.0000
  C   C42       1.0  0.23790  0.79860  0.79260  1.0000
  C   C43       1.0  0.73790  0.70140  0.29260  1.0000
  C   C44       1.0  0.76210  0.20140  0.20740  1.0000
  H   H49       1.0  0.22510  0.29480  0.71680  1.0000
  H   H50       1.0  0.27490  0.79480  0.78320  1.0000
  H   H51       1.0  0.77490  0.70520  0.28320  1.0000
  H   H52       1.0  0.72510  0.20520  0.21680  1.0000
  C   C45       1.0  0.95000  0.77020  0.68120  1.0000
  C   C46       1.0  0.55000  0.27020  0.81880  1.0000
  C   C47       1.0  0.05000  0.22980  0.31880  1.0000
  C   C48       1.0  0.45000  0.72980  0.18120  1.0000
  H   H53       1.0  0.95700  0.81780  0.66540  1.0000
  H   H54       1.0  0.54300  0.31780  0.83460  1.0000
  H   H55       1.0  0.04300  0.18220  0.33460  1.0000
  H   H56       1.0  0.45700  0.68220  0.16540  1.0000
  H   H57       1.0  0.97890  0.76860  0.72430  1.0000
  H   H58       1.0  0.52110  0.26860  0.77570  1.0000
  H   H59       1.0  0.02110  0.23140  0.27570  1.0000
  H   H60       1.0  0.47890  0.73140  0.22430  1.0000
  C   C49       1.0  0.81250  0.77690  0.59260  1.0000
  C   C50       1.0  0.68750  0.27690  0.90740  1.0000
  C   C51       1.0  0.18750  0.22310  0.40740  1.0000
  C   C52       1.0  0.31250  0.72310  0.09260  1.0000
  C   C53       1.0  0.79390  0.84800  0.56950  1.0000
  C   C54       1.0  0.70610  0.34800  0.93050  1.0000
  C   C55       1.0  0.20610  0.15200  0.43050  1.0000
  C   C56       1.0  0.29390  0.65200  0.06950  1.0000
  H   H61       1.0  0.80870  0.88880  0.59540  1.0000
  H   H62       1.0  0.69130  0.38880  0.90460  1.0000
  H   H63       1.0  0.19130  0.11120  0.40460  1.0000
  H   H64       1.0  0.30870  0.61120  0.09540  1.0000
  C   C57       1.0  0.75280  0.85980  0.50690  1.0000
  C   C58       1.0  0.74720  0.35980  0.99310  1.0000
  C   C59       1.0  0.24720  0.14020  0.49310  1.0000
  C   C60       1.0  0.25280  0.64020  0.00690  1.0000
  H   H65       1.0  0.73730  0.90700  0.49150  1.0000
  H   H66       1.0  0.76270  0.40700  0.00850  1.0000
  H   H67       1.0  0.26270  0.09300  0.50850  1.0000
  H   H68       1.0  0.23730  0.59300  0.99150  1.0000
  C   C61       1.0  0.73720  0.79770  0.47030  1.0000
  C   C62       1.0  0.76280  0.29770  0.02970  1.0000
  C   C63       1.0  0.26280  0.20230  0.52970  1.0000
  C   C64       1.0  0.23720  0.70230  0.97030  1.0000
  H   H69       1.0  0.71320  0.80430  0.42860  1.0000
  H   H70       1.0  0.78680  0.30430  0.07140  1.0000
  H   H71       1.0  0.28680  0.19570  0.57140  1.0000
  H   H72       1.0  0.21320  0.69570  0.92860  1.0000
  C   C65       1.0  0.75380  0.73090  0.49020  1.0000
  C   C66       1.0  0.74620  0.23090  0.00980  1.0000
  C   C67       1.0  0.24620  0.26910  0.50980  1.0000
  C   C68       1.0  0.25380  0.76910  0.99020  1.0000
  H   H73       1.0  0.74030  0.69080  0.46330  1.0000
  H   H74       1.0  0.75970  0.19080  0.03670  1.0000
  H   H75       1.0  0.25970  0.30920  0.53670  1.0000
  H   H76       1.0  0.24030  0.80920  0.96330  1.0000
  C   C69       1.0  0.79300  0.71810  0.55400  1.0000
  C   C70       1.0  0.70700  0.21810  0.94600  1.0000
  C   C71       1.0  0.20700  0.28190  0.44600  1.0000
  C   C72       1.0  0.29300  0.78190  0.05400  1.0000
  H   H77       1.0  0.80490  0.66990  0.56850  1.0000
  H   H78       1.0  0.69510  0.16990  0.93150  1.0000
  H   H79       1.0  0.19510  0.33010  0.43150  1.0000
  H   H80       1.0  0.30490  0.83010  0.06850  1.0000
  C   C73       1.0  0.67560  0.89090  0.68690  1.0000
  C   C74       1.0  0.82440  0.39090  0.81310  1.0000
  C   C75       1.0  0.32440  0.10910  0.31310  1.0000
  C   C76       1.0  0.17560  0.60910  0.18690  1.0000
  H   H81       1.0  0.62800  0.88570  0.67550  1.0000
  H   H82       1.0  0.87200  0.38570  0.82450  1.0000
  H   H83       1.0  0.37200  0.11430  0.32450  1.0000
  H   H84       1.0  0.12800  0.61430  0.17550  1.0000
  H   H85       1.0  0.68380  0.94030  0.67500  1.0000
  H   H86       1.0  0.81620  0.44030  0.82500  1.0000
  H   H87       1.0  0.31620  0.05970  0.32500  1.0000
  H   H88       1.0  0.18380  0.55970  0.17500  1.0000
  C   C77       1.0  0.69290  0.79360  0.78730  1.0000
  C   C78       1.0  0.80710  0.29360  0.71270  1.0000
  C   C79       1.0  0.30710  0.20640  0.21270  1.0000
  C   C80       1.0  0.19290  0.70640  0.28730  1.0000
  C   C81       1.0  0.63850  0.78810  0.80400  1.0000
  C   C82       1.0  0.86150  0.28810  0.69600  1.0000
  C   C83       1.0  0.36150  0.21190  0.19600  1.0000
  C   C84       1.0  0.13850  0.71190  0.30400  1.0000
  H   H89       1.0  0.61580  0.83070  0.80680  1.0000
  H   H90       1.0  0.88420  0.33070  0.69320  1.0000
  H   H91       1.0  0.38420  0.16930  0.19320  1.0000
  H   H92       1.0  0.11580  0.66930  0.30680  1.0000
  C   C85       1.0  0.61920  0.71950  0.81600  1.0000
  C   C86       1.0  0.88080  0.21950  0.68400  1.0000
  C   C87       1.0  0.38080  0.28050  0.18400  1.0000
  C   C88       1.0  0.11920  0.78050  0.31600  1.0000
  H   H93       1.0  0.58160  0.71580  0.82460  1.0000
  H   H94       1.0  0.91840  0.21580  0.67540  1.0000
  H   H95       1.0  0.41840  0.28420  0.17540  1.0000
  H   H96       1.0  0.08160  0.78420  0.32460  1.0000
  C   C89       1.0  0.65360  0.65670  0.81590  1.0000
  C   C90       1.0  0.84640  0.15670  0.68410  1.0000
  C   C91       1.0  0.34640  0.34330  0.18410  1.0000
  C   C92       1.0  0.15360  0.84330  0.31590  1.0000
  H   H97       1.0  0.64020  0.61120  0.82590  1.0000
  H   H98       1.0  0.85980  0.11120  0.67410  1.0000
  H   H99       1.0  0.35980  0.38880  0.17410  1.0000
  H   H100      1.0  0.14020  0.88880  0.32590  1.0000
  C   C93       1.0  0.70680  0.65880  0.80160  1.0000
  C   C94       1.0  0.79320  0.15880  0.69840  1.0000
  C   C95       1.0  0.29320  0.34120  0.19840  1.0000
  C   C96       1.0  0.20680  0.84120  0.30160  1.0000
  H   H101      1.0  0.73000  0.61540  0.80170  1.0000
  H   H102      1.0  0.77000  0.11540  0.69830  1.0000
  H   H103      1.0  0.27000  0.38460  0.19830  1.0000
  H   H104      1.0  0.23000  0.88460  0.30170  1.0000
  C   C97       1.0  0.72630  0.72660  0.78670  1.0000
  C   C98       1.0  0.77370  0.22660  0.71330  1.0000
  C   C99       1.0  0.27370  0.27340  0.21330  1.0000
  C   C100      1.0  0.22630  0.77340  0.28670  1.0000
  H   H105      1.0  0.76250  0.72800  0.77590  1.0000
  H   H106      1.0  0.73750  0.22800  0.72410  1.0000
  H   H107      1.0  0.23750  0.27200  0.22410  1.0000
  H   H108      1.0  0.26250  0.77200  0.27590  1.0000
  C   C101      1.0  0.88490  0.15520  0.86410  1.0000
  C   C102      1.0  0.61510  0.65520  0.63590  1.0000
  C   C103      1.0  0.11510  0.84480  0.13590  1.0000
  C   C104      1.0  0.38490  0.34480  0.36410  1.0000
  H   H109      1.0  0.87130  0.17080  0.82210  1.0000
  H   H110      1.0  0.62870  0.67080  0.67790  1.0000
  H   H111      1.0  0.12870  0.82920  0.17790  1.0000
  H   H112      1.0  0.37130  0.32920  0.32210  1.0000
  H   H113      1.0  0.87480  0.19530  0.88620  1.0000
  H   H114      1.0  0.62520  0.69530  0.61380  1.0000
  H   H115      1.0  0.12520  0.80470  0.11380  1.0000
  H   H116      1.0  0.37480  0.30470  0.38620  1.0000
  C   C105      1.0  0.85850  0.05180  0.94590  1.0000
  C   C106      1.0  0.64150  0.55180  0.55410  1.0000
  C   C107      1.0  0.14150  0.94820  0.05410  1.0000
  C   C108      1.0  0.35850  0.44820  0.44590  1.0000
  C   C109      1.0  0.81180  0.04600  0.96750  1.0000
  C   C110      1.0  0.68820  0.54600  0.53250  1.0000
  C   C111      1.0  0.18820  0.95400  0.03250  1.0000
  C   C112      1.0  0.31180  0.45400  0.46750  1.0000
  H   H117      1.0  0.76790  0.05650  0.94150  1.0000
  H   H118      1.0  0.73210  0.55650  0.55850  1.0000
  H   H119      1.0  0.23210  0.94350  0.05850  1.0000
  H   H120      1.0  0.26790  0.44350  0.44150  1.0000
  C   C113      1.0  0.82580  0.02470  0.02830  1.0000
  C   C114      1.0  0.67420  0.52470  0.47170  1.0000
  C   C115      1.0  0.17420  0.97530  0.97170  1.0000
  C   C116      1.0  0.32580  0.47530  0.52830  1.0000
  H   H121      1.0  0.79220  0.01360  0.04120  1.0000
  H   H122      1.0  0.70780  0.51360  0.45880  1.0000
  H   H123      1.0  0.20780  0.98640  0.95880  1.0000
  H   H124      1.0  0.29220  0.48640  0.54120  1.0000
  C   C117      1.0  0.89280  0.02120  0.06750  1.0000
  C   C118      1.0  0.60720  0.52120  0.43250  1.0000
  C   C119      1.0  0.10720  0.97880  0.93250  1.0000
  C   C120      1.0  0.39280  0.47880  0.56750  1.0000
  H   H125      1.0  0.90480  0.01540  0.10910  1.0000
  H   H126      1.0  0.59520  0.51540  0.39090  1.0000
  H   H127      1.0  0.09520  0.98460  0.89090  1.0000
  H   H128      1.0  0.40480  0.48460  0.60910  1.0000
  C   C121      1.0  0.93940  0.02590  0.04670  1.0000
  C   C122      1.0  0.56060  0.52590  0.45330  1.0000
  C   C123      1.0  0.06060  0.97410  0.95330  1.0000
  C   C124      1.0  0.43940  0.47410  0.54670  1.0000
  H   H129      1.0  0.98380  0.01880  0.07320  1.0000
  H   H130      1.0  0.51620  0.51880  0.42680  1.0000
  H   H131      1.0  0.01620  0.98120  0.92680  1.0000
  H   H132      1.0  0.48380  0.48120  0.57320  1.0000
  C   C125      1.0  0.92360  0.04160  0.98510  1.0000
  C   C126      1.0  0.57640  0.54160  0.51490  1.0000
  C   C127      1.0  0.07640  0.95840  0.01490  1.0000
  C   C128      1.0  0.42360  0.45840  0.48510  1.0000
  H   H133      1.0  0.95720  0.04490  0.97100  1.0000
  H   H134      1.0  0.54280  0.54490  0.52900  1.0000
  H   H135      1.0  0.04280  0.95510  0.02900  1.0000
  H   H136      1.0  0.45720  0.45510  0.47100  1.0000
  C   C129      1.0  0.45120  0.74960  0.67520  1.0000
  C   C130      1.0  0.04880  0.24960  0.82480  1.0000
  C   C131      1.0  0.54880  0.25040  0.32480  1.0000
  C   C132      1.0  0.95120  0.75040  0.17520  1.0000
  H   H137      1.0  0.48270  0.74560  0.71740  1.0000
  H   H138      1.0  0.01730  0.24560  0.78260  1.0000
  H   H139      1.0  0.51730  0.25440  0.28260  1.0000
  H   H140      1.0  0.98270  0.75440  0.21740  1.0000
  H   H141      1.0  0.45370  0.70440  0.65400  1.0000
  H   H142      1.0  0.04630  0.20440  0.84600  1.0000
  H   H143      1.0  0.54630  0.29560  0.34600  1.0000
  H   H144      1.0  0.95370  0.79560  0.15400  1.0000
  C   C133      1.0  0.31290  0.74510  0.59220  1.0000
  C   C134      1.0  0.18710  0.24510  0.90780  1.0000
  C   C135      1.0  0.68710  0.25490  0.40780  1.0000
  C   C136      1.0  0.81290  0.75490  0.09220  1.0000
  C   C137      1.0  0.29240  0.80440  0.55120  1.0000
  C   C138      1.0  0.20760  0.30440  0.94880  1.0000
  C   C139      1.0  0.70760  0.19560  0.44880  1.0000
  C   C140      1.0  0.79240  0.69560  0.05120  1.0000
  H   H145      1.0  0.30280  0.85350  0.56390  1.0000
  H   H146      1.0  0.19720  0.35350  0.93610  1.0000
  H   H147      1.0  0.69720  0.14650  0.43610  1.0000
  H   H148      1.0  0.80280  0.64650  0.06390  1.0000
  C   C141      1.0  0.25500  0.78610  0.48890  1.0000
  C   C142      1.0  0.24500  0.28610  0.01110  1.0000
  C   C143      1.0  0.74500  0.21390  0.51110  1.0000
  C   C144      1.0  0.75500  0.71390  0.98890  1.0000
  H   H149      1.0  0.24180  0.82530  0.46110  1.0000
  H   H150      1.0  0.25820  0.32530  0.03890  1.0000
  H   H151      1.0  0.75820  0.17470  0.53890  1.0000
  H   H152      1.0  0.74180  0.67470  0.96110  1.0000
  C   C145      1.0  0.23770  0.71930  0.46780  1.0000
  C   C146      1.0  0.26230  0.21930  0.03220  1.0000
  C   C147      1.0  0.76230  0.28070  0.53220  1.0000
  C   C148      1.0  0.73770  0.78070  0.96780  1.0000
  H   H153      1.0  0.21130  0.70990  0.42690  1.0000
  H   H154      1.0  0.28870  0.20990  0.07310  1.0000
  H   H155      1.0  0.78870  0.29010  0.57310  1.0000
  H   H156      1.0  0.71130  0.79010  0.92690  1.0000
  C   C149      1.0  0.26090  0.66470  0.50950  1.0000
  C   C150      1.0  0.23910  0.16470  0.99050  1.0000
  C   C151      1.0  0.73910  0.33530  0.49050  1.0000
  C   C152      1.0  0.76090  0.83530  0.00950  1.0000
  H   H157      1.0  0.25070  0.61580  0.49580  1.0000
  H   H158      1.0  0.24930  0.11580  0.00420  1.0000
  H   H159      1.0  0.74930  0.38420  0.50420  1.0000
  H   H160      1.0  0.75070  0.88420  0.99580  1.0000
  C   C153      1.0  0.29880  0.67510  0.57110  1.0000
  C   C154      1.0  0.20120  0.17510  0.92890  1.0000
  C   C155      1.0  0.70120  0.32490  0.42890  1.0000
  C   C156      1.0  0.79880  0.82490  0.07110  1.0000
  H   H161      1.0  0.31410  0.63450  0.59730  1.0000
  H   H162      1.0  0.18590  0.13450  0.90270  1.0000
  H   H163      1.0  0.68590  0.36550  0.40270  1.0000
  H   H164      1.0  0.81410  0.86550  0.09730  1.0000
  C   C157      1.0  0.11550  0.86970  0.64670  1.0000
  C   C158      1.0  0.38450  0.36970  0.85330  1.0000
  C   C159      1.0  0.88450  0.13030  0.35330  1.0000
  C   C160      1.0  0.61550  0.63030  0.14670  1.0000
  H   H165      1.0  0.12590  0.82720  0.62710  1.0000
  H   H166      1.0  0.37410  0.32720  0.87290  1.0000
  H   H167      1.0  0.87410  0.17280  0.37290  1.0000
  H   H168      1.0  0.62590  0.67280  0.12710  1.0000
  H   H169      1.0  0.13140  0.85890  0.68990  1.0000
  H   H170      1.0  0.36860  0.35890  0.81010  1.0000
  H   H171      1.0  0.86860  0.14110  0.31010  1.0000
  H   H172      1.0  0.63140  0.64110  0.18990  1.0000
  C   C161      1.0  0.13700  0.95450  0.55490  1.0000
  C   C162      1.0  0.36300  0.45450  0.94510  1.0000
  C   C163      1.0  0.86300  0.04550  0.44510  1.0000
  C   C164      1.0  0.63700  0.54550  0.05490  1.0000
  C   C165      1.0  0.07010  0.94940  0.51530  1.0000
  C   C166      1.0  0.42990  0.44940  0.98470  1.0000
  C   C167      1.0  0.92990  0.05060  0.48470  1.0000
  C   C168      1.0  0.57010  0.55060  0.01530  1.0000
  H   H173      1.0  0.03770  0.94430  0.53080  1.0000
  H   H174      1.0  0.46230  0.44430  0.96920  1.0000
  H   H175      1.0  0.96230  0.05570  0.46920  1.0000
  H   H176      1.0  0.53770  0.55570  0.03080  1.0000
  C   C169      1.0  0.05160  0.95170  0.45270  1.0000
  C   C170      1.0  0.44840  0.45170  0.04730  1.0000
  C   C171      1.0  0.94840  0.04830  0.54730  1.0000
  C   C172      1.0  0.55160  0.54830  0.95270  1.0000
  H   H177      1.0  0.00690  0.94830  0.42620  1.0000
  H   H178      1.0  0.49310  0.44830  0.07380  1.0000
  H   H179      1.0  0.99310  0.05170  0.57380  1.0000
  H   H180      1.0  0.50690  0.55170  0.92620  1.0000
  C   C173      1.0  0.10000  0.95920  0.42960  1.0000
  C   C174      1.0  0.40000  0.45920  0.07040  1.0000
  C   C175      1.0  0.90000  0.04080  0.57040  1.0000
  C   C176      1.0  0.60000  0.54080  0.92960  1.0000
  H   H181      1.0  0.08770  0.96080  0.38770  1.0000
  H   H182      1.0  0.41230  0.46080  0.11230  1.0000
  H   H183      1.0  0.91230  0.03920  0.61230  1.0000
  H   H184      1.0  0.58770  0.53920  0.88770  1.0000
  C   C177      1.0  0.16690  0.96430  0.46920  1.0000
  C   C178      1.0  0.33310  0.46430  0.03080  1.0000
  C   C179      1.0  0.83310  0.03570  0.53080  1.0000
  C   C180      1.0  0.66690  0.53570  0.96920  1.0000
  H   H185      1.0  0.19930  0.96930  0.45380  1.0000
  H   H186      1.0  0.30070  0.46930  0.04620  1.0000
  H   H187      1.0  0.80070  0.03070  0.54620  1.0000
  H   H188      1.0  0.69930  0.53070  0.95380  1.0000
  C   C181      1.0  0.18540  0.96200  0.53190  1.0000
  C   C182      1.0  0.31460  0.46200  0.96810  1.0000
  C   C183      1.0  0.81460  0.03800  0.46810  1.0000
  C   C184      1.0  0.68540  0.53800  0.03190  1.0000
  H   H189      1.0  0.23010  0.96540  0.55830  1.0000
  H   H190      1.0  0.26990  0.46540  0.94170  1.0000
  H   H191      1.0  0.76990  0.03460  0.44170  1.0000
  H   H192      1.0  0.73010  0.53460  0.05830  1.0000
