data_image0
_chemical_formula_structural       V2S2O18C4
_chemical_formula_sum              "V2 S2 O18 C4"
_cell_length_a       6.2031
_cell_length_b       8.6599
_cell_length_c       12.1853
_cell_angle_alpha    77.13
_cell_angle_beta     76.207
_cell_angle_gamma    82.987

_space_group_name_H-M_alt    "P 1"
_space_group_IT_number       1

loop_
  _space_group_symop_operation_xyz
  'x, y, z'

loop_
  _atom_site_type_symbol
  _atom_site_label
  _atom_site_symmetry_multiplicity
  _atom_site_fract_x
  _atom_site_fract_y
  _atom_site_fract_z
  _atom_site_occupancy
  V   V1        1.0  0.62784  0.19491  0.11159  1.0000
  V   V2        1.0  0.37216  0.80509  0.88841  1.0000
  S   S1        1.0  0.40879  0.37750  0.31825  1.0000
  S   S2        1.0  0.59121  0.62250  0.68175  1.0000
  O   O1        1.0  0.45170  0.23480  0.26233  1.0000
  O   O2        1.0  0.54830  0.76520  0.73767  1.0000
  O   O3        1.0  0.59540  0.38450  0.36840  1.0000
  O   O4        1.0  0.40460  0.61550  0.63160  1.0000
  O   O5        1.0  0.20170  0.35280  0.40540  1.0000
  O   O6        1.0  0.79830  0.64720  0.59460  1.0000
  O   O7        1.0  0.37820  0.52100  0.23232  1.0000
  O   O8        1.0  0.62180  0.47900  0.76768  1.0000
  O   O9        1.0  0.43610  0.00720  0.14550  1.0000
  O   O10       1.0  0.56390  0.99280  0.85450  1.0000
  O   O11       1.0  0.31100  0.85510  0.05187  1.0000
  O   O12       1.0  0.68900  0.14490  0.94813  1.0000
  O   O13       1.0  0.74290  0.41500  0.04430  1.0000
  O   O14       1.0  0.25710  0.58500  0.95570  1.0000
  O   O15       1.0  0.65660  0.66330  0.95898  1.0000
  O   O16       1.0  0.34340  0.33670  0.04102  1.0000
  O   O17       1.0  0.85400  0.11550  0.14490  1.0000
  O   O18       1.0  0.14600  0.88450  0.85510  1.0000
  C   C1        1.0  0.42620  0.95990  0.05730  1.0000
  C   C2        1.0  0.57380  0.04010  0.94270  1.0000
  C   C3        1.0  0.61510  0.52470  0.00060  1.0000
  C   C4        1.0  0.38490  0.47530  0.99940  1.0000
