data_image0
_chemical_formula_structural       Mn16S8O104H16C32
_chemical_formula_sum              "Mn16 S8 O104 H16 C32"
_cell_length_a       14.6293
_cell_length_b       15.6671
_cell_length_c       17.3579
_cell_angle_alpha    90
_cell_angle_beta     90
_cell_angle_gamma    90

_space_group_name_H-M_alt    "P 1"
_space_group_IT_number       1

loop_
  _space_group_symop_operation_xyz
  'x, y, z'

loop_
  _atom_site_type_symbol
  _atom_site_label
  _atom_site_symmetry_multiplicity
  _atom_site_fract_x
  _atom_site_fract_y
  _atom_site_fract_z
  _atom_site_occupancy
  Mn  Mn1       1.0  0.41237  0.41523  0.39017  1.0000
  Mn  Mn2       1.0  0.08763  0.58477  0.89017  1.0000
  Mn  Mn3       1.0  0.58763  0.91523  0.10983  1.0000
  Mn  Mn4       1.0  0.91237  0.08477  0.60983  1.0000
  Mn  Mn5       1.0  0.58763  0.58477  0.60983  1.0000
  Mn  Mn6       1.0  0.91237  0.41523  0.10983  1.0000
  Mn  Mn7       1.0  0.41237  0.08477  0.89017  1.0000
  Mn  Mn8       1.0  0.08763  0.91523  0.39017  1.0000
  Mn  Mn9       1.0  0.45138  0.79453  0.39556  1.0000
  Mn  Mn10      1.0  0.04862  0.20547  0.89556  1.0000
  Mn  Mn11      1.0  0.54862  0.29453  0.10444  1.0000
  Mn  Mn12      1.0  0.95138  0.70547  0.60444  1.0000
  Mn  Mn13      1.0  0.54862  0.20547  0.60444  1.0000
  Mn  Mn14      1.0  0.95138  0.79453  0.10444  1.0000
  Mn  Mn15      1.0  0.45138  0.70547  0.89556  1.0000
  Mn  Mn16      1.0  0.04862  0.29453  0.39556  1.0000
  S   S1        1.0  0.52748  0.59769  0.42351  1.0000
  S   S2        1.0  0.97252  0.40231  0.92351  1.0000
  S   S3        1.0  0.47252  0.09769  0.07649  1.0000
  S   S4        1.0  0.02748  0.90231  0.57649  1.0000
  S   S5        1.0  0.47252  0.40231  0.57649  1.0000
  S   S6        1.0  0.02748  0.59769  0.07649  1.0000
  S   S7        1.0  0.52748  0.90231  0.92351  1.0000
  S   S8        1.0  0.97252  0.09769  0.42351  1.0000
  O   O1        1.0  0.45150  0.54621  0.39498  1.0000
  O   O2        1.0  0.04850  0.45379  0.89498  1.0000
  O   O3        1.0  0.54850  0.04621  0.10502  1.0000
  O   O4        1.0  0.95150  0.95379  0.60502  1.0000
  O   O5        1.0  0.54850  0.45379  0.60502  1.0000
  O   O6        1.0  0.95150  0.54621  0.10502  1.0000
  O   O7        1.0  0.45150  0.95379  0.89498  1.0000
  O   O8        1.0  0.04850  0.04621  0.39498  1.0000
  O   O9        1.0  0.52850  0.67902  0.38085  1.0000
  O   O10       1.0  0.97150  0.32098  0.88085  1.0000
  O   O11       1.0  0.47150  0.17902  0.11915  1.0000
  O   O12       1.0  0.02850  0.82098  0.61915  1.0000
  O   O13       1.0  0.47150  0.32098  0.61915  1.0000
  O   O14       1.0  0.02850  0.67902  0.11915  1.0000
  O   O15       1.0  0.52850  0.82098  0.88085  1.0000
  O   O16       1.0  0.97150  0.17902  0.38085  1.0000
  O   O17       1.0  0.61490  0.55487  0.41408  1.0000
  O   O18       1.0  0.88510  0.44513  0.91408  1.0000
  O   O19       1.0  0.38510  0.05487  0.08592  1.0000
  O   O20       1.0  0.11490  0.94513  0.58592  1.0000
  O   O21       1.0  0.38510  0.44513  0.58592  1.0000
  O   O22       1.0  0.11490  0.55487  0.08592  1.0000
  O   O23       1.0  0.61490  0.94513  0.91408  1.0000
  O   O24       1.0  0.88510  0.05487  0.41408  1.0000
  O   O25       1.0  0.51090  0.61644  0.50593  1.0000
  O   O26       1.0  0.98910  0.38356  0.00593  1.0000
  O   O27       1.0  0.48910  0.11644  0.99407  1.0000
  O   O28       1.0  0.01090  0.88356  0.49407  1.0000
  O   O29       1.0  0.48910  0.38356  0.49407  1.0000
  O   O30       1.0  0.01090  0.61644  0.99407  1.0000
  O   O31       1.0  0.51090  0.88356  0.00593  1.0000
  O   O32       1.0  0.98910  0.11644  0.50593  1.0000
  O   O33       1.0  0.33350  0.29249  0.40276  1.0000
  O   O34       1.0  0.16650  0.70751  0.90276  1.0000
  O   O35       1.0  0.66650  0.79249  0.09724  1.0000
  O   O36       1.0  0.83350  0.20751  0.59724  1.0000
  O   O37       1.0  0.66650  0.70751  0.59724  1.0000
  O   O38       1.0  0.83350  0.29249  0.09724  1.0000
  O   O39       1.0  0.33350  0.20751  0.90276  1.0000
  O   O40       1.0  0.16650  0.79249  0.40276  1.0000
  O   O41       1.0  0.18915  0.24554  0.40961  1.0000
  O   O42       1.0  0.31085  0.75446  0.90961  1.0000
  O   O43       1.0  0.81085  0.74554  0.09039  1.0000
  O   O44       1.0  0.68915  0.25446  0.59039  1.0000
  O   O45       1.0  0.81085  0.75446  0.59039  1.0000
  O   O46       1.0  0.68915  0.24554  0.09039  1.0000
  O   O47       1.0  0.18915  0.25446  0.90961  1.0000
  O   O48       1.0  0.31085  0.74554  0.40961  1.0000
  O   O49       1.0  0.27502  0.45344  0.42201  1.0000
  O   O50       1.0  0.22498  0.54656  0.92201  1.0000
  O   O51       1.0  0.72498  0.95344  0.07799  1.0000
  O   O52       1.0  0.77502  0.04656  0.57799  1.0000
  O   O53       1.0  0.72498  0.54656  0.57799  1.0000
  O   O54       1.0  0.77502  0.45344  0.07799  1.0000
  O   O55       1.0  0.27502  0.04656  0.92201  1.0000
  O   O56       1.0  0.22498  0.95344  0.42201  1.0000
  O   O57       1.0  0.13191  0.40653  0.42770  1.0000
  O   O58       1.0  0.36809  0.59347  0.92770  1.0000
  O   O59       1.0  0.86809  0.90653  0.07230  1.0000
  O   O60       1.0  0.63191  0.09347  0.57230  1.0000
  O   O61       1.0  0.86809  0.59347  0.57230  1.0000
  O   O62       1.0  0.63191  0.40653  0.07230  1.0000
  O   O63       1.0  0.13191  0.09347  0.92770  1.0000
  O   O64       1.0  0.36809  0.90653  0.42770  1.0000
  O   O65       1.0  0.38180  0.41891  0.26427  1.0000
  O   O66       1.0  0.11820  0.58109  0.76427  1.0000
  O   O67       1.0  0.61820  0.91891  0.23573  1.0000
  O   O68       1.0  0.88180  0.08109  0.73573  1.0000
  O   O69       1.0  0.61820  0.58109  0.73573  1.0000
  O   O70       1.0  0.88180  0.41891  0.23573  1.0000
  O   O71       1.0  0.38180  0.08109  0.76427  1.0000
  O   O72       1.0  0.11820  0.91891  0.26427  1.0000
  O   O73       1.0  0.44159  0.37895  0.15138  1.0000
  O   O74       1.0  0.05841  0.62105  0.65138  1.0000
  O   O75       1.0  0.55841  0.87895  0.34862  1.0000
  O   O76       1.0  0.94159  0.12105  0.84862  1.0000
  O   O77       1.0  0.55841  0.62105  0.84862  1.0000
  O   O78       1.0  0.94159  0.37895  0.34862  1.0000
  O   O79       1.0  0.44159  0.12105  0.65138  1.0000
  O   O80       1.0  0.05841  0.87895  0.15138  1.0000
  O   O81       1.0  0.52540  0.34930  0.33736  1.0000
  O   O82       1.0  0.97460  0.65070  0.83736  1.0000
  O   O83       1.0  0.47460  0.84930  0.16264  1.0000
  O   O84       1.0  0.02540  0.15070  0.66264  1.0000
  O   O85       1.0  0.47460  0.65070  0.66264  1.0000
  O   O86       1.0  0.02540  0.34930  0.16264  1.0000
  O   O87       1.0  0.52540  0.15070  0.83736  1.0000
  O   O88       1.0  0.97460  0.84930  0.33736  1.0000
  O   O89       1.0  0.58185  0.30741  0.22508  1.0000
  O   O90       1.0  0.91815  0.69259  0.72508  1.0000
  O   O91       1.0  0.41815  0.80741  0.27492  1.0000
  O   O92       1.0  0.08185  0.19259  0.77492  1.0000
  O   O93       1.0  0.41815  0.69259  0.77492  1.0000
  O   O94       1.0  0.08185  0.30741  0.27492  1.0000
  O   O95       1.0  0.58185  0.19259  0.72508  1.0000
  O   O96       1.0  0.91815  0.80741  0.22508  1.0000
  O   O97       1.0  0.49870  0.79969  0.51440  1.0000
  O   O98       1.0  0.00130  0.20031  0.01440  1.0000
  O   O99       1.0  0.50130  0.29969  0.98560  1.0000
  O   O100      1.0  0.99870  0.70031  0.48560  1.0000
  O   O101      1.0  0.50130  0.20031  0.48560  1.0000
  O   O102      1.0  0.99870  0.79969  0.98560  1.0000
  O   O103      1.0  0.49870  0.70031  0.01440  1.0000
  O   O104      1.0  0.00130  0.29969  0.51440  1.0000
  H   H1        1.0  0.54090  0.83790  0.51930  1.0000
  H   H2        1.0  0.95910  0.16210  0.01930  1.0000
  H   H3        1.0  0.45910  0.33790  0.98070  1.0000
  H   H4        1.0  0.04090  0.66210  0.48070  1.0000
  H   H5        1.0  0.45910  0.16210  0.48070  1.0000
  H   H6        1.0  0.04090  0.83790  0.98070  1.0000
  H   H7        1.0  0.54090  0.66210  0.01930  1.0000
  H   H8        1.0  0.95910  0.33790  0.51930  1.0000
  H   H9        1.0  0.52080  0.75080  0.52800  1.0000
  H   H10       1.0  0.97920  0.24920  0.02800  1.0000
  H   H11       1.0  0.47920  0.25080  0.97200  1.0000
  H   H12       1.0  0.02080  0.74920  0.47200  1.0000
  H   H13       1.0  0.47920  0.24920  0.47200  1.0000
  H   H14       1.0  0.02080  0.75080  0.97200  1.0000
  H   H15       1.0  0.52080  0.74920  0.02800  1.0000
  H   H16       1.0  0.97920  0.25080  0.52800  1.0000
  C   C1        1.0  0.24930  0.30270  0.40900  1.0000
  C   C2        1.0  0.25070  0.69730  0.90900  1.0000
  C   C3        1.0  0.75070  0.80270  0.09100  1.0000
  C   C4        1.0  0.74930  0.19730  0.59100  1.0000
  C   C5        1.0  0.75070  0.69730  0.59100  1.0000
  C   C6        1.0  0.74930  0.30270  0.09100  1.0000
  C   C7        1.0  0.24930  0.19730  0.90900  1.0000
  C   C8        1.0  0.25070  0.80270  0.40900  1.0000
  C   C9        1.0  0.21570  0.39640  0.41970  1.0000
  C   C10       1.0  0.28430  0.60360  0.91970  1.0000
  C   C11       1.0  0.78430  0.89640  0.08030  1.0000
  C   C12       1.0  0.71570  0.10360  0.58030  1.0000
  C   C13       1.0  0.78430  0.60360  0.58030  1.0000
  C   C14       1.0  0.71570  0.39640  0.08030  1.0000
  C   C15       1.0  0.21570  0.10360  0.91970  1.0000
  C   C16       1.0  0.28430  0.89640  0.41970  1.0000
  C   C17       1.0  0.44130  0.38470  0.22340  1.0000
  C   C18       1.0  0.05870  0.61530  0.72340  1.0000
  C   C19       1.0  0.55870  0.88470  0.27660  1.0000
  C   C20       1.0  0.94130  0.11530  0.77660  1.0000
  C   C21       1.0  0.55870  0.61530  0.77660  1.0000
  C   C22       1.0  0.94130  0.38470  0.27660  1.0000
  C   C23       1.0  0.44130  0.11530  0.72340  1.0000
  C   C24       1.0  0.05870  0.88470  0.22340  1.0000
  C   C25       1.0  0.52350  0.34300  0.26640  1.0000
  C   C26       1.0  0.97650  0.65700  0.76640  1.0000
  C   C27       1.0  0.47650  0.84300  0.23360  1.0000
  C   C28       1.0  0.02350  0.15700  0.73360  1.0000
  C   C29       1.0  0.47650  0.65700  0.73360  1.0000
  C   C30       1.0  0.02350  0.34300  0.23360  1.0000
  C   C31       1.0  0.52350  0.15700  0.76640  1.0000
  C   C32       1.0  0.97650  0.84300  0.26640  1.0000
