data_image0
_chemical_formula_structural       U3O4H4O4C6H2C2H2C2H2C4H2C2O12C6H2C4H2C2H2C2H2C2O4
_chemical_formula_sum              "U3 O24 H20 C32"
_cell_length_a       9.939
_cell_length_b       10.669
_cell_length_c       11.211
_cell_angle_alpha    91.83
_cell_angle_beta     105.54
_cell_angle_gamma    96.85

_space_group_name_H-M_alt    "P 1"
_space_group_IT_number       1

loop_
  _space_group_symop_operation_xyz
  'x, y, z'

loop_
  _atom_site_type_symbol
  _atom_site_label
  _atom_site_symmetry_multiplicity
  _atom_site_fract_x
  _atom_site_fract_y
  _atom_site_fract_z
  _atom_site_occupancy
  U   U1        1.0  0.00000  0.00000  0.00000  1.0000
  U   U2        1.0  0.74420  0.42835  0.66392  1.0000
  U   U3        1.0  0.25580  0.57165  0.33608  1.0000
  O   O1        1.0  0.91470  0.08260  0.87350  1.0000
  O   O2        1.0  0.08530  0.91740  0.12650  1.0000
  O   O3        1.0  0.86790  0.79920  0.89020  1.0000
  O   O4        1.0  0.13210  0.20080  0.10980  1.0000
  H   H1        1.0  0.90870  0.74370  0.86650  1.0000
  H   H2        1.0  0.09130  0.25630  0.13350  1.0000
  H   H3        1.0  0.80090  0.76040  0.91180  1.0000
  H   H4        1.0  0.19910  0.23960  0.08820  1.0000
  O   O5        1.0  0.89550  0.10630  0.14230  1.0000
  O   O6        1.0  0.10450  0.89370  0.85770  1.0000
  O   O7        1.0  0.76920  0.93630  0.04090  1.0000
  O   O8        1.0  0.23080  0.06370  0.95910  1.0000
  C   C1        1.0  0.78660  0.02760  0.12070  1.0000
  C   C2        1.0  0.21340  0.97240  0.87930  1.0000
  C   C3        1.0  0.68030  0.04000  0.19080  1.0000
  C   C4        1.0  0.31970  0.96000  0.80920  1.0000
  C   C5        1.0  0.55230  0.96440  0.15970  1.0000
  C   C6        1.0  0.44770  0.03560  0.84030  1.0000
  H   H5        1.0  0.52960  0.90610  0.09170  1.0000
  H   H6        1.0  0.47040  0.09390  0.90830  1.0000
  C   C7        1.0  0.45700  0.97390  0.22790  1.0000
  C   C8        1.0  0.54300  0.02610  0.77210  1.0000
  H   H7        1.0  0.36990  0.92350  0.20560  1.0000
  H   H8        1.0  0.63010  0.07650  0.79440  1.0000
  C   C9        1.0  0.49370  0.06050  0.33110  1.0000
  C   C10       1.0  0.50630  0.93950  0.66890  1.0000
  H   H9        1.0  0.43120  0.06610  0.37910  1.0000
  H   H10       1.0  0.56880  0.93390  0.62090  1.0000
  C   C11       1.0  0.62200  0.13820  0.36320  1.0000
  C   C12       1.0  0.37800  0.86180  0.63680  1.0000
  C   C13       1.0  0.71580  0.12680  0.29270  1.0000
  C   C14       1.0  0.28420  0.87320  0.70730  1.0000
  H   H11       1.0  0.80270  0.17740  0.31390  1.0000
  H   H12       1.0  0.19730  0.82260  0.68610  1.0000
  C   C15       1.0  0.66120  0.23160  0.47200  1.0000
  C   C16       1.0  0.33880  0.76840  0.52800  1.0000
  O   O9        1.0  0.78890  0.27640  0.51580  1.0000
  O   O10       1.0  0.21110  0.72360  0.48420  1.0000
  O   O11       1.0  0.56940  0.26720  0.51940  1.0000
  O   O12       1.0  0.43060  0.73280  0.48060  1.0000
  O   O13       1.0  0.71740  0.53900  0.54900  1.0000
  O   O14       1.0  0.28260  0.46100  0.45100  1.0000
  O   O15       1.0  0.76990  0.31710  0.77790  1.0000
  O   O16       1.0  0.23010  0.68290  0.22210  1.0000
  O   O17       1.0  0.66040  0.58000  0.79640  1.0000
  O   O18       1.0  0.33960  0.42000  0.20360  1.0000
  O   O19       1.0  0.50180  0.43010  0.68980  1.0000
  O   O20       1.0  0.49820  0.56990  0.31020  1.0000
  C   C17       1.0  0.53580  0.52770  0.76590  1.0000
  C   C18       1.0  0.46420  0.47230  0.23410  1.0000
  C   C19       1.0  0.42710  0.57290  0.82040  1.0000
  C   C20       1.0  0.57290  0.42710  0.17960  1.0000
  C   C21       1.0  0.28560  0.54030  0.76200  1.0000
  C   C22       1.0  0.71440  0.45970  0.23800  1.0000
  H   H13       1.0  0.25720  0.49690  0.68430  1.0000
  H   H14       1.0  0.74280  0.50310  0.31570  1.0000
  C   C23       1.0  0.18510  0.57260  0.81940  1.0000
  C   C24       1.0  0.81490  0.42740  0.18060  1.0000
  C   C25       1.0  0.22790  0.63660  0.93710  1.0000
  C   C26       1.0  0.77210  0.36340  0.06290  1.0000
  H   H15       1.0  0.16130  0.65650  0.97670  1.0000
  H   H16       1.0  0.83870  0.34350  0.02330  1.0000
  C   C27       1.0  0.36930  0.66980  0.99380  1.0000
  C   C28       1.0  0.63070  0.33020  0.00620  1.0000
  H   H17       1.0  0.39790  0.71360  0.07130  1.0000
  H   H18       1.0  0.60210  0.28640  0.92870  1.0000
  C   C29       1.0  0.47040  0.63870  0.93640  1.0000
  C   C30       1.0  0.52960  0.36130  0.06360  1.0000
  H   H19       1.0  0.56580  0.66180  0.97520  1.0000
  H   H20       1.0  0.43420  0.33820  0.02480  1.0000
  C   C31       1.0  0.03250  0.53120  0.75970  1.0000
  C   C32       1.0  0.96750  0.46880  0.24030  1.0000
  O   O21       1.0  0.93830  0.57910  0.79710  1.0000
  O   O22       1.0  0.06170  0.42090  0.20290  1.0000
  O   O23       1.0  0.99560  0.44630  0.67390  1.0000
  O   O24       1.0  0.00440  0.55370  0.32610  1.0000
