data_image0
_chemical_formula_structural       ZnO2H4O2H4O4C2H2O2C4O2C4
_chemical_formula_sum              "Zn1 O12 H10 C10"
_cell_length_a       7.9095
_cell_length_b       11.3558
_cell_length_c       13.058
_cell_angle_alpha    67.002
_cell_angle_beta     89.013
_cell_angle_gamma    75.004

_space_group_name_H-M_alt    "P 1"
_space_group_IT_number       1

loop_
  _space_group_symop_operation_xyz
  'x, y, z'

loop_
  _atom_site_type_symbol
  _atom_site_label
  _atom_site_symmetry_multiplicity
  _atom_site_fract_x
  _atom_site_fract_y
  _atom_site_fract_z
  _atom_site_occupancy
  Zn  Zn1       1.0  0.00000  0.00000  0.50000  1.0000
  O   O1        1.0  0.12049  0.04889  0.34146  1.0000
  O   O2        1.0  0.87951  0.95111  0.65854  1.0000
  H   H1        1.0  0.04640  0.11260  0.28590  1.0000
  H   H2        1.0  0.95360  0.88740  0.71410  1.0000
  H   H3        1.0  0.14330  0.98170  0.32060  1.0000
  H   H4        1.0  0.85670  0.01830  0.67940  1.0000
  O   O3        1.0  0.74990  0.10513  0.42231  1.0000
  O   O4        1.0  0.25010  0.89487  0.57769  1.0000
  H   H5        1.0  0.70470  0.05810  0.39740  1.0000
  H   H6        1.0  0.29530  0.94190  0.60260  1.0000
  H   H7        1.0  0.75370  0.17340  0.36190  1.0000
  H   H8        1.0  0.24630  0.82660  0.63810  1.0000
  O   O5        1.0  0.10270  0.81633  0.35050  1.0000
  O   O6        1.0  0.89730  0.18367  0.64950  1.0000
  O   O7        1.0  0.96755  0.82481  0.50076  1.0000
  O   O8        1.0  0.03245  0.17519  0.49924  1.0000
  C   C1        1.0  0.07460  0.53566  0.57530  1.0000
  C   C2        1.0  0.92540  0.46434  0.42470  1.0000
  H   H9        1.0  0.12410  0.55980  0.62560  1.0000
  H   H10       1.0  0.87590  0.44020  0.37440  1.0000
  O   O9        1.0  0.89990  0.66871  0.19684  1.0000
  O   O10       1.0  0.10010  0.33129  0.80316  1.0000
  C   C3        1.0  0.00750  0.63079  0.46857  1.0000
  C   C4        1.0  0.99250  0.36921  0.53143  1.0000
  C   C5        1.0  0.93190  0.59535  0.39275  1.0000
  C   C6        1.0  0.06810  0.40465  0.60725  1.0000
  O   O11       1.0  0.75050  0.80606  0.27063  1.0000
  O   O12       1.0  0.24950  0.19394  0.72937  1.0000
  C   C7        1.0  0.85440  0.69775  0.27719  1.0000
  C   C8        1.0  0.14560  0.30225  0.72281  1.0000
  C   C9        1.0  0.02520  0.76933  0.43629  1.0000
  C   C10       1.0  0.97480  0.23067  0.56371  1.0000
