data_image0
_chemical_formula_structural       NiO2H4O2H4O2C2H2O4C2O2C6
_chemical_formula_sum              "Ni1 O12 H10 C10"
_cell_length_a       7.9165
_cell_length_b       11.3395
_cell_length_c       12.9997
_cell_angle_alpha    66.934
_cell_angle_beta     89.039
_cell_angle_gamma    75.182

_space_group_name_H-M_alt    "P 1"
_space_group_IT_number       1

loop_
  _space_group_symop_operation_xyz
  'x, y, z'

loop_
  _atom_site_type_symbol
  _atom_site_label
  _atom_site_symmetry_multiplicity
  _atom_site_fract_x
  _atom_site_fract_y
  _atom_site_fract_z
  _atom_site_occupancy
  Ni  Ni1       1.0  0.50000  0.50000  0.50000  1.0000
  O   O1        1.0  0.61268  0.54957  0.34545  1.0000
  O   O2        1.0  0.38732  0.45043  0.65455  1.0000
  H   H1        1.0  0.53630  0.61100  0.29060  1.0000
  H   H2        1.0  0.46370  0.38900  0.70940  1.0000
  H   H3        1.0  0.63820  0.48210  0.32550  1.0000
  H   H4        1.0  0.36180  0.51790  0.67450  1.0000
  O   O3        1.0  0.25148  0.60266  0.42577  1.0000
  O   O4        1.0  0.74852  0.39734  0.57423  1.0000
  H   H5        1.0  0.20090  0.55530  0.40010  1.0000
  H   H6        1.0  0.79910  0.44470  0.59990  1.0000
  H   H7        1.0  0.24940  0.67450  0.36190  1.0000
  H   H8        1.0  0.75060  0.32550  0.63810  1.0000
  O   O5        1.0  0.46740  0.32626  0.50079  1.0000
  O   O6        1.0  0.53260  0.67374  0.49921  1.0000
  C   C1        1.0  0.57450  0.03610  0.57547  1.0000
  C   C2        1.0  0.42550  0.96390  0.42453  1.0000
  H   H9        1.0  0.62400  0.06030  0.62600  1.0000
  H   H10       1.0  0.37600  0.93970  0.37400  1.0000
  O   O7        1.0  0.60150  0.31807  0.34954  1.0000
  O   O8        1.0  0.39850  0.68193  0.65046  1.0000
  O   O9        1.0  0.60000  0.83167  0.80397  1.0000
  O   O10       1.0  0.40000  0.16833  0.19603  1.0000
  C   C3        1.0  0.56850  0.90459  0.60750  1.0000
  C   C4        1.0  0.43150  0.09541  0.39250  1.0000
  O   O11       1.0  0.74930  0.69403  0.73006  1.0000
  O   O12       1.0  0.25070  0.30597  0.26994  1.0000
  C   C5        1.0  0.50700  0.13153  0.46845  1.0000
  C   C6        1.0  0.49300  0.86847  0.53155  1.0000
  C   C7        1.0  0.64570  0.80219  0.72357  1.0000
  C   C8        1.0  0.35430  0.19781  0.27643  1.0000
  C   C9        1.0  0.52460  0.27068  0.43592  1.0000
  C   C10       1.0  0.47540  0.72932  0.56408  1.0000
