data_image0
_chemical_formula_structural       CoO2H4O2H4O4C2H2C2O2C2O2C4
_chemical_formula_sum              "Co1 O12 H10 C10"
_cell_length_a       7.906
_cell_length_b       11.3704
_cell_length_c       13.0336
_cell_angle_alpha    67.016
_cell_angle_beta     88.956
_cell_angle_gamma    74.969

_space_group_name_H-M_alt    "P 1"
_space_group_IT_number       1

loop_
  _space_group_symop_operation_xyz
  'x, y, z'

loop_
  _atom_site_type_symbol
  _atom_site_label
  _atom_site_symmetry_multiplicity
  _atom_site_fract_x
  _atom_site_fract_y
  _atom_site_fract_z
  _atom_site_occupancy
  Co  Co1       1.0  0.00000  0.00000  0.50000  1.0000
  O   O1        1.0  0.12014  0.04804  0.34289  1.0000
  O   O2        1.0  0.87986  0.95196  0.65711  1.0000
  H   H1        1.0  0.04670  0.11220  0.28730  1.0000
  H   H2        1.0  0.95330  0.88780  0.71270  1.0000
  H   H3        1.0  0.14200  0.98120  0.32180  1.0000
  H   H4        1.0  0.85800  0.01880  0.67820  1.0000
  O   O3        1.0  0.75125  0.10422  0.42120  1.0000
  O   O4        1.0  0.24875  0.89578  0.57880  1.0000
  H   H5        1.0  0.69470  0.05780  0.39240  1.0000
  H   H6        1.0  0.30530  0.94220  0.60760  1.0000
  H   H7        1.0  0.74750  0.17920  0.35440  1.0000
  H   H8        1.0  0.25250  0.82080  0.64560  1.0000
  O   O5        1.0  0.10070  0.81674  0.35052  1.0000
  O   O6        1.0  0.89930  0.18326  0.64948  1.0000
  O   O7        1.0  0.96813  0.82360  0.50203  1.0000
  O   O8        1.0  0.03187  0.17640  0.49797  1.0000
  C   C1        1.0  0.07510  0.53523  0.57531  1.0000
  C   C2        1.0  0.92490  0.46477  0.42469  1.0000
  H   H9        1.0  0.12500  0.55910  0.62570  1.0000
  H   H10       1.0  0.87500  0.44090  0.37430  1.0000
  C   C3        1.0  0.93100  0.59545  0.39296  1.0000
  C   C4        1.0  0.06900  0.40455  0.60704  1.0000
  O   O9        1.0  0.89770  0.66890  0.19707  1.0000
  O   O10       1.0  0.10230  0.33110  0.80293  1.0000
  C   C5        1.0  0.00730  0.63051  0.46889  1.0000
  C   C6        1.0  0.99270  0.36949  0.53111  1.0000
  O   O11       1.0  0.74810  0.80537  0.27184  1.0000
  O   O12       1.0  0.25190  0.19463  0.72816  1.0000
  C   C7        1.0  0.85240  0.69780  0.27771  1.0000
  C   C8        1.0  0.14760  0.30220  0.72229  1.0000
  C   C9        1.0  0.02470  0.76892  0.43688  1.0000
  C   C10       1.0  0.97530  0.23108  0.56312  1.0000
