data_image0
_chemical_formula_structural       Zn2O16H2O16H4N6C8H2C2H2C4H2C12H2C2H2C8H2C2H2C4H2C12H2C2H2C8H2C2H2C4H2C12H2C2H6
_chemical_formula_sum              "Zn2 O32 H40 N6 C84"
_cell_length_a       12.7067
_cell_length_b       13.0794
_cell_length_c       21.0583
_cell_angle_alpha    88.535
_cell_angle_beta     73.381
_cell_angle_gamma    61.238

_space_group_name_H-M_alt    "P 1"
_space_group_IT_number       1

loop_
  _space_group_symop_operation_xyz
  'x, y, z'

loop_
  _atom_site_type_symbol
  _atom_site_label
  _atom_site_symmetry_multiplicity
  _atom_site_fract_x
  _atom_site_fract_y
  _atom_site_fract_z
  _atom_site_occupancy
  Zn  Zn1       1.0  0.27097  0.36388  0.12137  1.0000
  Zn  Zn2       1.0  0.72903  0.63612  0.87863  1.0000
  O   O1        1.0  0.27800  0.22550  0.16213  1.0000
  O   O2        1.0  0.72200  0.77450  0.83787  1.0000
  O   O3        1.0  0.42280  0.09820  0.07190  1.0000
  O   O4        1.0  0.57720  0.90180  0.92810  1.0000
  O   O5        1.0  0.47900  0.88440  0.06607  1.0000
  O   O6        1.0  0.52100  0.11560  0.93393  1.0000
  O   O7        1.0  0.33110  0.98730  0.37371  1.0000
  O   O8        1.0  0.66890  0.01270  0.62629  1.0000
  O   O9        1.0  0.03690  0.97750  0.29539  1.0000
  O   O10       1.0  0.96310  0.02250  0.70461  1.0000
  O   O11       1.0  0.10060  0.48320  0.11741  1.0000
  O   O12       1.0  0.89940  0.51680  0.88259  1.0000
  O   O13       1.0  0.08230  0.50070  0.22489  1.0000
  O   O14       1.0  0.91770  0.49930  0.77511  1.0000
  O   O15       1.0  0.91020  0.61510  0.07568  1.0000
  O   O16       1.0  0.08980  0.38490  0.92432  1.0000
  H   H1        1.0  0.98244  0.56373  0.07257  1.0000
  H   H2        1.0  0.01756  0.43627  0.92743  1.0000
  O   O17       1.0  0.67860  0.00080  0.29919  1.0000
  O   O18       1.0  0.32140  0.99920  0.70081  1.0000
  O   O19       1.0  0.61850  0.69740  0.37244  1.0000
  O   O20       1.0  0.38150  0.30260  0.62756  1.0000
  O   O21       1.0  0.37030  0.40860  0.15818  1.0000
  O   O22       1.0  0.62970  0.59140  0.84182  1.0000
  O   O23       1.0  0.44200  0.47210  0.06515  1.0000
  O   O24       1.0  0.55800  0.52790  0.93485  1.0000
  O   O25       1.0  0.62660  0.50910  0.05295  1.0000
  O   O26       1.0  0.37340  0.49090  0.94705  1.0000
  O   O27       1.0  0.70060  0.31850  0.30609  1.0000
  O   O28       1.0  0.29940  0.68150  0.69391  1.0000
  O   O29       1.0  0.35450  0.68350  0.35147  1.0000
  O   O30       1.0  0.64550  0.31650  0.64853  1.0000
  O   O31       1.0  0.33800  0.32320  0.02081  1.0000
  O   O32       1.0  0.66200  0.67680  0.97919  1.0000
  H   H3        1.0  0.40586  0.25532  0.00923  1.0000
  H   H4        1.0  0.59414  0.74468  0.99077  1.0000
  H   H5        1.0  0.35575  0.37521  0.00257  1.0000
  H   H6        1.0  0.64425  0.62479  0.99743  1.0000
  N   N1        1.0  0.18930  0.97120  0.33427  1.0000
  N   N2        1.0  0.81070  0.02880  0.66573  1.0000
  N   N3        1.0  0.64730  0.85010  0.33575  1.0000
  N   N4        1.0  0.35270  0.14990  0.66425  1.0000
  N   N5        1.0  0.53610  0.50600  0.32803  1.0000
  N   N6        1.0  0.46390  0.49400  0.67197  1.0000
  C   C1        1.0  0.35040  0.12190  0.13111  1.0000
  C   C2        1.0  0.64960  0.87810  0.86889  1.0000
  C   C3        1.0  0.34660  0.02280  0.16700  1.0000
  C   C4        1.0  0.65340  0.97720  0.83300  1.0000
  C   C5        1.0  0.41060  0.90820  0.13201  1.0000
  C   C6        1.0  0.58940  0.09180  0.86799  1.0000
  C   C7        1.0  0.40380  0.81670  0.16431  1.0000
  C   C8        1.0  0.59620  0.18330  0.83569  1.0000
  H   H7        1.0  0.44655  0.74129  0.14104  1.0000
  H   H8        1.0  0.55345  0.25871  0.85896  1.0000
  C   C9        1.0  0.33340  0.83750  0.23127  1.0000
  C   C10       1.0  0.66660  0.16250  0.76873  1.0000
  H   H9        1.0  0.32954  0.77603  0.25299  1.0000
  H   H10       1.0  0.67046  0.22397  0.74701  1.0000
  C   C11       1.0  0.26880  0.95040  0.26570  1.0000
  C   C12       1.0  0.73120  0.04960  0.73430  1.0000
  C   C13       1.0  0.27540  0.04280  0.23467  1.0000
  C   C14       1.0  0.72460  0.95720  0.76533  1.0000
  H   H11       1.0  0.23289  0.11765  0.25856  1.0000
  H   H12       1.0  0.76711  0.88235  0.74144  1.0000
  C   C15       1.0  0.23140  0.98730  0.38605  1.0000
  C   C16       1.0  0.76860  0.01270  0.61395  1.0000
  C   C17       1.0  0.14970  0.00020  0.45561  1.0000
  C   C18       1.0  0.85030  0.99980  0.54439  1.0000
  C   C19       1.0  0.03650  0.99690  0.46686  1.0000
  C   C20       1.0  0.96350  0.00310  0.53314  1.0000
  C   C21       1.0  0.99400  0.98930  0.41298  1.0000
  C   C22       1.0  0.00600  0.01070  0.58702  1.0000
  C   C23       1.0  0.07180  0.98050  0.34322  1.0000
  C   C24       1.0  0.92820  0.01950  0.65678  1.0000
  C   C25       1.0  0.88360  0.98470  0.42497  1.0000
  C   C26       1.0  0.11640  0.01530  0.57503  1.0000
  H   H13       1.0  0.85631  0.97865  0.38942  1.0000
  H   H14       1.0  0.14369  0.02135  0.61058  1.0000
  C   C27       1.0  0.81250  0.98920  0.49073  1.0000
  C   C28       1.0  0.18750  0.01080  0.50927  1.0000
  H   H15       1.0  0.73904  0.98496  0.49824  1.0000
  H   H16       1.0  0.26096  0.01504  0.50176  1.0000
  C   C29       1.0  0.03710  0.53430  0.17867  1.0000
  C   C30       1.0  0.96290  0.46570  0.82133  1.0000
  C   C31       1.0  0.90610  0.63460  0.19056  1.0000
  C   C32       1.0  0.09390  0.36540  0.80944  1.0000
  C   C33       1.0  0.84880  0.66950  0.13971  1.0000
  C   C34       1.0  0.15120  0.33050  0.86029  1.0000
  C   C35       1.0  0.72440  0.76070  0.15465  1.0000
  C   C36       1.0  0.27560  0.23930  0.84535  1.0000
  H   H17       1.0  0.68687  0.78275  0.12096  1.0000
  H   H18       1.0  0.31313  0.21725  0.87904  1.0000
  C   C37       1.0  0.65590  0.81920  0.21923  1.0000
  C   C38       1.0  0.34410  0.18080  0.78077  1.0000
  H   H19       1.0  0.57227  0.87885  0.22927  1.0000
  H   H20       1.0  0.42773  0.12115  0.77073  1.0000
  C   C39       1.0  0.71450  0.78690  0.26868  1.0000
  C   C40       1.0  0.28550  0.21310  0.73132  1.0000
  C   C41       1.0  0.83670  0.69590  0.25523  1.0000
  C   C42       1.0  0.16330  0.30410  0.74477  1.0000
  H   H21       1.0  0.87336  0.67491  0.28929  1.0000
  H   H22       1.0  0.12664  0.32509  0.71071  1.0000
  C   C43       1.0  0.60580  0.79270  0.38581  1.0000
  C   C44       1.0  0.39420  0.20730  0.61419  1.0000
  C   C45       1.0  0.54590  0.85630  0.45491  1.0000
  C   C46       1.0  0.45410  0.14370  0.54509  1.0000
  C   C47       1.0  0.52980  0.96960  0.46707  1.0000
  C   C48       1.0  0.47020  0.03040  0.53293  1.0000
  C   C49       1.0  0.57280  0.02340  0.41464  1.0000
  C   C50       1.0  0.42720  0.97660  0.58536  1.0000
  C   C51       1.0  0.63720  0.95990  0.34544  1.0000
  C   C52       1.0  0.36280  0.04010  0.65456  1.0000
  C   C53       1.0  0.55640  0.13390  0.42746  1.0000
  C   C54       1.0  0.44360  0.86610  0.57254  1.0000
  H   H23       1.0  0.58604  0.16828  0.39284  1.0000
  H   H24       1.0  0.41396  0.83172  0.60716  1.0000
  C   C55       1.0  0.49490  0.19460  0.49282  1.0000
  C   C56       1.0  0.50510  0.80540  0.50718  1.0000
  H   H25       1.0  0.48165  0.27018  0.50079  1.0000
  H   H26       1.0  0.51835  0.72982  0.49921  1.0000
  C   C57       1.0  0.43590  0.45140  0.12409  1.0000
  C   C58       1.0  0.56410  0.54860  0.87591  1.0000
  C   C59       1.0  0.51040  0.47900  0.15756  1.0000
  C   C60       1.0  0.48960  0.52100  0.84244  1.0000
  C   C61       1.0  0.60320  0.50470  0.11997  1.0000
  C   C62       1.0  0.39680  0.49530  0.88003  1.0000
  C   C63       1.0  0.67340  0.52970  0.15049  1.0000
  C   C64       1.0  0.32660  0.47030  0.84951  1.0000
  H   H27       1.0  0.73674  0.54404  0.12489  1.0000
  H   H28       1.0  0.26326  0.45596  0.87511  1.0000
  C   C65       1.0  0.64860  0.53320  0.21946  1.0000
  C   C66       1.0  0.35140  0.46680  0.78054  1.0000
  H   H29       1.0  0.69313  0.55256  0.24042  1.0000
  H   H30       1.0  0.30687  0.44744  0.75958  1.0000
  C   C67       1.0  0.55660  0.50740  0.25677  1.0000
  C   C68       1.0  0.44340  0.49260  0.74323  1.0000
  C   C69       1.0  0.48890  0.47940  0.22674  1.0000
  C   C70       1.0  0.51110  0.52060  0.77326  1.0000
  H   H31       1.0  0.42900  0.46078  0.25231  1.0000
  H   H32       1.0  0.57100  0.53922  0.74769  1.0000
  C   C71       1.0  0.61860  0.40220  0.34754  1.0000
  C   C72       1.0  0.38140  0.59780  0.65246  1.0000
  C   C73       1.0  0.60370  0.40110  0.41958  1.0000
  C   C74       1.0  0.39630  0.59890  0.58042  1.0000
  C   C75       1.0  0.50550  0.50010  0.46557  1.0000
  C   C76       1.0  0.49450  0.49990  0.53443  1.0000
  C   C77       1.0  0.41760  0.59950  0.44441  1.0000
  C   C78       1.0  0.58240  0.40050  0.55559  1.0000
  C   C79       1.0  0.42990  0.60230  0.37181  1.0000
  C   C80       1.0  0.57010  0.39770  0.62819  1.0000
  C   C81       1.0  0.32260  0.69520  0.48994  1.0000
  C   C82       1.0  0.67740  0.30480  0.51006  1.0000
  H   H33       1.0  0.26503  0.76022  0.47551  1.0000
  H   H34       1.0  0.73497  0.23978  0.52449  1.0000
  C   C83       1.0  0.68800  0.30470  0.44166  1.0000
  C   C84       1.0  0.31200  0.69530  0.55834  1.0000
  H   H35       1.0  0.75209  0.23939  0.41117  1.0000
  H   H36       1.0  0.24791  0.76061  0.58883  1.0000
  H   H37       1.0  0.47300  0.96000  0.05500  1.0000
  H   H38       1.0  0.52700  0.04000  0.94500  1.0000
  H   H39       1.0  0.56700  0.50100  0.03800  1.0000
  H   H40       1.0  0.43300  0.49900  0.96200  1.0000
