data_image0
_chemical_formula_structural       Cu8S18O42H4O2H4O2H4O2H4C6H2C4H2C8H2C4H2C8H2C4H2C8H2C4H2C2
_chemical_formula_sum              "Cu8 S18 O48 H32 C48"
_cell_length_a       14.1739
_cell_length_b       14.922
_cell_length_c       15.0305
_cell_angle_alpha    111.528
_cell_angle_beta     98.972
_cell_angle_gamma    99.448

_space_group_name_H-M_alt    "P 1"
_space_group_IT_number       1

loop_
  _space_group_symop_operation_xyz
  'x, y, z'

loop_
  _atom_site_type_symbol
  _atom_site_label
  _atom_site_symmetry_multiplicity
  _atom_site_fract_x
  _atom_site_fract_y
  _atom_site_fract_z
  _atom_site_occupancy
  Cu  Cu1       1.0  0.17552  0.81610  0.81875  1.0000
  Cu  Cu2       1.0  0.82448  0.18390  0.18125  1.0000
  Cu  Cu3       1.0  0.02435  0.62982  0.82869  1.0000
  Cu  Cu4       1.0  0.97565  0.37018  0.17131  1.0000
  Cu  Cu5       1.0  0.22725  0.51155  0.82562  1.0000
  Cu  Cu6       1.0  0.77275  0.48845  0.17438  1.0000
  Cu  Cu7       1.0  0.39677  0.72120  0.81157  1.0000
  Cu  Cu8       1.0  0.60323  0.27880  0.18843  1.0000
  S   S1        1.0  0.21617  0.97645  0.95059  1.0000
  S   S2        1.0  0.78383  0.02355  0.04941  1.0000
  S   S3        1.0  0.96092  0.68107  0.98806  1.0000
  S   S4        1.0  0.03908  0.31893  0.01194  1.0000
  S   S5        1.0  0.26151  0.48142  0.96905  1.0000
  S   S6        1.0  0.73849  0.51858  0.03095  1.0000
  S   S7        1.0  0.52195  0.79318  0.95937  1.0000
  S   S8        1.0  0.47805  0.20682  0.04063  1.0000
  S   S9        1.0  0.02106  0.06758  0.24904  1.0000
  S   S10       1.0  0.97894  0.93242  0.75096  1.0000
  S   S11       1.0  0.10990  0.59367  0.29392  1.0000
  S   S12       1.0  0.89010  0.40633  0.70608  1.0000
  S   S13       1.0  0.61457  0.65300  0.24074  1.0000
  S   S14       1.0  0.38543  0.34700  0.75926  1.0000
  S   S15       1.0  0.50893  0.11666  0.28380  1.0000
  S   S16       1.0  0.49107  0.88334  0.71620  1.0000
  S   S17       1.0  0.19114  0.60912  0.67132  1.0000
  S   S18       1.0  0.80886  0.39088  0.32868  1.0000
  O   O1        1.0  0.11100  0.77300  0.90510  1.0000
  O   O2        1.0  0.88900  0.22700  0.09490  1.0000
  O   O3        1.0  0.11500  0.11480  0.31780  1.0000
  O   O4        1.0  0.88500  0.88520  0.68220  1.0000
  O   O5        1.0  0.98110  0.13770  0.21740  1.0000
  O   O6        1.0  0.01890  0.86230  0.78260  1.0000
  O   O7        1.0  0.95290  0.01340  0.28290  1.0000
  O   O8        1.0  0.04710  0.98660  0.71710  1.0000
  O   O9        1.0  0.11360  0.57850  0.89610  1.0000
  O   O10       1.0  0.88640  0.42150  0.10390  1.0000
  O   O11       1.0  0.07740  0.68030  0.34820  1.0000
  O   O12       1.0  0.92260  0.31970  0.65180  1.0000
  O   O13       1.0  0.20260  0.58850  0.33660  1.0000
  O   O14       1.0  0.79740  0.41150  0.66340  1.0000
  O   O15       1.0  0.03440  0.50630  0.27520  1.0000
  O   O16       1.0  0.96560  0.49370  0.72480  1.0000
  O   O17       1.0  0.33240  0.63220  0.89510  1.0000
  O   O18       1.0  0.66760  0.36780  0.10490  1.0000
  O   O19       1.0  0.56800  0.68960  0.32100  1.0000
  O   O20       1.0  0.43200  0.31040  0.67900  1.0000
  O   O21       1.0  0.62820  0.55360  0.22180  1.0000
  O   O22       1.0  0.37180  0.44640  0.77820  1.0000
  O   O23       1.0  0.70560  0.72080  0.25040  1.0000
  O   O24       1.0  0.29440  0.27920  0.74960  1.0000
  O   O25       1.0  0.33540  0.82720  0.87350  1.0000
  O   O26       1.0  0.66460  0.17280  0.12650  1.0000
  O   O27       1.0  0.44280  0.09990  0.34310  1.0000
  O   O28       1.0  0.55720  0.90010  0.65690  1.0000
  O   O29       1.0  0.60560  0.10150  0.31250  1.0000
  O   O30       1.0  0.39440  0.89850  0.68750  1.0000
  O   O31       1.0  0.51280  0.21220  0.27670  1.0000
  O   O32       1.0  0.48720  0.78780  0.72330  1.0000
  O   O33       1.0  0.13480  0.67040  0.73450  1.0000
  O   O34       1.0  0.86520  0.32960  0.26550  1.0000
  O   O35       1.0  0.29050  0.67130  0.68890  1.0000
  O   O36       1.0  0.70950  0.32870  0.31110  1.0000
  O   O37       1.0  0.19920  0.52490  0.69850  1.0000
  O   O38       1.0  0.80080  0.47510  0.30150  1.0000
  O   O39       1.0  0.14120  0.57310  0.56850  1.0000
  O   O40       1.0  0.85880  0.42690  0.43150  1.0000
  O   O41       1.0  0.21140  0.85810  0.71870  1.0000
  O   O42       1.0  0.78860  0.14190  0.28130  1.0000
  H   H1        1.0  0.17720  0.88080  0.68420  1.0000
  H   H2        1.0  0.82280  0.11920  0.31580  1.0000
  H   H3        1.0  0.26570  0.86230  0.70130  1.0000
  H   H4        1.0  0.73430  0.13770  0.29870  1.0000
  O   O43       1.0  0.93050  0.67910  0.76080  1.0000
  O   O44       1.0  0.06950  0.32090  0.23920  1.0000
  H   H5        1.0  0.93200  0.73400  0.75540  1.0000
  H   H6        1.0  0.06800  0.26600  0.24460  1.0000
  H   H7        1.0  0.87820  0.63690  0.72270  1.0000
  H   H8        1.0  0.12180  0.36310  0.27730  1.0000
  O   O45       1.0  0.14160  0.37610  0.75600  1.0000
  O   O46       1.0  0.85840  0.62390  0.24400  1.0000
  H   H9        1.0  0.09410  0.33740  0.70790  1.0000
  H   H10       1.0  0.90590  0.66260  0.29210  1.0000
  H   H11       1.0  0.18050  0.34360  0.77130  1.0000
  H   H12       1.0  0.81950  0.65640  0.22870  1.0000
  O   O47       1.0  0.45730  0.61030  0.75420  1.0000
  O   O48       1.0  0.54270  0.38970  0.24580  1.0000
  H   H13       1.0  0.49190  0.59620  0.71190  1.0000
  H   H14       1.0  0.50810  0.40380  0.28810  1.0000
  H   H15       1.0  0.44780  0.56300  0.77310  1.0000
  H   H16       1.0  0.55220  0.43700  0.22690  1.0000
  C   C1        1.0  0.08700  0.83830  0.97940  1.0000
  C   C2        1.0  0.91300  0.16170  0.02060  1.0000
  C   C3        1.0  0.13070  0.94080  0.01340  1.0000
  C   C4        1.0  0.86930  0.05920  0.98660  1.0000
  C   C5        1.0  0.10870  0.01060  0.09370  1.0000
  C   C6        1.0  0.89130  0.98940  0.90630  1.0000
  H   H17       1.0  0.13790  0.07770  0.11490  1.0000
  H   H18       1.0  0.86210  0.92230  0.88510  1.0000
  C   C7        1.0  0.04280  0.97900  0.14190  1.0000
  C   C8        1.0  0.95720  0.02100  0.85810  1.0000
  C   C9        1.0  0.99830  0.87920  0.11000  1.0000
  C   C10       1.0  0.00170  0.12080  0.89000  1.0000
  H   H19       1.0  0.95380  0.85910  0.14240  1.0000
  H   H20       1.0  0.04620  0.14090  0.85760  1.0000
  C   C11       1.0  0.01970  0.80870  0.02990  1.0000
  C   C12       1.0  0.98030  0.19130  0.97010  1.0000
  C   C13       1.0  0.11520  0.58640  0.98570  1.0000
  C   C14       1.0  0.88480  0.41360  0.01430  1.0000
  C   C15       1.0  0.05120  0.63390  0.04210  1.0000
  C   C16       1.0  0.94880  0.36610  0.95790  1.0000
  C   C17       1.0  0.05180  0.63740  0.13530  1.0000
  C   C18       1.0  0.94820  0.36260  0.86470  1.0000
  H   H21       1.0  0.00850  0.66750  0.16970  1.0000
  H   H22       1.0  0.99150  0.33250  0.83030  1.0000
  C   C19       1.0  0.11720  0.59600  0.17780  1.0000
  C   C20       1.0  0.88280  0.40400  0.82220  1.0000
  C   C21       1.0  0.18160  0.55030  0.12700  1.0000
  C   C22       1.0  0.81840  0.44970  0.87300  1.0000
  H   H23       1.0  0.22490  0.52240  0.15550  1.0000
  H   H24       1.0  0.77510  0.47760  0.84450  1.0000
  C   C23       1.0  0.18130  0.54650  0.03330  1.0000
  C   C24       1.0  0.81870  0.45350  0.96670  1.0000
  C   C25       1.0  0.39650  0.63540  0.97030  1.0000
  C   C26       1.0  0.60350  0.36460  0.02970  1.0000
  C   C27       1.0  0.37650  0.57020  0.01730  1.0000
  C   C28       1.0  0.62350  0.42980  0.98270  1.0000
  C   C29       1.0  0.44320  0.57350  0.09740  1.0000
  C   C30       1.0  0.55680  0.42650  0.90260  1.0000
  H   H25       1.0  0.42780  0.52940  0.12640  1.0000
  H   H26       1.0  0.57220  0.47060  0.87360  1.0000
  C   C31       1.0  0.53270  0.64310  0.13380  1.0000
  C   C32       1.0  0.46730  0.35690  0.86620  1.0000
  C   C33       1.0  0.55530  0.70760  0.08980  1.0000
  C   C34       1.0  0.44470  0.29240  0.91020  1.0000
  H   H27       1.0  0.61580  0.75360  0.11400  1.0000
  H   H28       1.0  0.38420  0.24640  0.88600  1.0000
  C   C35       1.0  0.48870  0.70480  0.00960  1.0000
  C   C36       1.0  0.51130  0.29520  0.99040  1.0000
  C   C37       1.0  0.37370  0.88990  0.96550  1.0000
  C   C38       1.0  0.62630  0.11010  0.03450  1.0000
  C   C39       1.0  0.46350  0.88700  0.02020  1.0000
  C   C40       1.0  0.53650  0.11300  0.97980  1.0000
  C   C41       1.0  0.50460  0.95430  0.11560  1.0000
  C   C42       1.0  0.49540  0.04570  0.88440  1.0000
  H   H29       1.0  0.56400  0.95110  0.14910  1.0000
  H   H30       1.0  0.43600  0.04890  0.85090  1.0000
  C   C43       1.0  0.45780  0.02670  0.16190  1.0000
  C   C44       1.0  0.54220  0.97330  0.83810  1.0000
  C   C45       1.0  0.36960  0.03210  0.11070  1.0000
  C   C46       1.0  0.63040  0.96790  0.88930  1.0000
  H   H31       1.0  0.33850  0.08120  0.14120  1.0000
  H   H32       1.0  0.66150  0.91880  0.85880  1.0000
  C   C47       1.0  0.32810  0.96520  0.01520  1.0000
  C   C48       1.0  0.67190  0.03480  0.98480  1.0000
