data_image0
_chemical_formula_structural       Co8S18O40H4O2H4O2C6H2C4H2C8H2C4H2C8H2C4H2C8H2C4H2C2
_chemical_formula_sum              "Co8 S18 O44 H24 C48"
_cell_length_a       12.8085
_cell_length_b       14.7053
_cell_length_c       15.4325
_cell_angle_alpha    113.933
_cell_angle_beta     93.774
_cell_angle_gamma    97.724

_space_group_name_H-M_alt    "P 1"
_space_group_IT_number       1

loop_
  _space_group_symop_operation_xyz
  'x, y, z'

loop_
  _atom_site_type_symbol
  _atom_site_label
  _atom_site_symmetry_multiplicity
  _atom_site_fract_x
  _atom_site_fract_y
  _atom_site_fract_z
  _atom_site_occupancy
  Co  Co1       1.0  0.43024  0.32025  0.66707  1.0000
  Co  Co2       1.0  0.56976  0.67975  0.33293  1.0000
  Co  Co3       1.0  0.24639  0.33051  0.83667  1.0000
  Co  Co4       1.0  0.75361  0.66949  0.16333  1.0000
  Co  Co5       1.0  0.05001  0.31827  0.69327  1.0000
  Co  Co6       1.0  0.94999  0.68173  0.30673  1.0000
  Co  Co7       1.0  0.20378  0.30473  0.50353  1.0000
  Co  Co8       1.0  0.79622  0.69527  0.49647  1.0000
  S   S1        1.0  0.55885  0.47669  0.71956  1.0000
  S   S2        1.0  0.44115  0.52331  0.28044  1.0000
  S   S3        1.0  0.29191  0.48511  0.99217  1.0000
  S   S4        1.0  0.70809  0.51489  0.00783  1.0000
  S   S5        1.0  0.95080  0.46471  0.74674  1.0000
  S   S6        1.0  0.04920  0.53529  0.25326  1.0000
  S   S7        1.0  0.21518  0.45848  0.47410  1.0000
  S   S8        1.0  0.78482  0.54152  0.52590  1.0000
  S   S9        1.0  0.56131  0.75769  0.57232  1.0000
  S   S10       1.0  0.43869  0.24231  0.42768  1.0000
  S   S11       1.0  0.62480  0.79485  0.06769  1.0000
  S   S12       1.0  0.37520  0.20515  0.93231  1.0000
  S   S13       1.0  0.00237  0.73739  0.12369  1.0000
  S   S14       1.0  0.99763  0.26261  0.87631  1.0000
  S   S15       1.0  0.01928  0.78292  0.65123  1.0000
  S   S16       1.0  0.98072  0.21708  0.34877  1.0000
  S   S17       1.0  0.21311  0.16590  0.61327  1.0000
  S   S18       1.0  0.78689  0.83410  0.38673  1.0000
  O   O1        1.0  0.33850  0.39440  0.60630  1.0000
  O   O2        1.0  0.66150  0.60560  0.39370  1.0000
  O   O3        1.0  0.37920  0.39490  0.80070  1.0000
  O   O4        1.0  0.62080  0.60510  0.19930  1.0000
  O   O5        1.0  0.15620  0.42220  0.80660  1.0000
  O   O6        1.0  0.84380  0.57780  0.19340  1.0000
  O   O7        1.0  0.09750  0.37550  0.59740  1.0000
  O   O8        1.0  0.90250  0.62450  0.40260  1.0000
  O   O9        1.0  0.53400  0.84750  0.64540  1.0000
  O   O10       1.0  0.46600  0.15250  0.35460  1.0000
  O   O11       1.0  0.52180  0.74630  0.47620  1.0000
  O   O12       1.0  0.47820  0.25370  0.52380  1.0000
  O   O13       1.0  0.67490  0.75390  0.58610  1.0000
  O   O14       1.0  0.32510  0.24610  0.41390  1.0000
  O   O15       1.0  0.70140  0.82270  0.01340  1.0000
  O   O16       1.0  0.29860  0.17730  0.98660  1.0000
  O   O17       1.0  0.67760  0.77420  0.14400  1.0000
  O   O18       1.0  0.32240  0.22580  0.85600  1.0000
  O   O19       1.0  0.55480  0.86670  0.10560  1.0000
  O   O20       1.0  0.44520  0.13330  0.89440  1.0000
  O   O21       1.0  0.04910  0.83330  0.12510  1.0000
  O   O22       1.0  0.95090  0.16670  0.87490  1.0000
  O   O23       1.0  0.03820  0.72670  0.21060  1.0000
  O   O24       1.0  0.96180  0.27330  0.78940  1.0000
  O   O25       1.0  0.88610  0.71730  0.10050  1.0000
  O   O26       1.0  0.11390  0.28270  0.89950  1.0000
  O   O27       1.0  0.04850  0.84830  0.75220  1.0000
  O   O28       1.0  0.95150  0.15170  0.24780  1.0000
  O   O29       1.0  0.90460  0.76970  0.62380  1.0000
  O   O30       1.0  0.09540  0.23030  0.37620  1.0000
  O   O31       1.0  0.08280  0.81470  0.59050  1.0000
  O   O32       1.0  0.91720  0.18530  0.40950  1.0000
  O   O33       1.0  0.33370  0.18580  0.63380  1.0000
  O   O34       1.0  0.66630  0.81420  0.36620  1.0000
  O   O35       1.0  0.17260  0.17650  0.52330  1.0000
  O   O36       1.0  0.82740  0.82350  0.47670  1.0000
  O   O37       1.0  0.16570  0.23430  0.70000  1.0000
  O   O38       1.0  0.83430  0.76570  0.30000  1.0000
  O   O39       1.0  0.17470  0.05200  0.59560  1.0000
  O   O40       1.0  0.82530  0.94800  0.40440  1.0000
  H   H1        1.0  0.94310  0.14660  0.59970  1.0000
  H   H2        1.0  0.05690  0.85340  0.40030  1.0000
  H   H3        1.0  0.51920  0.20660  0.71880  1.0000
  H   H4        1.0  0.48080  0.79340  0.28120  1.0000
  O   O41       1.0  0.94100  0.20080  0.59280  1.0000
  O   O42       1.0  0.05900  0.79920  0.40720  1.0000
  H   H5        1.0  0.93870  0.19310  0.53500  1.0000
  H   H6        1.0  0.06130  0.80690  0.46500  1.0000
  H   H7        1.0  0.60780  0.26490  0.69840  1.0000
  H   H8        1.0  0.39220  0.73510  0.30160  1.0000
  O   O43       1.0  0.54880  0.26260  0.72020  1.0000
  O   O44       1.0  0.45120  0.73740  0.27980  1.0000
  C   C1        1.0  0.38640  0.47750  0.60170  1.0000
  C   C2        1.0  0.61360  0.52250  0.39830  1.0000
  C   C3        1.0  0.34090  0.52000  0.54390  1.0000
  C   C4        1.0  0.65910  0.48000  0.45610  1.0000
  C   C5        1.0  0.39380  0.60440  0.53530  1.0000
  C   C6        1.0  0.60620  0.39560  0.46470  1.0000
  H   H9        1.0  0.36170  0.62930  0.49570  1.0000
  H   H10       1.0  0.63830  0.37070  0.50430  1.0000
  C   C7        1.0  0.49370  0.65160  0.58500  1.0000
  C   C8        1.0  0.50630  0.34840  0.41500  1.0000
  C   C9        1.0  0.54150  0.61340  0.64350  1.0000
  C   C10       1.0  0.45850  0.38660  0.35650  1.0000
  H   H11       1.0  0.60870  0.64470  0.67720  1.0000
  H   H12       1.0  0.39130  0.35530  0.32280  1.0000
  C   C11       1.0  0.48950  0.52910  0.65180  1.0000
  C   C12       1.0  0.51050  0.47090  0.34820  1.0000
  C   C13       1.0  0.42800  0.48670  0.85900  1.0000
  C   C14       1.0  0.57200  0.51330  0.14100  1.0000
  C   C15       1.0  0.51620  0.53570  0.83380  1.0000
  C   C16       1.0  0.48380  0.46430  0.16620  1.0000
  C   C17       1.0  0.57310  0.63000  0.89650  1.0000
  C   C18       1.0  0.42690  0.37000  0.10350  1.0000
  H   H13       1.0  0.63060  0.65990  0.87780  1.0000
  H   H14       1.0  0.36940  0.34010  0.12220  1.0000
  C   C19       1.0  0.54480  0.67910  0.98620  1.0000
  C   C20       1.0  0.45520  0.32090  0.01380  1.0000
  C   C21       1.0  0.45790  0.63500  0.01390  1.0000
  C   C22       1.0  0.54210  0.36500  0.98610  1.0000
  H   H15       1.0  0.43880  0.66800  0.07450  1.0000
  H   H16       1.0  0.56120  0.33200  0.92550  1.0000
  C   C23       1.0  0.39980  0.54180  0.95110  1.0000
  C   C24       1.0  0.60020  0.45820  0.04890  1.0000
  C   C25       1.0  0.12330  0.49470  0.87700  1.0000
  C   C26       1.0  0.87670  0.50530  0.12300  1.0000
  C   C27       1.0  0.18060  0.53840  0.97020  1.0000
  C   C28       1.0  0.81940  0.46160  0.02980  1.0000
  C   C29       1.0  0.14330  0.61060  0.04500  1.0000
  C   C30       1.0  0.85670  0.38940  0.95500  1.0000
  H   H17       1.0  0.18100  0.63840  0.10610  1.0000
  H   H18       1.0  0.81900  0.36160  0.89390  1.0000
  C   C31       1.0  0.04880  0.64170  0.02840  1.0000
  C   C32       1.0  0.95120  0.35830  0.97160  1.0000
  C   C33       1.0  0.99160  0.60080  0.93730  1.0000
  C   C34       1.0  0.00840  0.39920  0.06270  1.0000
  H   H19       1.0  0.92880  0.62230  0.92680  1.0000
  H   H20       1.0  0.07120  0.37770  0.07320  1.0000
  C   C35       1.0  0.02860  0.52810  0.86230  1.0000
  C   C36       1.0  0.97140  0.47190  0.13770  1.0000
  C   C37       1.0  0.08210  0.46790  0.61120  1.0000
  C   C38       1.0  0.91790  0.53210  0.38880  1.0000
  C   C39       1.0  0.01680  0.52150  0.67870  1.0000
  C   C40       1.0  0.98320  0.47850  0.32130  1.0000
  C   C41       1.0  0.99940  0.61630  0.68920  1.0000
  C   C42       1.0  0.00060  0.38370  0.31080  1.0000
  H   H21       1.0  0.95540  0.64940  0.73280  1.0000
  H   H22       1.0  0.04460  0.35060  0.26720  1.0000
  C   C43       1.0  0.04670  0.66200  0.63590  1.0000
  C   C44       1.0  0.95330  0.33800  0.36410  1.0000
  C   C45       1.0  0.11100  0.61280  0.57000  1.0000
  C   C46       1.0  0.88900  0.38720  0.43000  1.0000
  H   H23       1.0  0.14210  0.64360  0.53370  1.0000
  H   H24       1.0  0.85790  0.35640  0.46630  1.0000
  C   C47       1.0  0.12930  0.51760  0.55770  1.0000
  C   C48       1.0  0.87070  0.48240  0.44230  1.0000
