data_image0
_chemical_formula_structural       Pt2N8C8
_chemical_formula_sum              "Pt2 N8 C8"
_cell_length_a       9.2056
_cell_length_b       7.2084
_cell_length_c       13.1211
_cell_angle_alpha    90
_cell_angle_beta     90.246
_cell_angle_gamma    90

_space_group_name_H-M_alt    "P 1"
_space_group_IT_number       1

loop_
  _space_group_symop_operation_xyz
  'x, y, z'

loop_
  _atom_site_type_symbol
  _atom_site_label
  _atom_site_symmetry_multiplicity
  _atom_site_fract_x
  _atom_site_fract_y
  _atom_site_fract_z
  _atom_site_occupancy
  Pt  Pt1       1.0  0.20276  0.00012  0.77459  1.0000
  Pt  Pt2       1.0  0.79724  0.50012  0.22541  1.0000
  N   N1        1.0  0.89080  0.99800  0.67960  1.0000
  N   N2        1.0  0.10920  0.49800  0.32040  1.0000
  N   N3        1.0  0.03070  0.97700  0.97980  1.0000
  N   N4        1.0  0.96930  0.47700  0.02020  1.0000
  N   N5        1.0  0.49960  0.00600  0.89210  1.0000
  N   N6        1.0  0.50040  0.50600  0.10790  1.0000
  N   N7        1.0  0.36410  0.99300  0.56490  1.0000
  N   N8        1.0  0.63590  0.49300  0.43510  1.0000
  C   C1        1.0  0.00770  0.00200  0.70850  1.0000
  C   C2        1.0  0.99230  0.50200  0.29150  1.0000
  C   C3        1.0  0.09830  0.99600  0.90700  1.0000
  C   C4        1.0  0.90170  0.49600  0.09300  1.0000
  C   C5        1.0  0.39360  0.99800  0.84850  1.0000
  C   C6        1.0  0.60640  0.49800  0.15150  1.0000
  C   C7        1.0  0.30460  0.99300  0.64040  1.0000
  C   C8        1.0  0.69540  0.49300  0.35960  1.0000
