data_image0
_chemical_formula_structural       Zn4S4O28N8H4N8H4C16H4C8H4C8H4C16H4C4H4C4H4C4H4C4H12C16H4C4H4C4H4C4H4C4H12
_chemical_formula_sum              "Zn4 S4 O28 N16 H76 C96"
_cell_length_a       16.8998
_cell_length_b       11.1358
_cell_length_c       19.2874
_cell_angle_alpha    90
_cell_angle_beta     114.15
_cell_angle_gamma    90

_space_group_name_H-M_alt    "P 1"
_space_group_IT_number       1

loop_
  _space_group_symop_operation_xyz
  'x, y, z'

loop_
  _atom_site_type_symbol
  _atom_site_label
  _atom_site_symmetry_multiplicity
  _atom_site_fract_x
  _atom_site_fract_y
  _atom_site_fract_z
  _atom_site_occupancy
  Zn  Zn1       1.0  0.94938  0.24390  0.33478  1.0000
  Zn  Zn2       1.0  0.55062  0.74390  0.16522  1.0000
  Zn  Zn3       1.0  0.05062  0.75610  0.66522  1.0000
  Zn  Zn4       1.0  0.44938  0.25610  0.83478  1.0000
  S   S1        1.0  0.64991  0.40397  0.55667  1.0000
  S   S2        1.0  0.85009  0.90397  0.94333  1.0000
  S   S3        1.0  0.35009  0.59603  0.44333  1.0000
  S   S4        1.0  0.14991  0.09603  0.05667  1.0000
  O   O1        1.0  0.62180  0.64330  0.25036  1.0000
  O   O2        1.0  0.87820  0.14330  0.24964  1.0000
  O   O3        1.0  0.37820  0.35670  0.74964  1.0000
  O   O4        1.0  0.12180  0.85670  0.75036  1.0000
  O   O5        1.0  0.51020  0.62120  0.28150  1.0000
  O   O6        1.0  0.98980  0.12120  0.21850  1.0000
  O   O7        1.0  0.48980  0.37880  0.71850  1.0000
  O   O8        1.0  0.01020  0.87880  0.78150  1.0000
  O   O9        1.0  0.86060  0.33970  0.35290  1.0000
  O   O10       1.0  0.63940  0.83970  0.14710  1.0000
  O   O11       1.0  0.13940  0.66030  0.64710  1.0000
  O   O12       1.0  0.36060  0.16030  0.85290  1.0000
  O   O13       1.0  0.85210  0.21330  0.43780  1.0000
  O   O14       1.0  0.64790  0.71330  0.06220  1.0000
  O   O15       1.0  0.14790  0.78670  0.56220  1.0000
  O   O16       1.0  0.35210  0.28670  0.93780  1.0000
  O   O17       1.0  0.57260  0.33430  0.53300  1.0000
  O   O18       1.0  0.92740  0.83430  0.96700  1.0000
  O   O19       1.0  0.42740  0.66570  0.46700  1.0000
  O   O20       1.0  0.07260  0.16570  0.03300  1.0000
  O   O21       1.0  0.72480  0.34300  0.61150  1.0000
  O   O22       1.0  0.77520  0.84300  0.88850  1.0000
  O   O23       1.0  0.27520  0.65700  0.38850  1.0000
  O   O24       1.0  0.22480  0.15700  0.11150  1.0000
  O   O25       1.0  0.64030  0.52180  0.58190  1.0000
  O   O26       1.0  0.85970  0.02180  0.91810  1.0000
  O   O27       1.0  0.35970  0.47820  0.41810  1.0000
  O   O28       1.0  0.14030  0.97820  0.08190  1.0000
  N   N1        1.0  0.01650  0.38180  0.31780  1.0000
  N   N2        1.0  0.48350  0.88180  0.18220  1.0000
  N   N3        1.0  0.98350  0.61820  0.68220  1.0000
  N   N4        1.0  0.51650  0.11820  0.81780  1.0000
  N   N5        1.0  0.11680  0.51630  0.33010  1.0000
  N   N6        1.0  0.38320  0.01630  0.16990  1.0000
  N   N7        1.0  0.88320  0.48370  0.66990  1.0000
  N   N8        1.0  0.61680  0.98370  0.83010  1.0000
  H   H1        1.0  0.16741  0.54804  0.34420  1.0000
  H   H2        1.0  0.33259  0.04804  0.15580  1.0000
  H   H3        1.0  0.83259  0.45196  0.65580  1.0000
  H   H4        1.0  0.66741  0.95196  0.84420  1.0000
  N   N9        1.0  0.02770  0.14770  0.42460  1.0000
  N   N10       1.0  0.47230  0.64770  0.07540  1.0000
  N   N11       1.0  0.97230  0.85230  0.57540  1.0000
  N   N12       1.0  0.52770  0.35230  0.92460  1.0000
  N   N13       1.0  0.10210  0.00640  0.50420  1.0000
  N   N14       1.0  0.39790  0.50640  0.99580  1.0000
  N   N15       1.0  0.89790  0.99360  0.49580  1.0000
  N   N16       1.0  0.60210  0.49360  0.00420  1.0000
  H   H5        1.0  0.12330  0.93672  0.52088  1.0000
  H   H6        1.0  0.37670  0.43672  0.97912  1.0000
  H   H7        1.0  0.87670  0.06328  0.47912  1.0000
  H   H8        1.0  0.62330  0.56328  0.02088  1.0000
  C   C1        1.0  0.58610  0.60190  0.29180  1.0000
  C   C2        1.0  0.91390  0.10190  0.20820  1.0000
  C   C3        1.0  0.41390  0.39810  0.70820  1.0000
  C   C4        1.0  0.08610  0.89810  0.79180  1.0000
  C   C5        1.0  0.83020  0.30520  0.39910  1.0000
  C   C6        1.0  0.66980  0.80520  0.10090  1.0000
  C   C7        1.0  0.16980  0.69480  0.60090  1.0000
  C   C8        1.0  0.33020  0.19480  0.89910  1.0000
  C   C9        1.0  0.64200  0.52120  0.35590  1.0000
  C   C10       1.0  0.85800  0.02120  0.14410  1.0000
  C   C11       1.0  0.35800  0.47880  0.64410  1.0000
  C   C12       1.0  0.14200  0.97880  0.85590  1.0000
  C   C13       1.0  0.71210  0.46250  0.35150  1.0000
  C   C14       1.0  0.78790  0.96250  0.14850  1.0000
  C   C15       1.0  0.28790  0.53750  0.64850  1.0000
  C   C16       1.0  0.21210  0.03750  0.85150  1.0000
  H   H9        1.0  0.72723  0.47849  0.31115  1.0000
  H   H10       1.0  0.77277  0.97849  0.18885  1.0000
  H   H11       1.0  0.27277  0.52151  0.68885  1.0000
  H   H12       1.0  0.22723  0.02151  0.81115  1.0000
  C   C17       1.0  0.76010  0.37990  0.40700  1.0000
  C   C18       1.0  0.73990  0.87990  0.09300  1.0000
  C   C19       1.0  0.23990  0.62010  0.59300  1.0000
  C   C20       1.0  0.26010  0.12010  0.90700  1.0000
  C   C21       1.0  0.74060  0.36340  0.46970  1.0000
  C   C22       1.0  0.75940  0.86340  0.03030  1.0000
  C   C23       1.0  0.25940  0.63660  0.53030  1.0000
  C   C24       1.0  0.24060  0.13660  0.96970  1.0000
  H   H13       1.0  0.77343  0.31041  0.50790  1.0000
  H   H14       1.0  0.72657  0.81041  0.99210  1.0000
  H   H15       1.0  0.22657  0.68959  0.49210  1.0000
  H   H16       1.0  0.27343  0.18959  0.00790  1.0000
  C   C25       1.0  0.67320  0.42480  0.47560  1.0000
  C   C26       1.0  0.82680  0.92480  0.02440  1.0000
  C   C27       1.0  0.32680  0.57520  0.52440  1.0000
  C   C28       1.0  0.17320  0.07520  0.97560  1.0000
  C   C29       1.0  0.62190  0.50190  0.41840  1.0000
  C   C30       1.0  0.87810  0.00190  0.08160  1.0000
  C   C31       1.0  0.37810  0.49810  0.58160  1.0000
  C   C32       1.0  0.12190  0.99810  0.91840  1.0000
  H   H17       1.0  0.57469  0.54038  0.42160  1.0000
  H   H18       1.0  0.92531  0.04038  0.07840  1.0000
  H   H19       1.0  0.42531  0.45962  0.57840  1.0000
  H   H20       1.0  0.07469  0.95962  0.92160  1.0000
  C   C33       1.0  0.10030  0.40440  0.34720  1.0000
  C   C34       1.0  0.39970  0.90440  0.15280  1.0000
  C   C35       1.0  0.89970  0.59560  0.65280  1.0000
  C   C36       1.0  0.60030  0.09560  0.84720  1.0000
  C   C37       1.0  0.03990  0.57120  0.28670  1.0000
  C   C38       1.0  0.46010  0.07120  0.21330  1.0000
  C   C39       1.0  0.96010  0.42880  0.71330  1.0000
  C   C40       1.0  0.53990  0.92880  0.78670  1.0000
  C   C41       1.0  0.97660  0.48680  0.27780  1.0000
  C   C42       1.0  0.52340  0.98680  0.22220  1.0000
  C   C43       1.0  0.02340  0.51320  0.72220  1.0000
  C   C44       1.0  0.47660  0.01320  0.77780  1.0000
  C   C45       1.0  0.89060  0.51010  0.23350  1.0000
  C   C46       1.0  0.60940  0.01010  0.26650  1.0000
  C   C47       1.0  0.10940  0.48990  0.76650  1.0000
  C   C48       1.0  0.39060  0.98990  0.73350  1.0000
  H   H21       1.0  0.84765  0.45367  0.22747  1.0000
  H   H22       1.0  0.65235  0.95367  0.27253  1.0000
  H   H23       1.0  0.15235  0.54633  0.77253  1.0000
  H   H24       1.0  0.34765  0.04633  0.72747  1.0000
  C   C49       1.0  0.87090  0.62010  0.19880  1.0000
  C   C50       1.0  0.62910  0.12010  0.30120  1.0000
  C   C51       1.0  0.12910  0.37990  0.80120  1.0000
  C   C52       1.0  0.37090  0.87990  0.69880  1.0000
  H   H25       1.0  0.81338  0.63825  0.16807  1.0000
  H   H26       1.0  0.68662  0.13825  0.33193  1.0000
  H   H27       1.0  0.18662  0.36175  0.83193  1.0000
  H   H28       1.0  0.31338  0.86175  0.66807  1.0000
  C   C53       1.0  0.93430  0.70490  0.20810  1.0000
  C   C54       1.0  0.56570  0.20490  0.29190  1.0000
  C   C55       1.0  0.06570  0.29510  0.79190  1.0000
  C   C56       1.0  0.43430  0.79510  0.70810  1.0000
  H   H29       1.0  0.91833  0.77865  0.18360  1.0000
  H   H30       1.0  0.58167  0.27865  0.31640  1.0000
  H   H31       1.0  0.08167  0.22135  0.81640  1.0000
  H   H32       1.0  0.41833  0.72135  0.68360  1.0000
  C   C57       1.0  0.01880  0.68310  0.25190  1.0000
  C   C58       1.0  0.48120  0.18310  0.24810  1.0000
  C   C59       1.0  0.98120  0.31690  0.74810  1.0000
  C   C60       1.0  0.51880  0.81690  0.75190  1.0000
  H   H33       1.0  0.06115  0.74062  0.25846  1.0000
  H   H34       1.0  0.43885  0.24062  0.24154  1.0000
  H   H35       1.0  0.93885  0.25938  0.74154  1.0000
  H   H36       1.0  0.56115  0.75938  0.75846  1.0000
  C   C61       1.0  0.17020  0.32140  0.39160  1.0000
  C   C62       1.0  0.32980  0.82140  0.10840  1.0000
  C   C63       1.0  0.82980  0.67860  0.60840  1.0000
  C   C64       1.0  0.67020  0.17860  0.89160  1.0000
  H   H37       1.0  0.18603  0.33469  0.44481  1.0000
  H   H38       1.0  0.31397  0.83469  0.05519  1.0000
  H   H39       1.0  0.81397  0.66531  0.55519  1.0000
  H   H40       1.0  0.68603  0.16531  0.94481  1.0000
  H   H41       1.0  0.21958  0.33507  0.38011  1.0000
  H   H42       1.0  0.28042  0.83507  0.11989  1.0000
  H   H43       1.0  0.78042  0.66493  0.61989  1.0000
  H   H44       1.0  0.71958  0.16493  0.88011  1.0000
  H   H45       1.0  0.15054  0.24016  0.37896  1.0000
  H   H46       1.0  0.34946  0.74016  0.12104  1.0000
  H   H47       1.0  0.84946  0.75984  0.62104  1.0000
  H   H48       1.0  0.65054  0.25984  0.87896  1.0000
  C   C65       1.0  0.05190  0.03390  0.43190  1.0000
  C   C66       1.0  0.44810  0.53390  0.06810  1.0000
  C   C67       1.0  0.94810  0.96610  0.56810  1.0000
  C   C68       1.0  0.55190  0.46610  0.93190  1.0000
  C   C69       1.0  0.11410  0.10880  0.54710  1.0000
  C   C70       1.0  0.38590  0.60880  0.95290  1.0000
  C   C71       1.0  0.88590  0.89120  0.45290  1.0000
  C   C72       1.0  0.61410  0.39120  0.04710  1.0000
  C   C73       1.0  0.06610  0.19740  0.49760  1.0000
  C   C74       1.0  0.43390  0.69740  0.00240  1.0000
  C   C75       1.0  0.93390  0.80260  0.50240  1.0000
  C   C76       1.0  0.56610  0.30260  0.99760  1.0000
  C   C77       1.0  0.06470  0.31430  0.52250  1.0000
  C   C78       1.0  0.43530  0.81430  0.97750  1.0000
  C   C79       1.0  0.93530  0.68570  0.47750  1.0000
  C   C80       1.0  0.56470  0.18570  0.02250  1.0000
  H   H49       1.0  0.03270  0.37443  0.48950  1.0000
  H   H50       1.0  0.46730  0.87443  0.01050  1.0000
  H   H51       1.0  0.96730  0.62557  0.51050  1.0000
  H   H52       1.0  0.53270  0.12557  0.98950  1.0000
  C   C81       1.0  0.11250  0.33640  0.59800  1.0000
  C   C82       1.0  0.38750  0.83640  0.90200  1.0000
  C   C83       1.0  0.88750  0.66360  0.40200  1.0000
  C   C84       1.0  0.61250  0.16360  0.09800  1.0000
  H   H53       1.0  0.11201  0.41331  0.61657  1.0000
  H   H54       1.0  0.38799  0.91331  0.88343  1.0000
  H   H55       1.0  0.88799  0.58669  0.38343  1.0000
  H   H56       1.0  0.61201  0.08669  0.11657  1.0000
  C   C85       1.0  0.16190  0.24790  0.64800  1.0000
  C   C86       1.0  0.33810  0.74790  0.85200  1.0000
  C   C87       1.0  0.83810  0.75210  0.35200  1.0000
  C   C88       1.0  0.66190  0.25210  0.14800  1.0000
  H   H57       1.0  0.19469  0.26751  0.69863  1.0000
  H   H58       1.0  0.30531  0.76751  0.80137  1.0000
  H   H59       1.0  0.80531  0.73249  0.30137  1.0000
  H   H60       1.0  0.69469  0.23249  0.19863  1.0000
  C   C89       1.0  0.16300  0.13200  0.62370  1.0000
  C   C90       1.0  0.33700  0.63200  0.87630  1.0000
  C   C91       1.0  0.83700  0.86800  0.37630  1.0000
  C   C92       1.0  0.66300  0.36800  0.12370  1.0000
  H   H61       1.0  0.19486  0.07200  0.65697  1.0000
  H   H62       1.0  0.30514  0.57200  0.84303  1.0000
  H   H63       1.0  0.80514  0.92800  0.34303  1.0000
  H   H64       1.0  0.69486  0.42800  0.15697  1.0000
  C   C93       1.0  0.03090  0.94420  0.37030  1.0000
  C   C94       1.0  0.46910  0.44420  0.12970  1.0000
  C   C95       1.0  0.96910  0.05580  0.62970  1.0000
  C   C96       1.0  0.53090  0.55580  0.87030  1.0000
  H   H65       1.0  0.97325  0.95829  0.33267  1.0000
  H   H66       1.0  0.52675  0.45829  0.16733  1.0000
  H   H67       1.0  0.02675  0.04171  0.66733  1.0000
  H   H68       1.0  0.47325  0.54171  0.83267  1.0000
  H   H69       1.0  0.03424  0.86503  0.39099  1.0000
  H   H70       1.0  0.46576  0.36503  0.10901  1.0000
  H   H71       1.0  0.96576  0.13497  0.60901  1.0000
  H   H72       1.0  0.53424  0.63497  0.89099  1.0000
  H   H73       1.0  0.07149  0.95120  0.34739  1.0000
  H   H74       1.0  0.42851  0.45120  0.15261  1.0000
  H   H75       1.0  0.92851  0.04880  0.65261  1.0000
  H   H76       1.0  0.57149  0.54880  0.84739  1.0000
