data_image0
_chemical_formula_structural       Cr8C8O16C8O16C8O16C8O16C8O16C8O16K8
_chemical_formula_sum              "Cr8 C48 O96 K8"
_cell_length_a       23.975
_cell_length_b       7.402
_cell_length_c       20.046
_cell_angle_alpha    90
_cell_angle_beta     93.85
_cell_angle_gamma    90

_space_group_name_H-M_alt    "P 1"
_space_group_IT_number       1

loop_
  _space_group_symop_operation_xyz
  'x, y, z'

loop_
  _atom_site_type_symbol
  _atom_site_label
  _atom_site_symmetry_multiplicity
  _atom_site_fract_x
  _atom_site_fract_y
  _atom_site_fract_z
  _atom_site_occupancy
  Cr  Cr1       1.0  0.14768  0.00493  0.10119  1.0000
  Cr  Cr2       1.0  0.85232  0.00493  0.39881  1.0000
  Cr  Cr3       1.0  0.64768  0.50493  0.10119  1.0000
  Cr  Cr4       1.0  0.35232  0.50493  0.39881  1.0000
  Cr  Cr5       1.0  0.85232  0.99507  0.89881  1.0000
  Cr  Cr6       1.0  0.14768  0.99507  0.60119  1.0000
  Cr  Cr7       1.0  0.35232  0.49507  0.89881  1.0000
  Cr  Cr8       1.0  0.64768  0.49507  0.60119  1.0000
  C   C1        1.0  0.24190  0.95830  0.03038  1.0000
  C   C2        1.0  0.75810  0.95830  0.46962  1.0000
  C   C3        1.0  0.74190  0.45830  0.03038  1.0000
  C   C4        1.0  0.25810  0.45830  0.46962  1.0000
  C   C5        1.0  0.75810  0.04170  0.96962  1.0000
  C   C6        1.0  0.24190  0.04170  0.53038  1.0000
  C   C7        1.0  0.25810  0.54170  0.96962  1.0000
  C   C8        1.0  0.74190  0.54170  0.53038  1.0000
  O   O1        1.0  0.28758  0.91740  0.01090  1.0000
  O   O2        1.0  0.71242  0.91740  0.48910  1.0000
  O   O3        1.0  0.78758  0.41740  0.01090  1.0000
  O   O4        1.0  0.21242  0.41740  0.48910  1.0000
  O   O5        1.0  0.71242  0.08260  0.98910  1.0000
  O   O6        1.0  0.28758  0.08260  0.51090  1.0000
  O   O7        1.0  0.21242  0.58260  0.98910  1.0000
  O   O8        1.0  0.78758  0.58260  0.51090  1.0000
  O   O9        1.0  0.22248  0.90650  0.08554  1.0000
  O   O10       1.0  0.77752  0.90650  0.41446  1.0000
  O   O11       1.0  0.72248  0.40650  0.08554  1.0000
  O   O12       1.0  0.27752  0.40650  0.41446  1.0000
  O   O13       1.0  0.77752  0.09350  0.91446  1.0000
  O   O14       1.0  0.22248  0.09350  0.58554  1.0000
  O   O15       1.0  0.27752  0.59350  0.91446  1.0000
  O   O16       1.0  0.72248  0.59350  0.58554  1.0000
  C   C9        1.0  0.20243  0.08520  0.98805  1.0000
  C   C10       1.0  0.79757  0.08520  0.51195  1.0000
  C   C11       1.0  0.70243  0.58520  0.98805  1.0000
  C   C12       1.0  0.29757  0.58520  0.51195  1.0000
  C   C13       1.0  0.79757  0.91480  0.01195  1.0000
  C   C14       1.0  0.20243  0.91480  0.48805  1.0000
  C   C15       1.0  0.29757  0.41480  0.01195  1.0000
  C   C16       1.0  0.70243  0.41480  0.48805  1.0000
  O   O17       1.0  0.21600  0.14300  0.93461  1.0000
  O   O18       1.0  0.78400  0.14300  0.56539  1.0000
  O   O19       1.0  0.71600  0.64300  0.93461  1.0000
  O   O20       1.0  0.28400  0.64300  0.56539  1.0000
  O   O21       1.0  0.78400  0.85700  0.06539  1.0000
  O   O22       1.0  0.21600  0.85700  0.43461  1.0000
  O   O23       1.0  0.28400  0.35700  0.06539  1.0000
  O   O24       1.0  0.71600  0.35700  0.43461  1.0000
  O   O25       1.0  0.15644  0.12090  0.01466  1.0000
  O   O26       1.0  0.84356  0.12090  0.48534  1.0000
  O   O27       1.0  0.65644  0.62090  0.01466  1.0000
  O   O28       1.0  0.34356  0.62090  0.48534  1.0000
  O   O29       1.0  0.84356  0.87910  0.98534  1.0000
  O   O30       1.0  0.15644  0.87910  0.51466  1.0000
  O   O31       1.0  0.34356  0.37910  0.98534  1.0000
  O   O32       1.0  0.65644  0.37910  0.51466  1.0000
  C   C17       1.0  0.05632  0.80270  0.05552  1.0000
  C   C18       1.0  0.94368  0.80270  0.44448  1.0000
  C   C19       1.0  0.55632  0.30270  0.05552  1.0000
  C   C20       1.0  0.44368  0.30270  0.44448  1.0000
  C   C21       1.0  0.94368  0.19730  0.94448  1.0000
  C   C22       1.0  0.05632  0.19730  0.55552  1.0000
  C   C23       1.0  0.44368  0.69730  0.94448  1.0000
  C   C24       1.0  0.55632  0.69730  0.55552  1.0000
  O   O33       1.0  0.10987  0.79330  0.05836  1.0000
  O   O34       1.0  0.89013  0.79330  0.44164  1.0000
  O   O35       1.0  0.60987  0.29330  0.05836  1.0000
  O   O36       1.0  0.39013  0.29330  0.44164  1.0000
  O   O37       1.0  0.89013  0.20670  0.94164  1.0000
  O   O38       1.0  0.10987  0.20670  0.55836  1.0000
  O   O39       1.0  0.39013  0.70670  0.94164  1.0000
  O   O40       1.0  0.60987  0.70670  0.55836  1.0000
  O   O41       1.0  0.02476  0.68230  0.03444  1.0000
  O   O42       1.0  0.97524  0.68230  0.46556  1.0000
  O   O43       1.0  0.52476  0.18230  0.03444  1.0000
  O   O44       1.0  0.47524  0.18230  0.46556  1.0000
  O   O45       1.0  0.97524  0.31770  0.96556  1.0000
  O   O46       1.0  0.02476  0.31770  0.53444  1.0000
  O   O47       1.0  0.47524  0.81770  0.96556  1.0000
  O   O48       1.0  0.52476  0.81770  0.53444  1.0000
  C   C25       1.0  0.03291  0.98210  0.08152  1.0000
  C   C26       1.0  0.96709  0.98210  0.41848  1.0000
  C   C27       1.0  0.53291  0.48210  0.08152  1.0000
  C   C28       1.0  0.46709  0.48210  0.41848  1.0000
  C   C29       1.0  0.96709  0.01790  0.91848  1.0000
  C   C30       1.0  0.03291  0.01790  0.58152  1.0000
  C   C31       1.0  0.46709  0.51790  0.91848  1.0000
  C   C32       1.0  0.53291  0.51790  0.58152  1.0000
  O   O49       1.0  0.07040  0.09270  0.10462  1.0000
  O   O50       1.0  0.92960  0.09270  0.39538  1.0000
  O   O51       1.0  0.57040  0.59270  0.10462  1.0000
  O   O52       1.0  0.42960  0.59270  0.39538  1.0000
  O   O53       1.0  0.92960  0.90730  0.89538  1.0000
  O   O54       1.0  0.07040  0.90730  0.60462  1.0000
  O   O55       1.0  0.42960  0.40730  0.89538  1.0000
  O   O56       1.0  0.57040  0.40730  0.60462  1.0000
  O   O57       1.0  0.98213  0.00650  0.07982  1.0000
  O   O58       1.0  0.01787  0.00650  0.42018  1.0000
  O   O59       1.0  0.48213  0.50650  0.07982  1.0000
  O   O60       1.0  0.51787  0.50650  0.42018  1.0000
  O   O61       1.0  0.01787  0.99350  0.92018  1.0000
  O   O62       1.0  0.98213  0.99350  0.57982  1.0000
  O   O63       1.0  0.51787  0.49350  0.92018  1.0000
  O   O64       1.0  0.48213  0.49350  0.57982  1.0000
  C   C33       1.0  0.19254  0.17030  0.21601  1.0000
  C   C34       1.0  0.80746  0.17030  0.28399  1.0000
  C   C35       1.0  0.69254  0.67030  0.21601  1.0000
  C   C36       1.0  0.30746  0.67030  0.28399  1.0000
  C   C37       1.0  0.80746  0.82970  0.78399  1.0000
  C   C38       1.0  0.19254  0.82970  0.71601  1.0000
  C   C39       1.0  0.30746  0.32970  0.78399  1.0000
  C   C40       1.0  0.69254  0.32970  0.71601  1.0000
  O   O65       1.0  0.22003  0.26470  0.25580  1.0000
  O   O66       1.0  0.77997  0.26470  0.24420  1.0000
  O   O67       1.0  0.72003  0.76470  0.25580  1.0000
  O   O68       1.0  0.27997  0.76470  0.24420  1.0000
  O   O69       1.0  0.77997  0.73530  0.74420  1.0000
  O   O70       1.0  0.22003  0.73530  0.75580  1.0000
  O   O71       1.0  0.27997  0.23530  0.74420  1.0000
  O   O72       1.0  0.72003  0.23530  0.75580  1.0000
  O   O73       1.0  0.18246  0.20540  0.15352  1.0000
  O   O74       1.0  0.81754  0.20540  0.34648  1.0000
  O   O75       1.0  0.68246  0.70540  0.15352  1.0000
  O   O76       1.0  0.31754  0.70540  0.34648  1.0000
  O   O77       1.0  0.81754  0.79460  0.84648  1.0000
  O   O78       1.0  0.18246  0.79460  0.65352  1.0000
  O   O79       1.0  0.31754  0.29460  0.84648  1.0000
  O   O80       1.0  0.68246  0.29460  0.65352  1.0000
  C   C41       1.0  0.16614  0.99130  0.23833  1.0000
  C   C42       1.0  0.83386  0.99130  0.26167  1.0000
  C   C43       1.0  0.66614  0.49130  0.23833  1.0000
  C   C44       1.0  0.33386  0.49130  0.26167  1.0000
  C   C45       1.0  0.83386  0.00870  0.76167  1.0000
  C   C46       1.0  0.16614  0.00870  0.73833  1.0000
  C   C47       1.0  0.33386  0.50870  0.76167  1.0000
  C   C48       1.0  0.66614  0.50870  0.73833  1.0000
  O   O81       1.0  0.14748  0.88960  0.19026  1.0000
  O   O82       1.0  0.85252  0.88960  0.30974  1.0000
  O   O83       1.0  0.64748  0.38960  0.19026  1.0000
  O   O84       1.0  0.35252  0.38960  0.30974  1.0000
  O   O85       1.0  0.85252  0.11040  0.80974  1.0000
  O   O86       1.0  0.14748  0.11040  0.69026  1.0000
  O   O87       1.0  0.35252  0.61040  0.80974  1.0000
  O   O88       1.0  0.64748  0.61040  0.69026  1.0000
  O   O89       1.0  0.16447  0.95840  0.29772  1.0000
  O   O90       1.0  0.83553  0.95840  0.20228  1.0000
  O   O91       1.0  0.66447  0.45840  0.29772  1.0000
  O   O92       1.0  0.33553  0.45840  0.20228  1.0000
  O   O93       1.0  0.83553  0.04160  0.70228  1.0000
  O   O94       1.0  0.16447  0.04160  0.79772  1.0000
  O   O95       1.0  0.33553  0.54160  0.70228  1.0000
  O   O96       1.0  0.66447  0.54160  0.79772  1.0000
  K   K1        1.0  0.21410  0.55864  0.13936  1.0000
  K   K2        1.0  0.78590  0.55864  0.36064  1.0000
  K   K3        1.0  0.71410  0.05864  0.13936  1.0000
  K   K4        1.0  0.28590  0.05864  0.36064  1.0000
  K   K5        1.0  0.78590  0.44136  0.86064  1.0000
  K   K6        1.0  0.21410  0.44136  0.63936  1.0000
  K   K7        1.0  0.28590  0.94136  0.86064  1.0000
  K   K8        1.0  0.71410  0.94136  0.63936  1.0000
