data_image0
_chemical_formula_structural       Tl3Pt3C72F60
_chemical_formula_sum              "Tl3 Pt3 C72 F60"
_cell_length_a       14.2476
_cell_length_b       14.2476
_cell_length_c       18.1928
_cell_angle_alpha    90
_cell_angle_beta     90
_cell_angle_gamma    120

_space_group_name_H-M_alt    "P 1"
_space_group_IT_number       1

loop_
  _space_group_symop_operation_xyz
  'x, y, z'

loop_
  _atom_site_type_symbol
  _atom_site_label
  _atom_site_symmetry_multiplicity
  _atom_site_fract_x
  _atom_site_fract_y
  _atom_site_fract_z
  _atom_site_occupancy
  Tl  Tl1       1.0  0.00000  0.00000  0.83330  1.0000
  Tl  Tl2       1.0  0.00000  0.00000  0.49997  1.0000
  Tl  Tl3       1.0  0.00000  0.00000  0.16663  1.0000
  Pt  Pt1       1.0  0.00000  0.00000  0.66670  1.0000
  Pt  Pt2       1.0  0.00000  0.00000  0.33337  1.0000
  Pt  Pt3       1.0  0.00000  0.00000  0.00003  1.0000
  C   C1        1.0  0.87960  0.03980  0.66330  1.0000
  C   C2        1.0  0.96020  0.83980  0.32997  1.0000
  C   C3        1.0  0.16020  0.12040  0.99663  1.0000
  C   C4        1.0  0.12040  0.96020  0.66330  1.0000
  C   C5        1.0  0.03980  0.16020  0.32997  1.0000
  C   C6        1.0  0.83980  0.87960  0.99663  1.0000
  C   C7        1.0  0.03980  0.87960  0.00337  1.0000
  C   C8        1.0  0.83980  0.96020  0.33670  1.0000
  C   C9        1.0  0.12040  0.16020  0.67003  1.0000
  C   C10       1.0  0.96020  0.12040  0.00337  1.0000
  C   C11       1.0  0.16020  0.03980  0.33670  1.0000
  C   C12       1.0  0.87960  0.83980  0.67003  1.0000
  C   C13       1.0  0.78910  0.99700  0.61680  1.0000
  C   C14       1.0  0.00300  0.79210  0.28347  1.0000
  C   C15       1.0  0.20790  0.21090  0.95013  1.0000
  C   C16       1.0  0.21090  0.00300  0.61680  1.0000
  C   C17       1.0  0.99700  0.20790  0.28347  1.0000
  C   C18       1.0  0.79210  0.78910  0.95013  1.0000
  C   C19       1.0  0.99700  0.78910  0.04987  1.0000
  C   C20       1.0  0.79210  0.00300  0.38320  1.0000
  C   C21       1.0  0.21090  0.20790  0.71653  1.0000
  C   C22       1.0  0.00300  0.21090  0.04987  1.0000
  C   C23       1.0  0.20790  0.99700  0.38320  1.0000
  C   C24       1.0  0.78910  0.79210  0.71653  1.0000
  C   C25       1.0  0.70630  0.02000  0.61650  1.0000
  C   C26       1.0  0.98000  0.68630  0.28317  1.0000
  C   C27       1.0  0.31370  0.29370  0.94983  1.0000
  C   C28       1.0  0.29370  0.98000  0.61650  1.0000
  C   C29       1.0  0.02000  0.31370  0.28317  1.0000
  C   C30       1.0  0.68630  0.70630  0.94983  1.0000
  C   C31       1.0  0.02000  0.70630  0.05017  1.0000
  C   C32       1.0  0.68630  0.98000  0.38350  1.0000
  C   C33       1.0  0.29370  0.31370  0.71683  1.0000
  C   C34       1.0  0.98000  0.29370  0.05017  1.0000
  C   C35       1.0  0.31370  0.02000  0.38350  1.0000
  C   C36       1.0  0.70630  0.68630  0.71683  1.0000
  C   C37       1.0  0.71240  0.09600  0.66530  1.0000
  C   C38       1.0  0.90400  0.61640  0.33197  1.0000
  C   C39       1.0  0.38360  0.28760  0.99863  1.0000
  C   C40       1.0  0.28760  0.90400  0.66530  1.0000
  C   C41       1.0  0.09600  0.38360  0.33197  1.0000
  C   C42       1.0  0.61640  0.71240  0.99863  1.0000
  C   C43       1.0  0.09600  0.71240  0.00137  1.0000
  C   C44       1.0  0.61640  0.90400  0.33470  1.0000
  C   C45       1.0  0.28760  0.38360  0.66803  1.0000
  C   C46       1.0  0.90400  0.28760  0.00137  1.0000
  C   C47       1.0  0.38360  0.09600  0.33470  1.0000
  C   C48       1.0  0.71240  0.61640  0.66803  1.0000
  C   C49       1.0  0.79700  0.14200  0.71380  1.0000
  C   C50       1.0  0.85800  0.65500  0.38047  1.0000
  C   C51       1.0  0.34500  0.20300  0.04713  1.0000
  C   C52       1.0  0.20300  0.85800  0.71380  1.0000
  C   C53       1.0  0.14200  0.34500  0.38047  1.0000
  C   C54       1.0  0.65500  0.79700  0.04713  1.0000
  C   C55       1.0  0.14200  0.79700  0.95287  1.0000
  C   C56       1.0  0.65500  0.85800  0.28620  1.0000
  C   C57       1.0  0.20300  0.34500  0.61953  1.0000
  C   C58       1.0  0.85800  0.20300  0.95287  1.0000
  C   C59       1.0  0.34500  0.14200  0.28620  1.0000
  C   C60       1.0  0.79700  0.65500  0.61953  1.0000
  C   C61       1.0  0.87360  0.11100  0.71470  1.0000
  C   C62       1.0  0.88900  0.76260  0.38137  1.0000
  C   C63       1.0  0.23740  0.12640  0.04803  1.0000
  C   C64       1.0  0.12640  0.88900  0.71470  1.0000
  C   C65       1.0  0.11100  0.23740  0.38137  1.0000
  C   C66       1.0  0.76260  0.87360  0.04803  1.0000
  C   C67       1.0  0.11100  0.87360  0.95197  1.0000
  C   C68       1.0  0.76260  0.88900  0.28530  1.0000
  C   C69       1.0  0.12640  0.23740  0.61863  1.0000
  C   C70       1.0  0.88900  0.12640  0.95197  1.0000
  C   C71       1.0  0.23740  0.11100  0.28530  1.0000
  C   C72       1.0  0.87360  0.76260  0.61863  1.0000
  F   F1        1.0  0.78520  0.92630  0.56690  1.0000
  F   F2        1.0  0.07370  0.85890  0.23357  1.0000
  F   F3        1.0  0.14110  0.21480  0.90023  1.0000
  F   F4        1.0  0.21480  0.07370  0.56690  1.0000
  F   F5        1.0  0.92630  0.14110  0.23357  1.0000
  F   F6        1.0  0.85890  0.78520  0.90023  1.0000
  F   F7        1.0  0.92630  0.78520  0.09977  1.0000
  F   F8        1.0  0.85890  0.07370  0.43310  1.0000
  F   F9        1.0  0.21480  0.14110  0.76643  1.0000
  F   F10       1.0  0.07370  0.21480  0.09977  1.0000
  F   F11       1.0  0.14110  0.92630  0.43310  1.0000
  F   F12       1.0  0.78520  0.85890  0.76643  1.0000
  F   F13       1.0  0.62420  0.96450  0.56800  1.0000
  F   F14       1.0  0.03550  0.65970  0.23467  1.0000
  F   F15       1.0  0.34030  0.37580  0.90133  1.0000
  F   F16       1.0  0.37580  0.03550  0.56800  1.0000
  F   F17       1.0  0.96450  0.34030  0.23467  1.0000
  F   F18       1.0  0.65970  0.62420  0.90133  1.0000
  F   F19       1.0  0.96450  0.62420  0.09867  1.0000
  F   F20       1.0  0.65970  0.03550  0.43200  1.0000
  F   F21       1.0  0.37580  0.34030  0.76533  1.0000
  F   F22       1.0  0.03550  0.37580  0.09867  1.0000
  F   F23       1.0  0.34030  0.96450  0.43200  1.0000
  F   F24       1.0  0.62420  0.65970  0.76533  1.0000
  F   F25       1.0  0.62830  0.11600  0.66920  1.0000
  F   F26       1.0  0.88400  0.51230  0.33587  1.0000
  F   F27       1.0  0.48770  0.37170  0.00253  1.0000
  F   F28       1.0  0.37170  0.88400  0.66920  1.0000
  F   F29       1.0  0.11600  0.48770  0.33587  1.0000
  F   F30       1.0  0.51230  0.62830  0.00253  1.0000
  F   F31       1.0  0.11600  0.62830  0.99747  1.0000
  F   F32       1.0  0.51230  0.88400  0.33080  1.0000
  F   F33       1.0  0.37170  0.48770  0.66413  1.0000
  F   F34       1.0  0.88400  0.37170  0.99747  1.0000
  F   F35       1.0  0.48770  0.11600  0.33080  1.0000
  F   F36       1.0  0.62830  0.51230  0.66413  1.0000
  F   F37       1.0  0.79730  0.21420  0.76360  1.0000
  F   F38       1.0  0.78580  0.58310  0.43027  1.0000
  F   F39       1.0  0.41690  0.20270  0.09693  1.0000
  F   F40       1.0  0.20270  0.78580  0.76360  1.0000
  F   F41       1.0  0.21420  0.41690  0.43027  1.0000
  F   F42       1.0  0.58310  0.79730  0.09693  1.0000
  F   F43       1.0  0.21420  0.79730  0.90307  1.0000
  F   F44       1.0  0.58310  0.78580  0.23640  1.0000
  F   F45       1.0  0.20270  0.41690  0.56973  1.0000
  F   F46       1.0  0.78580  0.20270  0.90307  1.0000
  F   F47       1.0  0.41690  0.21420  0.23640  1.0000
  F   F48       1.0  0.79730  0.58310  0.56973  1.0000
  F   F49       1.0  0.95430  0.16570  0.76480  1.0000
  F   F50       1.0  0.83430  0.78860  0.43147  1.0000
  F   F51       1.0  0.21140  0.04570  0.09813  1.0000
  F   F52       1.0  0.04570  0.83430  0.76480  1.0000
  F   F53       1.0  0.16570  0.21140  0.43147  1.0000
  F   F54       1.0  0.78860  0.95430  0.09813  1.0000
  F   F55       1.0  0.16570  0.95430  0.90187  1.0000
  F   F56       1.0  0.78860  0.83430  0.23520  1.0000
  F   F57       1.0  0.04570  0.21140  0.56853  1.0000
  F   F58       1.0  0.83430  0.04570  0.90187  1.0000
  F   F59       1.0  0.21140  0.16570  0.23520  1.0000
  F   F60       1.0  0.95430  0.78860  0.56853  1.0000
