data_image0
_chemical_formula_structural       Pt4Tl4C96F80
_chemical_formula_sum              "Pt4 Tl4 C96 F80"
_cell_length_a       12.6668
_cell_length_b       14.2938
_cell_length_c       35.0539
_cell_angle_alpha    90
_cell_angle_beta     90
_cell_angle_gamma    90

_space_group_name_H-M_alt    "P 1"
_space_group_IT_number       1

loop_
  _space_group_symop_operation_xyz
  'x, y, z'

loop_
  _atom_site_type_symbol
  _atom_site_label
  _atom_site_symmetry_multiplicity
  _atom_site_fract_x
  _atom_site_fract_y
  _atom_site_fract_z
  _atom_site_occupancy
  Pt  Pt1       1.0  0.61797  0.00000  0.25000  1.0000
  Pt  Pt2       1.0  0.88203  0.00000  0.75000  1.0000
  Pt  Pt3       1.0  0.38203  0.00000  0.75000  1.0000
  Pt  Pt4       1.0  0.11797  0.00000  0.25000  1.0000
  Tl  Tl1       1.0  0.87301  0.00000  0.25000  1.0000
  Tl  Tl2       1.0  0.62699  0.00000  0.75000  1.0000
  Tl  Tl3       1.0  0.12699  0.00000  0.75000  1.0000
  Tl  Tl4       1.0  0.37301  0.00000  0.25000  1.0000
  C   C1        1.0  0.62020  0.02830  0.19190  1.0000
  C   C2        1.0  0.87980  0.97170  0.69190  1.0000
  C   C3        1.0  0.62020  0.97170  0.30810  1.0000
  C   C4        1.0  0.87980  0.02830  0.80810  1.0000
  C   C5        1.0  0.37980  0.97170  0.80810  1.0000
  C   C6        1.0  0.12020  0.02830  0.30810  1.0000
  C   C7        1.0  0.37980  0.02830  0.69190  1.0000
  C   C8        1.0  0.12020  0.97170  0.19190  1.0000
  C   C9        1.0  0.69350  0.08400  0.17440  1.0000
  C   C10       1.0  0.80650  0.91600  0.67440  1.0000
  C   C11       1.0  0.69350  0.91600  0.32560  1.0000
  C   C12       1.0  0.80650  0.08400  0.82560  1.0000
  C   C13       1.0  0.30650  0.91600  0.82560  1.0000
  C   C14       1.0  0.19350  0.08400  0.32560  1.0000
  C   C15       1.0  0.30650  0.08400  0.67440  1.0000
  C   C16       1.0  0.19350  0.91600  0.17440  1.0000
  C   C17       1.0  0.70000  0.09970  0.13580  1.0000
  C   C18       1.0  0.80000  0.90030  0.63580  1.0000
  C   C19       1.0  0.70000  0.90030  0.36420  1.0000
  C   C20       1.0  0.80000  0.09970  0.86420  1.0000
  C   C21       1.0  0.30000  0.90030  0.86420  1.0000
  C   C22       1.0  0.20000  0.09970  0.36420  1.0000
  C   C23       1.0  0.30000  0.09970  0.63580  1.0000
  C   C24       1.0  0.20000  0.90030  0.13580  1.0000
  C   C25       1.0  0.62690  0.05800  0.11230  1.0000
  C   C26       1.0  0.87310  0.94200  0.61230  1.0000
  C   C27       1.0  0.62690  0.94200  0.38770  1.0000
  C   C28       1.0  0.87310  0.05800  0.88770  1.0000
  C   C29       1.0  0.37310  0.94200  0.88770  1.0000
  C   C30       1.0  0.12690  0.05800  0.38770  1.0000
  C   C31       1.0  0.37310  0.05800  0.61230  1.0000
  C   C32       1.0  0.12690  0.94200  0.11230  1.0000
  C   C33       1.0  0.54880  0.00160  0.12760  1.0000
  C   C34       1.0  0.95120  0.99840  0.62760  1.0000
  C   C35       1.0  0.54880  0.99840  0.37240  1.0000
  C   C36       1.0  0.95120  0.00160  0.87240  1.0000
  C   C37       1.0  0.45120  0.99840  0.87240  1.0000
  C   C38       1.0  0.04880  0.00160  0.37240  1.0000
  C   C39       1.0  0.45120  0.00160  0.62760  1.0000
  C   C40       1.0  0.04880  0.99840  0.12760  1.0000
  C   C41       1.0  0.54900  0.98800  0.16660  1.0000
  C   C42       1.0  0.95100  0.01200  0.66660  1.0000
  C   C43       1.0  0.54900  0.01200  0.33340  1.0000
  C   C44       1.0  0.95100  0.98800  0.83340  1.0000
  C   C45       1.0  0.45100  0.01200  0.83340  1.0000
  C   C46       1.0  0.04900  0.98800  0.33340  1.0000
  C   C47       1.0  0.45100  0.98800  0.66660  1.0000
  C   C48       1.0  0.04900  0.01200  0.16660  1.0000
  C   C49       1.0  0.61910  0.14200  0.26110  1.0000
  C   C50       1.0  0.88090  0.85800  0.76110  1.0000
  C   C51       1.0  0.61910  0.85800  0.23890  1.0000
  C   C52       1.0  0.88090  0.14200  0.73890  1.0000
  C   C53       1.0  0.38090  0.85800  0.73890  1.0000
  C   C54       1.0  0.11910  0.14200  0.23890  1.0000
  C   C55       1.0  0.38090  0.14200  0.76110  1.0000
  C   C56       1.0  0.11910  0.85800  0.26110  1.0000
  C   C57       1.0  0.54820  0.20690  0.24410  1.0000
  C   C58       1.0  0.95180  0.79310  0.74410  1.0000
  C   C59       1.0  0.54820  0.79310  0.25590  1.0000
  C   C60       1.0  0.95180  0.20690  0.75590  1.0000
  C   C61       1.0  0.45180  0.79310  0.75590  1.0000
  C   C62       1.0  0.04820  0.20690  0.25590  1.0000
  C   C63       1.0  0.45180  0.20690  0.74410  1.0000
  C   C64       1.0  0.04820  0.79310  0.24410  1.0000
  C   C65       1.0  0.54890  0.30100  0.24930  1.0000
  C   C66       1.0  0.95110  0.69900  0.74930  1.0000
  C   C67       1.0  0.54890  0.69900  0.25070  1.0000
  C   C68       1.0  0.95110  0.30100  0.75070  1.0000
  C   C69       1.0  0.45110  0.69900  0.75070  1.0000
  C   C70       1.0  0.04890  0.30100  0.25070  1.0000
  C   C71       1.0  0.45110  0.30100  0.74930  1.0000
  C   C72       1.0  0.04890  0.69900  0.24930  1.0000
  C   C73       1.0  0.61970  0.33790  0.27590  1.0000
  C   C74       1.0  0.88030  0.66210  0.77590  1.0000
  C   C75       1.0  0.61970  0.66210  0.22410  1.0000
  C   C76       1.0  0.88030  0.33790  0.72410  1.0000
  C   C77       1.0  0.38030  0.66210  0.72410  1.0000
  C   C78       1.0  0.11970  0.33790  0.22410  1.0000
  C   C79       1.0  0.38030  0.33790  0.77590  1.0000
  C   C80       1.0  0.11970  0.66210  0.27590  1.0000
  C   C81       1.0  0.69010  0.28000  0.29230  1.0000
  C   C82       1.0  0.80990  0.72000  0.79230  1.0000
  C   C83       1.0  0.69010  0.72000  0.20770  1.0000
  C   C84       1.0  0.80990  0.28000  0.70770  1.0000
  C   C85       1.0  0.30990  0.72000  0.70770  1.0000
  C   C86       1.0  0.19010  0.28000  0.20770  1.0000
  C   C87       1.0  0.30990  0.28000  0.79230  1.0000
  C   C88       1.0  0.19010  0.72000  0.29230  1.0000
  C   C89       1.0  0.68910  0.18460  0.28510  1.0000
  C   C90       1.0  0.81090  0.81540  0.78510  1.0000
  C   C91       1.0  0.68910  0.81540  0.21490  1.0000
  C   C92       1.0  0.81090  0.18460  0.71490  1.0000
  C   C93       1.0  0.31090  0.81540  0.71490  1.0000
  C   C94       1.0  0.18910  0.18460  0.21490  1.0000
  C   C95       1.0  0.31090  0.18460  0.78510  1.0000
  C   C96       1.0  0.18910  0.81540  0.28510  1.0000
  F   F1        1.0  0.76720  0.12940  0.19573  1.0000
  F   F2        1.0  0.73280  0.87060  0.69573  1.0000
  F   F3        1.0  0.76720  0.87060  0.30427  1.0000
  F   F4        1.0  0.73280  0.12940  0.80427  1.0000
  F   F5        1.0  0.23280  0.87060  0.80427  1.0000
  F   F6        1.0  0.26720  0.12940  0.30427  1.0000
  F   F7        1.0  0.23280  0.12940  0.69573  1.0000
  F   F8        1.0  0.26720  0.87060  0.19573  1.0000
  F   F9        1.0  0.77540  0.15430  0.12091  1.0000
  F   F10       1.0  0.72460  0.84570  0.62091  1.0000
  F   F11       1.0  0.77540  0.84570  0.37909  1.0000
  F   F12       1.0  0.72460  0.15430  0.87909  1.0000
  F   F13       1.0  0.22460  0.84570  0.87909  1.0000
  F   F14       1.0  0.27540  0.15430  0.37909  1.0000
  F   F15       1.0  0.22460  0.15430  0.62091  1.0000
  F   F16       1.0  0.27540  0.84570  0.12091  1.0000
  F   F17       1.0  0.63100  0.07290  0.07381  1.0000
  F   F18       1.0  0.86900  0.92710  0.57381  1.0000
  F   F19       1.0  0.63100  0.92710  0.42619  1.0000
  F   F20       1.0  0.86900  0.07290  0.92619  1.0000
  F   F21       1.0  0.36900  0.92710  0.92619  1.0000
  F   F22       1.0  0.13100  0.07290  0.42619  1.0000
  F   F23       1.0  0.36900  0.07290  0.57381  1.0000
  F   F24       1.0  0.13100  0.92710  0.07381  1.0000
  F   F25       1.0  0.47770  0.96210  0.10456  1.0000
  F   F26       1.0  0.02230  0.03790  0.60456  1.0000
  F   F27       1.0  0.47770  0.03790  0.39544  1.0000
  F   F28       1.0  0.02230  0.96210  0.89544  1.0000
  F   F29       1.0  0.52230  0.03790  0.89544  1.0000
  F   F30       1.0  0.97770  0.96210  0.39544  1.0000
  F   F31       1.0  0.52230  0.96210  0.60456  1.0000
  F   F32       1.0  0.97770  0.03790  0.10456  1.0000
  F   F33       1.0  0.47030  0.93010  0.17853  1.0000
  F   F34       1.0  0.02970  0.06990  0.67853  1.0000
  F   F35       1.0  0.47030  0.06990  0.32147  1.0000
  F   F36       1.0  0.02970  0.93010  0.82147  1.0000
  F   F37       1.0  0.52970  0.06990  0.82147  1.0000
  F   F38       1.0  0.97030  0.93010  0.32147  1.0000
  F   F39       1.0  0.52970  0.93010  0.67853  1.0000
  F   F40       1.0  0.97030  0.06990  0.17853  1.0000
  F   F41       1.0  0.47400  0.17360  0.21908  1.0000
  F   F42       1.0  0.02600  0.82640  0.71908  1.0000
  F   F43       1.0  0.47400  0.82640  0.28092  1.0000
  F   F44       1.0  0.02600  0.17360  0.78092  1.0000
  F   F45       1.0  0.52600  0.82640  0.78092  1.0000
  F   F46       1.0  0.97400  0.17360  0.28092  1.0000
  F   F47       1.0  0.52600  0.17360  0.71908  1.0000
  F   F48       1.0  0.97400  0.82640  0.21908  1.0000
  F   F49       1.0  0.48110  0.35660  0.23150  1.0000
  F   F50       1.0  0.01890  0.64340  0.73150  1.0000
  F   F51       1.0  0.48110  0.64340  0.26850  1.0000
  F   F52       1.0  0.01890  0.35660  0.76850  1.0000
  F   F53       1.0  0.51890  0.64340  0.76850  1.0000
  F   F54       1.0  0.98110  0.35660  0.26850  1.0000
  F   F55       1.0  0.51890  0.35660  0.73150  1.0000
  F   F56       1.0  0.98110  0.64340  0.23150  1.0000
  F   F57       1.0  0.61980  0.43170  0.28290  1.0000
  F   F58       1.0  0.88020  0.56830  0.78290  1.0000
  F   F59       1.0  0.61980  0.56830  0.21710  1.0000
  F   F60       1.0  0.88020  0.43170  0.71710  1.0000
  F   F61       1.0  0.38020  0.56830  0.71710  1.0000
  F   F62       1.0  0.11980  0.43170  0.21710  1.0000
  F   F63       1.0  0.38020  0.43170  0.78290  1.0000
  F   F64       1.0  0.11980  0.56830  0.28290  1.0000
  F   F65       1.0  0.76120  0.31580  0.31790  1.0000
  F   F66       1.0  0.73880  0.68420  0.81790  1.0000
  F   F67       1.0  0.76120  0.68420  0.18210  1.0000
  F   F68       1.0  0.73880  0.31580  0.68210  1.0000
  F   F69       1.0  0.23880  0.68420  0.68210  1.0000
  F   F70       1.0  0.26120  0.31580  0.18210  1.0000
  F   F71       1.0  0.23880  0.31580  0.81790  1.0000
  F   F72       1.0  0.26120  0.68420  0.31790  1.0000
  F   F73       1.0  0.76140  0.13490  0.30446  1.0000
  F   F74       1.0  0.73860  0.86510  0.80446  1.0000
  F   F75       1.0  0.76140  0.86510  0.19554  1.0000
  F   F76       1.0  0.73860  0.13490  0.69554  1.0000
  F   F77       1.0  0.23860  0.86510  0.69554  1.0000
  F   F78       1.0  0.26140  0.13490  0.19554  1.0000
  F   F79       1.0  0.23860  0.13490  0.80446  1.0000
  F   F80       1.0  0.26140  0.86510  0.30446  1.0000
