data_image0
_chemical_formula_structural       Zn10P2H2P2H2P2H2P2H2P2H2P2H2O36N2H2C2H4C2H4N2H2C2H4C2H4
_chemical_formula_sum              "Zn10 P12 H32 O36 N4 C8"
_cell_length_a       8.8634
_cell_length_b       12.639
_cell_length_c       12.8768
_cell_angle_alpha    89.182
_cell_angle_beta     89.913
_cell_angle_gamma    86.941

_space_group_name_H-M_alt    "P 1"
_space_group_IT_number       1

loop_
  _space_group_symop_operation_xyz
  'x, y, z'

loop_
  _atom_site_type_symbol
  _atom_site_label
  _atom_site_symmetry_multiplicity
  _atom_site_fract_x
  _atom_site_fract_y
  _atom_site_fract_z
  _atom_site_occupancy
  Zn  Zn1       1.0  0.58057  0.60145  0.61549  1.0000
  Zn  Zn2       1.0  0.41943  0.39855  0.38451  1.0000
  Zn  Zn3       1.0  0.05294  0.60445  0.88464  1.0000
  Zn  Zn4       1.0  0.94706  0.39555  0.11536  1.0000
  Zn  Zn5       1.0  0.24296  0.77118  0.24707  1.0000
  Zn  Zn6       1.0  0.75704  0.22882  0.75293  1.0000
  Zn  Zn7       1.0  0.66727  0.91001  0.90014  1.0000
  Zn  Zn8       1.0  0.33273  0.08999  0.09986  1.0000
  Zn  Zn9       1.0  0.16639  0.88420  0.56085  1.0000
  Zn  Zn10      1.0  0.83361  0.11580  0.43915  1.0000
  P   P1        1.0  0.29585  0.71177  0.72813  1.0000
  P   P2        1.0  0.70415  0.28823  0.27187  1.0000
  H   H1        1.0  0.38310  0.79000  0.74970  1.0000
  H   H2        1.0  0.61690  0.21000  0.25030  1.0000
  P   P3        1.0  0.80154  0.73085  0.75991  1.0000
  P   P4        1.0  0.19846  0.26915  0.24009  1.0000
  H   H3        1.0  0.91440  0.78290  0.72100  1.0000
  H   H4        1.0  0.08560  0.21710  0.27900  1.0000
  P   P5        1.0  0.98172  0.90421  0.34188  1.0000
  P   P6        1.0  0.01828  0.09579  0.65812  1.0000
  H   H5        1.0  0.87610  0.84250  0.30990  1.0000
  H   H6        1.0  0.12390  0.15750  0.69010  1.0000
  P   P7        1.0  0.98326  0.37003  0.86947  1.0000
  P   P8        1.0  0.01674  0.62997  0.13053  1.0000
  H   H7        1.0  0.07040  0.28320  0.88440  1.0000
  H   H8        1.0  0.92960  0.71680  0.11560  1.0000
  P   P9        1.0  0.52126  0.86170  0.12484  1.0000
  P   P10       1.0  0.47874  0.13830  0.87516  1.0000
  H   H9        1.0  0.61730  0.83370  0.19980  1.0000
  H   H10       1.0  0.38270  0.16630  0.80020  1.0000
  P   P11       1.0  0.46814  0.64801  0.39083  1.0000
  P   P12       1.0  0.53186  0.35199  0.60917  1.0000
  H   H11       1.0  0.55020  0.63200  0.30630  1.0000
  H   H12       1.0  0.44980  0.36800  0.69370  1.0000
  O   O1        1.0  0.19440  0.74930  0.63750  1.0000
  O   O2        1.0  0.80560  0.25070  0.36250  1.0000
  O   O3        1.0  0.21100  0.68600  0.82640  1.0000
  O   O4        1.0  0.78900  0.31400  0.17360  1.0000
  O   O5        1.0  0.39890  0.61810  0.69640  1.0000
  O   O6        1.0  0.60110  0.38190  0.30360  1.0000
  O   O7        1.0  0.67620  0.81290  0.78580  1.0000
  O   O8        1.0  0.32380  0.18710  0.21420  1.0000
  O   O9        1.0  0.75630  0.65490  0.67850  1.0000
  O   O10       1.0  0.24370  0.34510  0.32150  1.0000
  O   O11       1.0  0.86010  0.67400  0.85730  1.0000
  O   O12       1.0  0.13990  0.32600  0.14270  1.0000
  O   O13       1.0  0.91080  0.01500  0.33980  1.0000
  O   O14       1.0  0.08920  0.98500  0.66020  1.0000
  O   O15       1.0  0.10710  0.89530  0.26080  1.0000
  O   O16       1.0  0.89290  0.10470  0.73920  1.0000
  O   O17       1.0  0.03010  0.86160  0.44790  1.0000
  O   O18       1.0  0.96990  0.13840  0.55210  1.0000
  O   O19       1.0  0.39020  0.78810  0.13580  1.0000
  O   O20       1.0  0.60980  0.21190  0.86420  1.0000
  O   O21       1.0  0.47510  0.97630  0.14260  1.0000
  O   O22       1.0  0.52490  0.02370  0.85740  1.0000
  O   O23       1.0  0.60260  0.83800  0.02510  1.0000
  O   O24       1.0  0.39740  0.16200  0.97490  1.0000
  O   O25       1.0  0.08630  0.45830  0.84350  1.0000
  O   O26       1.0  0.91370  0.54170  0.15650  1.0000
  O   O27       1.0  0.87770  0.34860  0.78000  1.0000
  O   O28       1.0  0.12230  0.65140  0.22000  1.0000
  O   O29       1.0  0.89330  0.38870  0.96910  1.0000
  O   O30       1.0  0.10670  0.61130  0.03090  1.0000
  O   O31       1.0  0.57660  0.66630  0.47850  1.0000
  O   O32       1.0  0.42340  0.33370  0.52150  1.0000
  O   O33       1.0  0.37510  0.55040  0.40670  1.0000
  O   O34       1.0  0.62490  0.44960  0.59330  1.0000
  O   O35       1.0  0.36520  0.74580  0.37040  1.0000
  O   O36       1.0  0.63480  0.25420  0.62960  1.0000
  N   N1        1.0  0.86610  0.97900  0.93650  1.0000
  N   N2        1.0  0.13390  0.02100  0.06350  1.0000
  H   H13       1.0  0.87930  0.03000  0.88720  1.0000
  H   H14       1.0  0.12070  0.97000  0.11280  1.0000
  C   C1        1.0  0.00530  0.90830  0.93570  1.0000
  C   C2        1.0  0.99470  0.09170  0.06430  1.0000
  H   H15       1.0  0.01760  0.87760  0.86740  1.0000
  H   H16       1.0  0.98240  0.12240  0.13260  1.0000
  H   H17       1.0  0.99410  0.85080  0.98530  1.0000
  H   H18       1.0  0.00590  0.14920  0.01470  1.0000
  C   C3        1.0  0.85370  0.03440  0.03770  1.0000
  C   C4        1.0  0.14630  0.96560  0.96230  1.0000
  H   H19       1.0  0.83510  0.98290  0.09230  1.0000
  H   H20       1.0  0.16490  0.01710  0.90770  1.0000
  H   H21       1.0  0.76780  0.08520  0.03530  1.0000
  H   H22       1.0  0.23220  0.91480  0.96470  1.0000
  N   N3        1.0  0.37100  0.93060  0.50950  1.0000
  N   N4        1.0  0.62900  0.06940  0.49050  1.0000
  H   H23       1.0  0.40570  0.88060  0.46390  1.0000
  H   H24       1.0  0.59430  0.11940  0.53610  1.0000
  C   C5        1.0  0.48720  0.93530  0.59030  1.0000
  C   C6        1.0  0.51280  0.06470  0.40970  1.0000
  H   H25       1.0  0.45220  0.98570  0.64230  1.0000
  H   H26       1.0  0.54780  0.01430  0.35770  1.0000
  H   H27       1.0  0.50020  0.86640  0.62410  1.0000
  H   H28       1.0  0.49980  0.13360  0.37590  1.0000
  C   C7        1.0  0.36030  0.03280  0.45070  1.0000
  C   C8        1.0  0.63970  0.96720  0.54930  1.0000
  H   H29       1.0  0.29160  0.02680  0.39280  1.0000
  H   H30       1.0  0.70840  0.97320  0.60720  1.0000
  H   H31       1.0  0.31860  0.08790  0.49560  1.0000
  H   H32       1.0  0.68140  0.91210  0.50440  1.0000
