data_image0
_chemical_formula_structural       Cd2O4H8C20N4C4N4C8N4C4N4C8N4C4N4
_chemical_formula_sum              "Cd2 O4 H8 C48 N24"
_cell_length_a       10.9169
_cell_length_b       19.1132
_cell_length_c       14.0349
_cell_angle_alpha    90
_cell_angle_beta     93.681
_cell_angle_gamma    90

_space_group_name_H-M_alt    "P 1"
_space_group_IT_number       1

loop_
  _space_group_symop_operation_xyz
  'x, y, z'

loop_
  _atom_site_type_symbol
  _atom_site_label
  _atom_site_symmetry_multiplicity
  _atom_site_fract_x
  _atom_site_fract_y
  _atom_site_fract_z
  _atom_site_occupancy
  Cd  Cd1       1.0  0.00000  0.50000  0.00000  1.0000
  Cd  Cd2       1.0  0.00000  0.00000  0.50000  1.0000
  O   O1        1.0  0.82015  0.56269  0.00747  1.0000
  O   O2        1.0  0.17985  0.06269  0.49253  1.0000
  O   O3        1.0  0.17985  0.43731  0.99253  1.0000
  O   O4        1.0  0.82015  0.93731  0.50747  1.0000
  H   H1        1.0  0.80900  0.58000  0.06150  1.0000
  H   H2        1.0  0.19100  0.08000  0.43850  1.0000
  H   H3        1.0  0.19100  0.42000  0.93850  1.0000
  H   H4        1.0  0.80900  0.92000  0.56150  1.0000
  H   H5        1.0  0.81800  0.59750  0.96940  1.0000
  H   H6        1.0  0.18200  0.09750  0.53060  1.0000
  H   H7        1.0  0.18200  0.40250  0.03060  1.0000
  H   H8        1.0  0.81800  0.90250  0.46940  1.0000
  C   C1        1.0  0.10113  0.76859  0.13700  1.0000
  C   C2        1.0  0.89887  0.26859  0.36300  1.0000
  C   C3        1.0  0.89887  0.23141  0.86300  1.0000
  C   C4        1.0  0.10113  0.73141  0.63700  1.0000
  C   C5        1.0  0.09442  0.82967  0.18929  1.0000
  C   C6        1.0  0.90558  0.32967  0.31071  1.0000
  C   C7        1.0  0.90558  0.17033  0.81071  1.0000
  C   C8        1.0  0.09442  0.67033  0.68929  1.0000
  C   C9        1.0  0.01302  0.77538  0.20296  1.0000
  C   C10       1.0  0.98698  0.27538  0.29704  1.0000
  C   C11       1.0  0.98698  0.22462  0.79704  1.0000
  C   C12       1.0  0.01302  0.72462  0.70296  1.0000
  C   C13       1.0  0.15521  0.72838  0.06725  1.0000
  C   C14       1.0  0.84479  0.22838  0.43275  1.0000
  C   C15       1.0  0.84479  0.27162  0.93275  1.0000
  C   C16       1.0  0.15521  0.77162  0.56725  1.0000
  C   C17       1.0  0.12570  0.65696  0.05890  1.0000
  C   C18       1.0  0.87430  0.15696  0.44110  1.0000
  C   C19       1.0  0.87430  0.34304  0.94110  1.0000
  C   C20       1.0  0.12570  0.84304  0.55890  1.0000
  N   N1        1.0  0.10412  0.59803  0.05637  1.0000
  N   N2        1.0  0.89588  0.09803  0.44363  1.0000
  N   N3        1.0  0.89588  0.40197  0.94363  1.0000
  N   N4        1.0  0.10412  0.90197  0.55637  1.0000
  C   C21       1.0  0.24342  0.75781  0.00908  1.0000
  C   C22       1.0  0.75658  0.25781  0.49092  1.0000
  C   C23       1.0  0.75658  0.24219  0.99092  1.0000
  C   C24       1.0  0.24342  0.74219  0.50908  1.0000
  N   N5        1.0  0.31380  0.78314  0.96212  1.0000
  N   N6        1.0  0.68620  0.28314  0.53788  1.0000
  N   N7        1.0  0.68620  0.21686  0.03788  1.0000
  N   N8        1.0  0.31380  0.71686  0.46212  1.0000
  C   C25       1.0  0.13416  0.89785  0.21190  1.0000
  C   C26       1.0  0.86584  0.39785  0.28810  1.0000
  C   C27       1.0  0.86584  0.10215  0.78810  1.0000
  C   C28       1.0  0.13416  0.60215  0.71190  1.0000
  C   C29       1.0  0.08130  0.93385  0.28700  1.0000
  C   C30       1.0  0.91870  0.43385  0.21300  1.0000
  C   C31       1.0  0.91870  0.06615  0.71300  1.0000
  C   C32       1.0  0.08130  0.56615  0.78700  1.0000
  N   N9        1.0  0.03522  0.96191  0.34777  1.0000
  N   N10       1.0  0.96478  0.46191  0.15223  1.0000
  N   N11       1.0  0.96478  0.03809  0.65223  1.0000
  N   N12       1.0  0.03522  0.53809  0.84777  1.0000
  C   C33       1.0  0.22630  0.93140  0.16116  1.0000
  C   C34       1.0  0.77370  0.43140  0.33884  1.0000
  C   C35       1.0  0.77370  0.06860  0.83884  1.0000
  C   C36       1.0  0.22630  0.56860  0.66116  1.0000
  N   N13       1.0  0.29918  0.95866  0.11869  1.0000
  N   N14       1.0  0.70082  0.45866  0.38131  1.0000
  N   N15       1.0  0.70082  0.04134  0.88131  1.0000
  N   N16       1.0  0.29918  0.54134  0.61869  1.0000
  C   C37       1.0  0.91142  0.74963  0.24738  1.0000
  C   C38       1.0  0.08858  0.24963  0.25262  1.0000
  C   C39       1.0  0.08858  0.25037  0.75262  1.0000
  C   C40       1.0  0.91142  0.75037  0.74738  1.0000
  C   C41       1.0  0.85555  0.68570  0.21637  1.0000
  C   C42       1.0  0.14445  0.18570  0.28363  1.0000
  C   C43       1.0  0.14445  0.31430  0.78363  1.0000
  C   C44       1.0  0.85555  0.81430  0.71637  1.0000
  N   N17       1.0  0.81270  0.63416  0.18845  1.0000
  N   N18       1.0  0.18730  0.13416  0.31155  1.0000
  N   N19       1.0  0.18730  0.36584  0.81155  1.0000
  N   N20       1.0  0.81270  0.86584  0.68845  1.0000
  C   C45       1.0  0.85658  0.79174  0.31557  1.0000
  C   C46       1.0  0.14342  0.29174  0.18443  1.0000
  C   C47       1.0  0.14342  0.20826  0.68443  1.0000
  C   C48       1.0  0.85658  0.70826  0.81557  1.0000
  N   N21       1.0  0.81529  0.82901  0.36949  1.0000
  N   N22       1.0  0.18471  0.32901  0.13051  1.0000
  N   N23       1.0  0.18471  0.17099  0.63051  1.0000
  N   N24       1.0  0.81529  0.67099  0.86949  1.0000
