data_image0
_chemical_formula_structural       Mn2O4H8C20N4C4N4C8N4C4N4C8N4C4N4
_chemical_formula_sum              "Mn2 O4 H8 C48 N24"
_cell_length_a       10.9297
_cell_length_b       18.972
_cell_length_c       13.9619
_cell_angle_alpha    90
_cell_angle_beta     93.571
_cell_angle_gamma    90

_space_group_name_H-M_alt    "P 1"
_space_group_IT_number       1

loop_
  _space_group_symop_operation_xyz
  'x, y, z'

loop_
  _atom_site_type_symbol
  _atom_site_label
  _atom_site_symmetry_multiplicity
  _atom_site_fract_x
  _atom_site_fract_y
  _atom_site_fract_z
  _atom_site_occupancy
  Mn  Mn1       1.0  0.00000  0.50000  0.00000  1.0000
  Mn  Mn2       1.0  0.00000  0.00000  0.50000  1.0000
  O   O1        1.0  0.82838  0.55968  0.00684  1.0000
  O   O2        1.0  0.17162  0.05968  0.49316  1.0000
  O   O3        1.0  0.17162  0.44032  0.99316  1.0000
  O   O4        1.0  0.82838  0.94032  0.50684  1.0000
  H   H1        1.0  0.81400  0.57680  0.06160  1.0000
  H   H2        1.0  0.18600  0.07680  0.43840  1.0000
  H   H3        1.0  0.18600  0.42320  0.93840  1.0000
  H   H4        1.0  0.81400  0.92320  0.56160  1.0000
  H   H5        1.0  0.81900  0.59480  0.96860  1.0000
  H   H6        1.0  0.18100  0.09480  0.53140  1.0000
  H   H7        1.0  0.18100  0.40520  0.03140  1.0000
  H   H8        1.0  0.81900  0.90520  0.46860  1.0000
  C   C1        1.0  0.09730  0.76776  0.13843  1.0000
  C   C2        1.0  0.90270  0.26776  0.36157  1.0000
  C   C3        1.0  0.90270  0.23224  0.86157  1.0000
  C   C4        1.0  0.09730  0.73224  0.63843  1.0000
  C   C5        1.0  0.09019  0.82878  0.19170  1.0000
  C   C6        1.0  0.90981  0.32878  0.30830  1.0000
  C   C7        1.0  0.90981  0.17122  0.80830  1.0000
  C   C8        1.0  0.09019  0.67122  0.69170  1.0000
  C   C9        1.0  0.00873  0.77424  0.20465  1.0000
  C   C10       1.0  0.99127  0.27424  0.29535  1.0000
  C   C11       1.0  0.99127  0.22576  0.79535  1.0000
  C   C12       1.0  0.00873  0.72576  0.70465  1.0000
  C   C13       1.0  0.15174  0.72712  0.06829  1.0000
  C   C14       1.0  0.84826  0.22712  0.43171  1.0000
  C   C15       1.0  0.84826  0.27288  0.93171  1.0000
  C   C16       1.0  0.15174  0.77288  0.56829  1.0000
  C   C17       1.0  0.12110  0.65535  0.05876  1.0000
  C   C18       1.0  0.87890  0.15535  0.44124  1.0000
  C   C19       1.0  0.87890  0.34465  0.94124  1.0000
  C   C20       1.0  0.12110  0.84465  0.55876  1.0000
  N   N1        1.0  0.09786  0.59588  0.05455  1.0000
  N   N2        1.0  0.90214  0.09588  0.44545  1.0000
  N   N3        1.0  0.90214  0.40412  0.94545  1.0000
  N   N4        1.0  0.09786  0.90412  0.55455  1.0000
  C   C21       1.0  0.24021  0.75661  0.01014  1.0000
  C   C22       1.0  0.75979  0.25661  0.48986  1.0000
  C   C23       1.0  0.75979  0.24339  0.98986  1.0000
  C   C24       1.0  0.24021  0.74339  0.51014  1.0000
  N   N5        1.0  0.31099  0.78226  0.96347  1.0000
  N   N6        1.0  0.68901  0.28226  0.53653  1.0000
  N   N7        1.0  0.68901  0.21774  0.03653  1.0000
  N   N8        1.0  0.31099  0.71774  0.46347  1.0000
  C   C25       1.0  0.13041  0.89731  0.21509  1.0000
  C   C26       1.0  0.86959  0.39731  0.28491  1.0000
  C   C27       1.0  0.86959  0.10269  0.78491  1.0000
  C   C28       1.0  0.13041  0.60269  0.71509  1.0000
  C   C29       1.0  0.07827  0.93368  0.29093  1.0000
  C   C30       1.0  0.92173  0.43368  0.20907  1.0000
  C   C31       1.0  0.92173  0.06632  0.70907  1.0000
  C   C32       1.0  0.07827  0.56632  0.79093  1.0000
  N   N9        1.0  0.03353  0.96176  0.35295  1.0000
  N   N10       1.0  0.96647  0.46176  0.14705  1.0000
  N   N11       1.0  0.96647  0.03824  0.64705  1.0000
  N   N12       1.0  0.03353  0.53824  0.85295  1.0000
  C   C33       1.0  0.22314  0.93101  0.16444  1.0000
  C   C34       1.0  0.77686  0.43101  0.33556  1.0000
  C   C35       1.0  0.77686  0.06899  0.83556  1.0000
  C   C36       1.0  0.22314  0.56899  0.66444  1.0000
  N   N13       1.0  0.29675  0.95802  0.12184  1.0000
  N   N14       1.0  0.70325  0.45802  0.37816  1.0000
  N   N15       1.0  0.70325  0.04198  0.87816  1.0000
  N   N16       1.0  0.29675  0.54198  0.62184  1.0000
  C   C37       1.0  0.90665  0.74819  0.24845  1.0000
  C   C38       1.0  0.09335  0.24819  0.25155  1.0000
  C   C39       1.0  0.09335  0.25181  0.75155  1.0000
  C   C40       1.0  0.90665  0.75181  0.74845  1.0000
  C   C41       1.0  0.85050  0.68405  0.21670  1.0000
  C   C42       1.0  0.14950  0.18405  0.28330  1.0000
  C   C43       1.0  0.14950  0.31595  0.78330  1.0000
  C   C44       1.0  0.85050  0.81595  0.71670  1.0000
  N   N17       1.0  0.80773  0.63210  0.18797  1.0000
  N   N18       1.0  0.19227  0.13210  0.31203  1.0000
  N   N19       1.0  0.19227  0.36790  0.81203  1.0000
  N   N20       1.0  0.80773  0.86790  0.68797  1.0000
  C   C45       1.0  0.85174  0.79128  0.31678  1.0000
  C   C46       1.0  0.14826  0.29128  0.18322  1.0000
  C   C47       1.0  0.14826  0.20872  0.68322  1.0000
  C   C48       1.0  0.85174  0.70872  0.81678  1.0000
  N   N21       1.0  0.81170  0.82936  0.37058  1.0000
  N   N22       1.0  0.18830  0.32936  0.12942  1.0000
  N   N23       1.0  0.18830  0.17064  0.62942  1.0000
  N   N24       1.0  0.81170  0.67064  0.87058  1.0000
