data_image0
_chemical_formula_structural       Co2O4H8C20N4C4N4C8N4C4N4C8N4C4N4
_chemical_formula_sum              "Co2 O4 H8 C48 N24"
_cell_length_a       10.9634
_cell_length_b       18.7609
_cell_length_c       13.8621
_cell_angle_alpha    90
_cell_angle_beta     93.516
_cell_angle_gamma    90

_space_group_name_H-M_alt    "P 1"
_space_group_IT_number       1

loop_
  _space_group_symop_operation_xyz
  'x, y, z'

loop_
  _atom_site_type_symbol
  _atom_site_label
  _atom_site_symmetry_multiplicity
  _atom_site_fract_x
  _atom_site_fract_y
  _atom_site_fract_z
  _atom_site_occupancy
  Co  Co1       1.0  0.00000  0.50000  0.00000  1.0000
  Co  Co2       1.0  0.00000  0.00000  0.50000  1.0000
  O   O1        1.0  0.83408  0.55530  0.00532  1.0000
  O   O2        1.0  0.16592  0.05530  0.49468  1.0000
  O   O3        1.0  0.16592  0.44470  0.99468  1.0000
  O   O4        1.0  0.83408  0.94470  0.50532  1.0000
  H   H1        1.0  0.81500  0.57140  0.06040  1.0000
  H   H2        1.0  0.18500  0.07140  0.43960  1.0000
  H   H3        1.0  0.18500  0.42860  0.93960  1.0000
  H   H4        1.0  0.81500  0.92860  0.56040  1.0000
  H   H5        1.0  0.82700  0.59230  0.96900  1.0000
  H   H6        1.0  0.17300  0.09230  0.53100  1.0000
  H   H7        1.0  0.17300  0.40770  0.03100  1.0000
  H   H8        1.0  0.82700  0.90770  0.46900  1.0000
  C   C1        1.0  0.09290  0.76611  0.14005  1.0000
  C   C2        1.0  0.90710  0.26611  0.35995  1.0000
  C   C3        1.0  0.90710  0.23389  0.85995  1.0000
  C   C4        1.0  0.09290  0.73389  0.64005  1.0000
  C   C5        1.0  0.08570  0.82742  0.19427  1.0000
  C   C6        1.0  0.91430  0.32742  0.30573  1.0000
  C   C7        1.0  0.91430  0.17258  0.80573  1.0000
  C   C8        1.0  0.08570  0.67258  0.69427  1.0000
  C   C9        1.0  0.00430  0.77248  0.20640  1.0000
  C   C10       1.0  0.99570  0.27248  0.29360  1.0000
  C   C11       1.0  0.99570  0.22752  0.79360  1.0000
  C   C12       1.0  0.00430  0.72752  0.70640  1.0000
  C   C13       1.0  0.14650  0.72475  0.06870  1.0000
  C   C14       1.0  0.85350  0.22475  0.43130  1.0000
  C   C15       1.0  0.85350  0.27525  0.93130  1.0000
  C   C16       1.0  0.14650  0.77525  0.56870  1.0000
  C   C17       1.0  0.11450  0.65279  0.05760  1.0000
  C   C18       1.0  0.88550  0.15279  0.44240  1.0000
  C   C19       1.0  0.88550  0.34721  0.94240  1.0000
  C   C20       1.0  0.11450  0.84721  0.55760  1.0000
  N   N1        1.0  0.08940  0.59253  0.05187  1.0000
  N   N2        1.0  0.91060  0.09253  0.44813  1.0000
  N   N3        1.0  0.91060  0.40747  0.94813  1.0000
  N   N4        1.0  0.08940  0.90747  0.55187  1.0000
  C   C21       1.0  0.23450  0.75478  0.01010  1.0000
  C   C22       1.0  0.76550  0.25478  0.48990  1.0000
  C   C23       1.0  0.76550  0.24522  0.98990  1.0000
  C   C24       1.0  0.23450  0.74522  0.51010  1.0000
  N   N5        1.0  0.30570  0.78041  0.96283  1.0000
  N   N6        1.0  0.69430  0.28041  0.53717  1.0000
  N   N7        1.0  0.69430  0.21959  0.03717  1.0000
  N   N8        1.0  0.30570  0.71959  0.46283  1.0000
  C   C25       1.0  0.12680  0.89660  0.21877  1.0000
  C   C26       1.0  0.87320  0.39660  0.28123  1.0000
  C   C27       1.0  0.87320  0.10340  0.78123  1.0000
  C   C28       1.0  0.12680  0.60340  0.71877  1.0000
  C   C29       1.0  0.07540  0.93379  0.29580  1.0000
  C   C30       1.0  0.92460  0.43379  0.20420  1.0000
  C   C31       1.0  0.92460  0.06621  0.70420  1.0000
  C   C32       1.0  0.07540  0.56621  0.79580  1.0000
  N   N9        1.0  0.03200  0.96253  0.35889  1.0000
  N   N10       1.0  0.96800  0.46253  0.14111  1.0000
  N   N11       1.0  0.96800  0.03747  0.64111  1.0000
  N   N12       1.0  0.03200  0.53747  0.85889  1.0000
  C   C33       1.0  0.21960  0.93086  0.16790  1.0000
  C   C34       1.0  0.78040  0.43086  0.33210  1.0000
  C   C35       1.0  0.78040  0.06914  0.83210  1.0000
  C   C36       1.0  0.21960  0.56914  0.66790  1.0000
  N   N13       1.0  0.29420  0.95755  0.12524  1.0000
  N   N14       1.0  0.70580  0.45755  0.37476  1.0000
  N   N15       1.0  0.70580  0.04245  0.87476  1.0000
  N   N16       1.0  0.29420  0.54245  0.62524  1.0000
  C   C37       1.0  0.90220  0.74657  0.24952  1.0000
  C   C38       1.0  0.09780  0.24657  0.25048  1.0000
  C   C39       1.0  0.09780  0.25343  0.75048  1.0000
  C   C40       1.0  0.90220  0.75343  0.74952  1.0000
  C   C41       1.0  0.84640  0.68225  0.21732  1.0000
  C   C42       1.0  0.15360  0.18225  0.28268  1.0000
  C   C43       1.0  0.15360  0.31775  0.78268  1.0000
  C   C44       1.0  0.84640  0.81775  0.71732  1.0000
  N   N17       1.0  0.80350  0.62923  0.18777  1.0000
  N   N18       1.0  0.19650  0.12923  0.31223  1.0000
  N   N19       1.0  0.19650  0.37077  0.81223  1.0000
  N   N20       1.0  0.80350  0.87077  0.68777  1.0000
  C   C45       1.0  0.84850  0.79043  0.31870  1.0000
  C   C46       1.0  0.15150  0.29043  0.18130  1.0000
  C   C47       1.0  0.15150  0.20957  0.68130  1.0000
  C   C48       1.0  0.84850  0.70957  0.81870  1.0000
  N   N21       1.0  0.81090  0.82969  0.37328  1.0000
  N   N22       1.0  0.18910  0.32969  0.12672  1.0000
  N   N23       1.0  0.18910  0.17031  0.62672  1.0000
  N   N24       1.0  0.81090  0.67031  0.87328  1.0000
