data_image0
_chemical_formula_structural       Fe2O4H8C20N4C4N4C8N4C4N4C8N4C4N4
_chemical_formula_sum              "Fe2 O4 H8 C48 N24"
_cell_length_a       10.9598
_cell_length_b       18.8191
_cell_length_c       13.9049
_cell_angle_alpha    90
_cell_angle_beta     93.516
_cell_angle_gamma    90

_space_group_name_H-M_alt    "P 1"
_space_group_IT_number       1

loop_
  _space_group_symop_operation_xyz
  'x, y, z'

loop_
  _atom_site_type_symbol
  _atom_site_label
  _atom_site_symmetry_multiplicity
  _atom_site_fract_x
  _atom_site_fract_y
  _atom_site_fract_z
  _atom_site_occupancy
  Fe  Fe1       1.0  0.50000  0.00000  0.00000  1.0000
  Fe  Fe2       1.0  0.50000  0.50000  0.50000  1.0000
  O   O1        1.0  0.33229  0.05681  0.00423  1.0000
  O   O2        1.0  0.66771  0.55681  0.49577  1.0000
  O   O3        1.0  0.66771  0.94319  0.99577  1.0000
  O   O4        1.0  0.33229  0.44319  0.50423  1.0000
  H   H1        1.0  0.32040  0.07450  0.05970  1.0000
  H   H2        1.0  0.67960  0.57450  0.44030  1.0000
  H   H3        1.0  0.67960  0.92550  0.94030  1.0000
  H   H4        1.0  0.32040  0.42550  0.55970  1.0000
  H   H5        1.0  0.32700  0.09270  0.96600  1.0000
  H   H6        1.0  0.67300  0.59270  0.53400  1.0000
  H   H7        1.0  0.67300  0.90730  0.03400  1.0000
  H   H8        1.0  0.32700  0.40730  0.46600  1.0000
  C   C1        1.0  0.59647  0.26669  0.13997  1.0000
  C   C2        1.0  0.40353  0.76669  0.36003  1.0000
  C   C3        1.0  0.40353  0.73331  0.86003  1.0000
  C   C4        1.0  0.59647  0.23331  0.63997  1.0000
  C   C5        1.0  0.58921  0.32821  0.19385  1.0000
  C   C6        1.0  0.41079  0.82821  0.30615  1.0000
  C   C7        1.0  0.41079  0.67179  0.80615  1.0000
  C   C8        1.0  0.58921  0.17179  0.69385  1.0000
  C   C9        1.0  0.50767  0.27305  0.20596  1.0000
  C   C10       1.0  0.49233  0.77305  0.29404  1.0000
  C   C11       1.0  0.49233  0.72695  0.79404  1.0000
  C   C12       1.0  0.50767  0.22695  0.70596  1.0000
  C   C13       1.0  0.64992  0.22588  0.06903  1.0000
  C   C14       1.0  0.35008  0.72588  0.43097  1.0000
  C   C15       1.0  0.35008  0.77412  0.93097  1.0000
  C   C16       1.0  0.64992  0.27412  0.56903  1.0000
  C   C17       1.0  0.61794  0.15364  0.05818  1.0000
  C   C18       1.0  0.38206  0.65364  0.44182  1.0000
  C   C19       1.0  0.38206  0.84636  0.94182  1.0000
  C   C20       1.0  0.61794  0.34636  0.55818  1.0000
  N   N1        1.0  0.59370  0.09412  0.05256  1.0000
  N   N2        1.0  0.40630  0.59412  0.44744  1.0000
  N   N3        1.0  0.40630  0.90588  0.94744  1.0000
  N   N4        1.0  0.59370  0.40588  0.55256  1.0000
  C   C21       1.0  0.73810  0.25570  0.01059  1.0000
  C   C22       1.0  0.26190  0.75570  0.48941  1.0000
  C   C23       1.0  0.26190  0.74430  0.98941  1.0000
  C   C24       1.0  0.73810  0.24430  0.51059  1.0000
  N   N5        1.0  0.80883  0.28124  0.96342  1.0000
  N   N6        1.0  0.19117  0.78124  0.53658  1.0000
  N   N7        1.0  0.19117  0.71876  0.03658  1.0000
  N   N8        1.0  0.80883  0.21876  0.46342  1.0000
  C   C25       1.0  0.62850  0.39742  0.21764  1.0000
  C   C26       1.0  0.37150  0.89742  0.28236  1.0000
  C   C27       1.0  0.37150  0.60258  0.78236  1.0000
  C   C28       1.0  0.62850  0.10258  0.71764  1.0000
  C   C29       1.0  0.57647  0.43358  0.29403  1.0000
  C   C30       1.0  0.42353  0.93358  0.20597  1.0000
  C   C31       1.0  0.42353  0.56642  0.70597  1.0000
  C   C32       1.0  0.57647  0.06642  0.79403  1.0000
  N   N9        1.0  0.53224  0.46194  0.35673  1.0000
  N   N10       1.0  0.46776  0.96194  0.14327  1.0000
  N   N11       1.0  0.46776  0.53806  0.64327  1.0000
  N   N12       1.0  0.53224  0.03806  0.85673  1.0000
  C   C33       1.0  0.72090  0.43148  0.16698  1.0000
  C   C34       1.0  0.27910  0.93148  0.33302  1.0000
  C   C35       1.0  0.27910  0.56852  0.83302  1.0000
  C   C36       1.0  0.72090  0.06852  0.66698  1.0000
  N   N13       1.0  0.79445  0.45877  0.12401  1.0000
  N   N14       1.0  0.20555  0.95877  0.37599  1.0000
  N   N15       1.0  0.20555  0.54123  0.87599  1.0000
  N   N16       1.0  0.79445  0.04123  0.62401  1.0000
  C   C37       1.0  0.40475  0.24703  0.24891  1.0000
  C   C38       1.0  0.59525  0.74703  0.25109  1.0000
  C   C39       1.0  0.59525  0.75297  0.75109  1.0000
  C   C40       1.0  0.40475  0.25297  0.74891  1.0000
  C   C41       1.0  0.34911  0.18264  0.21614  1.0000
  C   C42       1.0  0.65089  0.68264  0.28386  1.0000
  C   C43       1.0  0.65089  0.81736  0.78386  1.0000
  C   C44       1.0  0.34911  0.31736  0.71614  1.0000
  N   N17       1.0  0.30744  0.13023  0.18599  1.0000
  N   N18       1.0  0.69256  0.63023  0.31401  1.0000
  N   N19       1.0  0.69256  0.86977  0.81401  1.0000
  N   N20       1.0  0.30744  0.36977  0.68599  1.0000
  C   C45       1.0  0.35000  0.29052  0.31726  1.0000
  C   C46       1.0  0.65000  0.79052  0.18274  1.0000
  C   C47       1.0  0.65000  0.70948  0.68274  1.0000
  C   C48       1.0  0.35000  0.20948  0.81726  1.0000
  N   N21       1.0  0.31115  0.32972  0.37114  1.0000
  N   N22       1.0  0.68885  0.82972  0.12886  1.0000
  N   N23       1.0  0.68885  0.67028  0.62886  1.0000
  N   N24       1.0  0.31115  0.17028  0.87114  1.0000
