data_image0
_chemical_formula_structural       Cd2N2H2N4H2N2H2O20C6H2C6H2C4H2C8H2C6H2C6H2C6H2
_chemical_formula_sum              "Cd2 N8 H20 O20 C42"
_cell_length_a       10.225
_cell_length_b       10.243
_cell_length_c       17.912
_cell_angle_alpha    99.21
_cell_angle_beta     101.53
_cell_angle_gamma    104.25

_space_group_name_H-M_alt    "P 1"
_space_group_IT_number       1

loop_
  _space_group_symop_operation_xyz
  'x, y, z'

loop_
  _atom_site_type_symbol
  _atom_site_label
  _atom_site_symmetry_multiplicity
  _atom_site_fract_x
  _atom_site_fract_y
  _atom_site_fract_z
  _atom_site_occupancy
  Cd  Cd1       1.0  0.03049  0.04377  0.31317  1.0000
  Cd  Cd2       1.0  0.96951  0.95623  0.68683  1.0000
  N   N1        1.0  0.84210  0.40190  0.00960  1.0000
  N   N2        1.0  0.15790  0.59810  0.99040  1.0000
  H   H1        1.0  0.84970  0.32210  0.99090  1.0000
  H   H2        1.0  0.15030  0.67790  0.00910  1.0000
  N   N3        1.0  0.75730  0.25630  0.85760  1.0000
  N   N4        1.0  0.24270  0.74370  0.14240  1.0000
  N   N5        1.0  0.71170  0.21590  0.77790  1.0000
  N   N6        1.0  0.28830  0.78410  0.22210  1.0000
  H   H3        1.0  0.70290  0.13480  0.75170  1.0000
  H   H4        1.0  0.29710  0.86520  0.24830  1.0000
  N   N7        1.0  0.68750  0.22870  0.61480  1.0000
  N   N8        1.0  0.31250  0.77130  0.38520  1.0000
  H   H5        1.0  0.75700  0.20580  0.63910  1.0000
  H   H6        1.0  0.24300  0.79420  0.36090  1.0000
  O   O1        1.0  0.04080  0.80780  0.32090  1.0000
  O   O2        1.0  0.95920  0.19220  0.67910  1.0000
  O   O3        1.0  0.94440  0.85070  0.20740  1.0000
  O   O4        1.0  0.05560  0.14930  0.79260  1.0000
  O   O5        1.0  0.04030  0.32910  0.33590  1.0000
  O   O6        1.0  0.95970  0.67090  0.66410  1.0000
  O   O7        1.0  0.99250  0.17410  0.22830  1.0000
  O   O8        1.0  0.00750  0.82590  0.77170  1.0000
  O   O9        1.0  0.78000  0.57960  0.96970  1.0000
  O   O10       1.0  0.22000  0.42040  0.03030  1.0000
  O   O11       1.0  0.54050  0.35690  0.63430  1.0000
  O   O12       1.0  0.45950  0.64310  0.36570  1.0000
  O   O13       1.0  0.93350  0.08760  0.41440  1.0000
  O   O14       1.0  0.06650  0.91240  0.58560  1.0000
  O   O15       1.0  0.77170  0.00760  0.30440  1.0000
  O   O16       1.0  0.22830  0.99240  0.69560  1.0000
  O   O17       1.0  0.28710  0.04080  0.29180  1.0000
  O   O18       1.0  0.71290  0.95920  0.70820  1.0000
  O   O19       1.0  0.24480  0.12780  0.40210  1.0000
  O   O20       1.0  0.75520  0.87220  0.59790  1.0000
  C   C1        1.0  0.98130  0.76940  0.24940  1.0000
  C   C2        1.0  0.01870  0.23060  0.75060  1.0000
  C   C3        1.0  0.95480  0.62190  0.20810  1.0000
  C   C4        1.0  0.04520  0.37810  0.79190  1.0000
  C   C5        1.0  0.98160  0.52610  0.25190  1.0000
  C   C6        1.0  0.01840  0.47390  0.74810  1.0000
  H   H7        1.0  0.00970  0.55330  0.30610  1.0000
  H   H8        1.0  0.99030  0.44670  0.69390  1.0000
  C   C7        1.0  0.96690  0.38980  0.21570  1.0000
  C   C8        1.0  0.03310  0.61020  0.78430  1.0000
  C   C9        1.0  0.00460  0.29190  0.26480  1.0000
  C   C10       1.0  0.99540  0.70810  0.73520  1.0000
  C   C11       1.0  0.92170  0.35350  0.13500  1.0000
  C   C12       1.0  0.07830  0.64650  0.86500  1.0000
  H   H9        1.0  0.91480  0.26500  0.10890  1.0000
  H   H10       1.0  0.08520  0.73500  0.89110  1.0000
  C   C13       1.0  0.88690  0.44650  0.09280  1.0000
  C   C14       1.0  0.11310  0.55350  0.90720  1.0000
  C   C15       1.0  0.90760  0.58240  0.12890  1.0000
  C   C16       1.0  0.09240  0.41760  0.87110  1.0000
  H   H11       1.0  0.88960  0.64590  0.09950  1.0000
  H   H12       1.0  0.11040  0.35410  0.90050  1.0000
  C   C17       1.0  0.79010  0.46630  0.95630  1.0000
  C   C18       1.0  0.20990  0.53370  0.04370  1.0000
  C   C19       1.0  0.75090  0.38780  0.87300  1.0000
  C   C20       1.0  0.24910  0.61220  0.12700  1.0000
  C   C21       1.0  0.68170  0.32070  0.74500  1.0000
  C   C22       1.0  0.31830  0.67930  0.25500  1.0000
  C   C23       1.0  0.70150  0.42620  0.80440  1.0000
  C   C24       1.0  0.29850  0.57380  0.19560  1.0000
  H   H13       1.0  0.68500  0.51050  0.80050  1.0000
  H   H14       1.0  0.31500  0.48950  0.19950  1.0000
  C   C25       1.0  0.62970  0.30280  0.65970  1.0000
  C   C26       1.0  0.37030  0.69720  0.34030  1.0000
  C   C27       1.0  0.64910  0.18300  0.53270  1.0000
  C   C28       1.0  0.35090  0.81700  0.46730  1.0000
  C   C29       1.0  0.74650  0.14750  0.49490  1.0000
  C   C30       1.0  0.25350  0.85250  0.50510  1.0000
  H   H15       1.0  0.83650  0.15800  0.52350  1.0000
  H   H16       1.0  0.16350  0.84200  0.47650  1.0000
  C   C31       1.0  0.70920  0.09730  0.41600  1.0000
  C   C32       1.0  0.29080  0.90270  0.58400  1.0000
  C   C33       1.0  0.80800  0.06170  0.37590  1.0000
  C   C34       1.0  0.19200  0.93830  0.62410  1.0000
  C   C35       1.0  0.57020  0.08140  0.37260  1.0000
  C   C36       1.0  0.42980  0.91860  0.62740  1.0000
  H   H17       1.0  0.54350  0.04440  0.31910  1.0000
  H   H18       1.0  0.45650  0.95560  0.68090  1.0000
  C   C37       1.0  0.47750  0.12000  0.40930  1.0000
  C   C38       1.0  0.52250  0.88000  0.59070  1.0000
  C   C39       1.0  0.32560  0.09000  0.36340  1.0000
  C   C40       1.0  0.67440  0.91000  0.63660  1.0000
  C   C41       1.0  0.51540  0.16860  0.49040  1.0000
  C   C42       1.0  0.48460  0.83140  0.50960  1.0000
  H   H19       1.0  0.45070  0.19130  0.51600  1.0000
  H   H20       1.0  0.54930  0.80870  0.48400  1.0000
