data_image0
_chemical_formula_structural       Ho8P12O108H8N12C8H4C12H4C4H4C8H12C8H4C12H4C4H4C8H12C8H4C12H4C4H4C8H12C8H4C12H4C4H4C8H12C8H4C12H4C4H4C8H12C8H4C12H4C4H4C8H12C4H4
_chemical_formula_sum              "Ho8 P12 O108 H156 N12 C196"
_cell_length_a       14.0524
_cell_length_b       24.5135
_cell_length_c       26.5196
_cell_angle_alpha    90
_cell_angle_beta     101.943
_cell_angle_gamma    90

_space_group_name_H-M_alt    "P 1"
_space_group_IT_number       1

loop_
  _space_group_symop_operation_xyz
  'x, y, z'

loop_
  _atom_site_type_symbol
  _atom_site_label
  _atom_site_symmetry_multiplicity
  _atom_site_fract_x
  _atom_site_fract_y
  _atom_site_fract_z
  _atom_site_occupancy
  Ho  Ho1       1.0  0.37385  0.03019  0.49263  1.0000
  Ho  Ho2       1.0  0.62615  0.53019  0.00737  1.0000
  Ho  Ho3       1.0  0.62615  0.96981  0.50737  1.0000
  Ho  Ho4       1.0  0.37385  0.46981  0.99263  1.0000
  Ho  Ho5       1.0  0.07375  0.06815  0.53686  1.0000
  Ho  Ho6       1.0  0.92625  0.56815  0.96314  1.0000
  Ho  Ho7       1.0  0.92625  0.93185  0.46314  1.0000
  Ho  Ho8       1.0  0.07375  0.43185  0.03686  1.0000
  P   P1        1.0  0.50335  0.16624  0.20124  1.0000
  P   P2        1.0  0.49665  0.66624  0.29876  1.0000
  P   P3        1.0  0.49665  0.83376  0.79876  1.0000
  P   P4        1.0  0.50335  0.33376  0.70124  1.0000
  P   P5        1.0  0.62066  0.24761  0.25390  1.0000
  P   P6        1.0  0.37934  0.74761  0.24610  1.0000
  P   P7        1.0  0.37934  0.75239  0.74610  1.0000
  P   P8        1.0  0.62066  0.25239  0.75390  1.0000
  P   P9        1.0  0.69112  0.17749  0.18803  1.0000
  P   P10       1.0  0.30888  0.67749  0.31197  1.0000
  P   P11       1.0  0.30888  0.82251  0.81197  1.0000
  P   P12       1.0  0.69112  0.32251  0.68803  1.0000
  O   O1        1.0  0.47921  0.11427  0.23180  1.0000
  O   O2        1.0  0.52079  0.61427  0.26820  1.0000
  O   O3        1.0  0.52079  0.88573  0.76820  1.0000
  O   O4        1.0  0.47921  0.38573  0.73180  1.0000
  O   O5        1.0  0.40518  0.16926  0.15933  1.0000
  O   O6        1.0  0.59482  0.66926  0.34067  1.0000
  O   O7        1.0  0.59482  0.83074  0.84067  1.0000
  O   O8        1.0  0.40518  0.33074  0.65933  1.0000
  O   O9        1.0  0.65060  0.24989  0.31473  1.0000
  O   O10       1.0  0.34940  0.74989  0.18527  1.0000
  O   O11       1.0  0.34940  0.75011  0.68527  1.0000
  O   O12       1.0  0.65060  0.25011  0.81473  1.0000
  O   O13       1.0  0.61360  0.31196  0.24793  1.0000
  O   O14       1.0  0.38640  0.81196  0.25207  1.0000
  O   O15       1.0  0.38640  0.68804  0.75207  1.0000
  O   O16       1.0  0.61360  0.18804  0.74793  1.0000
  O   O17       1.0  0.77753  0.13426  0.19942  1.0000
  O   O18       1.0  0.22247  0.63426  0.30058  1.0000
  O   O19       1.0  0.22247  0.86574  0.80058  1.0000
  O   O20       1.0  0.77753  0.36574  0.69942  1.0000
  O   O21       1.0  0.70740  0.19882  0.13401  1.0000
  O   O22       1.0  0.29260  0.69882  0.36599  1.0000
  O   O23       1.0  0.29260  0.80118  0.86599  1.0000
  O   O24       1.0  0.70740  0.30118  0.63401  1.0000
  O   O25       1.0  0.18470  0.12498  0.38619  1.0000
  O   O26       1.0  0.81530  0.62498  0.11381  1.0000
  O   O27       1.0  0.81530  0.87502  0.61381  1.0000
  O   O28       1.0  0.18470  0.37502  0.88619  1.0000
  O   O29       1.0  0.27841  0.05490  0.41687  1.0000
  O   O30       1.0  0.72159  0.55490  0.08313  1.0000
  O   O31       1.0  0.72159  0.94510  0.58313  1.0000
  O   O32       1.0  0.27841  0.44510  0.91687  1.0000
  O   O33       1.0  0.50080  0.02818  0.29028  1.0000
  O   O34       1.0  0.49920  0.52818  0.20972  1.0000
  O   O35       1.0  0.49920  0.97182  0.70972  1.0000
  O   O36       1.0  0.50080  0.47182  0.79028  1.0000
  O   O37       1.0  0.34141  0.38736  0.02700  1.0000
  O   O38       1.0  0.65859  0.88736  0.47300  1.0000
  O   O39       1.0  0.65859  0.61264  0.97300  1.0000
  O   O40       1.0  0.34141  0.11264  0.52700  1.0000
  O   O41       1.0  0.18943  0.36835  0.03485  1.0000
  O   O42       1.0  0.81057  0.86835  0.46515  1.0000
  O   O43       1.0  0.81057  0.63165  0.96515  1.0000
  O   O44       1.0  0.18943  0.13165  0.53485  1.0000
  O   O45       1.0  0.23770  0.21240  0.16282  1.0000
  O   O46       1.0  0.76230  0.71240  0.33718  1.0000
  O   O47       1.0  0.76230  0.78760  0.83718  1.0000
  O   O48       1.0  0.23770  0.28760  0.66282  1.0000
  O   O49       1.0  0.47448  0.08614  0.45509  1.0000
  O   O50       1.0  0.52552  0.58614  0.04491  1.0000
  O   O51       1.0  0.52552  0.91386  0.54491  1.0000
  O   O52       1.0  0.47448  0.41386  0.95509  1.0000
  O   O53       1.0  0.60979  0.04102  0.44859  1.0000
  O   O54       1.0  0.39021  0.54102  0.05141  1.0000
  O   O55       1.0  0.39021  0.95898  0.55141  1.0000
  O   O56       1.0  0.60979  0.45898  0.94859  1.0000
  O   O57       1.0  0.49210  0.26025  0.35507  1.0000
  O   O58       1.0  0.50790  0.76025  0.14493  1.0000
  O   O59       1.0  0.50790  0.73975  0.64493  1.0000
  O   O60       1.0  0.49210  0.23975  0.85507  1.0000
  O   O61       1.0  0.52926  0.46462  0.05063  1.0000
  O   O62       1.0  0.47074  0.96462  0.44937  1.0000
  O   O63       1.0  0.47074  0.53538  0.94937  1.0000
  O   O64       1.0  0.52926  0.03538  0.55063  1.0000
  O   O65       1.0  0.68414  0.44741  0.05583  1.0000
  O   O66       1.0  0.31586  0.94741  0.44417  1.0000
  O   O67       1.0  0.31586  0.55259  0.94417  1.0000
  O   O68       1.0  0.68414  0.05259  0.55583  1.0000
  O   O69       1.0  0.78060  0.35910  0.23528  1.0000
  O   O70       1.0  0.21940  0.85910  0.26472  1.0000
  O   O71       1.0  0.21940  0.64090  0.76472  1.0000
  O   O72       1.0  0.78060  0.14090  0.73528  1.0000
  O   O73       1.0  0.81763  0.96528  0.38627  1.0000
  O   O74       1.0  0.18237  0.46528  0.11373  1.0000
  O   O75       1.0  0.18237  0.03472  0.61373  1.0000
  O   O76       1.0  0.81763  0.53472  0.88627  1.0000
  O   O77       1.0  0.97009  0.99297  0.39672  1.0000
  O   O78       1.0  0.02991  0.49297  0.10328  1.0000
  O   O79       1.0  0.02991  0.00703  0.60328  1.0000
  O   O80       1.0  0.97009  0.50703  0.89672  1.0000
  O   O81       1.0  0.95620  0.12720  0.24466  1.0000
  O   O82       1.0  0.04380  0.62720  0.25534  1.0000
  O   O83       1.0  0.04380  0.87280  0.75534  1.0000
  O   O84       1.0  0.95620  0.37280  0.74466  1.0000
  O   O85       1.0  0.95007  0.36460  0.02935  1.0000
  O   O86       1.0  0.04993  0.86460  0.47065  1.0000
  O   O87       1.0  0.04993  0.63540  0.97065  1.0000
  O   O88       1.0  0.95007  0.13540  0.52935  1.0000
  O   O89       1.0  0.04364  0.36764  0.10731  1.0000
  O   O90       1.0  0.95636  0.86764  0.39269  1.0000
  O   O91       1.0  0.95636  0.63236  0.89269  1.0000
  O   O92       1.0  0.04364  0.13236  0.60731  1.0000
  O   O93       1.0  0.66010  0.24880  0.04791  1.0000
  O   O94       1.0  0.33990  0.74880  0.45209  1.0000
  O   O95       1.0  0.33990  0.75120  0.95209  1.0000
  O   O96       1.0  0.66010  0.25120  0.54791  1.0000
  O   O97       1.0  0.21702  0.01461  0.51058  1.0000
  O   O98       1.0  0.78298  0.51461  0.98942  1.0000
  O   O99       1.0  0.78298  0.98539  0.48942  1.0000
  O   O100      1.0  0.21702  0.48539  0.01058  1.0000
  O   O101      1.0  0.07851  0.97263  0.50639  1.0000
  O   O102      1.0  0.92149  0.47263  0.99361  1.0000
  O   O103      1.0  0.92149  0.02737  0.49361  1.0000
  O   O104      1.0  0.07851  0.52737  0.00639  1.0000
  O   O105      1.0  0.06065  0.08426  0.44689  1.0000
  O   O106      1.0  0.93935  0.58426  0.05311  1.0000
  O   O107      1.0  0.93935  0.91574  0.55311  1.0000
  O   O108      1.0  0.06065  0.41574  0.94689  1.0000
  H   H1        1.0  0.01430  0.10640  0.43610  1.0000
  H   H2        1.0  0.98570  0.60640  0.06390  1.0000
  H   H3        1.0  0.98570  0.89360  0.56390  1.0000
  H   H4        1.0  0.01430  0.39360  0.93610  1.0000
  H   H5        1.0  0.04820  0.05450  0.43040  1.0000
  H   H6        1.0  0.95180  0.55450  0.06960  1.0000
  H   H7        1.0  0.95180  0.94550  0.56960  1.0000
  H   H8        1.0  0.04820  0.44550  0.93040  1.0000
  N   N1        1.0  0.58960  0.14748  0.17518  1.0000
  N   N2        1.0  0.41040  0.64748  0.32482  1.0000
  N   N3        1.0  0.41040  0.85252  0.82482  1.0000
  N   N4        1.0  0.58960  0.35252  0.67518  1.0000
  N   N5        1.0  0.51720  0.21985  0.23482  1.0000
  N   N6        1.0  0.48280  0.71985  0.26518  1.0000
  N   N7        1.0  0.48280  0.78015  0.76518  1.0000
  N   N8        1.0  0.51720  0.28015  0.73482  1.0000
  N   N9        1.0  0.70730  0.22357  0.23027  1.0000
  N   N10       1.0  0.29270  0.72357  0.26973  1.0000
  N   N11       1.0  0.29270  0.77643  0.76973  1.0000
  N   N12       1.0  0.70730  0.27643  0.73027  1.0000
  C   C1        1.0  0.30740  0.09815  0.34186  1.0000
  C   C2        1.0  0.69260  0.59815  0.15814  1.0000
  C   C3        1.0  0.69260  0.90185  0.65814  1.0000
  C   C4        1.0  0.30740  0.40185  0.84186  1.0000
  C   C5        1.0  0.37600  0.05885  0.33545  1.0000
  C   C6        1.0  0.62400  0.55885  0.16455  1.0000
  C   C7        1.0  0.62400  0.94115  0.66455  1.0000
  C   C8        1.0  0.37600  0.44115  0.83545  1.0000
  H   H9        1.0  0.38470  0.02810  0.35640  1.0000
  H   H10       1.0  0.61530  0.52810  0.14360  1.0000
  H   H11       1.0  0.61530  0.97190  0.64360  1.0000
  H   H12       1.0  0.38470  0.47190  0.85640  1.0000
  C   C9        1.0  0.43120  0.06519  0.29817  1.0000
  C   C10       1.0  0.56880  0.56519  0.20183  1.0000
  C   C11       1.0  0.56880  0.93481  0.70183  1.0000
  C   C12       1.0  0.43120  0.43481  0.79817  1.0000
  C   C13       1.0  0.41780  0.11141  0.26693  1.0000
  C   C14       1.0  0.58220  0.61141  0.23307  1.0000
  C   C15       1.0  0.58220  0.88859  0.73307  1.0000
  C   C16       1.0  0.41780  0.38859  0.76693  1.0000
  C   C17       1.0  0.34940  0.15014  0.27166  1.0000
  C   C18       1.0  0.65060  0.65014  0.22834  1.0000
  C   C19       1.0  0.65060  0.84986  0.72834  1.0000
  C   C20       1.0  0.34940  0.34986  0.77166  1.0000
  H   H13       1.0  0.33970  0.18020  0.24980  1.0000
  H   H14       1.0  0.66030  0.68020  0.25020  1.0000
  H   H15       1.0  0.66030  0.81980  0.75020  1.0000
  H   H16       1.0  0.33970  0.31980  0.74980  1.0000
  C   C21       1.0  0.29430  0.14397  0.30970  1.0000
  C   C22       1.0  0.70570  0.64397  0.19030  1.0000
  C   C23       1.0  0.70570  0.85603  0.69030  1.0000
  C   C24       1.0  0.29430  0.35603  0.80970  1.0000
  H   H17       1.0  0.24900  0.17040  0.31360  1.0000
  H   H18       1.0  0.75100  0.67040  0.18640  1.0000
  H   H19       1.0  0.75100  0.82960  0.68640  1.0000
  H   H20       1.0  0.24900  0.32960  0.81360  1.0000
  C   C25       1.0  0.25260  0.09315  0.38481  1.0000
  C   C26       1.0  0.74740  0.59315  0.11519  1.0000
  C   C27       1.0  0.74740  0.90685  0.61519  1.0000
  C   C28       1.0  0.25260  0.40685  0.88481  1.0000
  C   C29       1.0  0.51170  0.98130  0.31930  1.0000
  C   C30       1.0  0.48830  0.48130  0.18070  1.0000
  C   C31       1.0  0.48830  0.01870  0.68070  1.0000
  C   C32       1.0  0.51170  0.51870  0.81930  1.0000
  H   H21       1.0  0.56190  0.95920  0.31020  1.0000
  H   H22       1.0  0.43810  0.45920  0.18980  1.0000
  H   H23       1.0  0.43810  0.04080  0.68980  1.0000
  H   H24       1.0  0.56190  0.54080  0.81020  1.0000
  H   H25       1.0  0.52910  0.99060  0.35520  1.0000
  H   H26       1.0  0.47090  0.49060  0.14480  1.0000
  H   H27       1.0  0.47090  0.00940  0.64480  1.0000
  H   H28       1.0  0.52910  0.50940  0.85520  1.0000
  H   H29       1.0  0.45160  0.96140  0.31280  1.0000
  H   H30       1.0  0.54840  0.46140  0.18720  1.0000
  H   H31       1.0  0.54840  0.03860  0.68720  1.0000
  H   H32       1.0  0.45160  0.53860  0.81280  1.0000
  C   C33       1.0  0.31310  0.30581  0.06946  1.0000
  C   C34       1.0  0.68690  0.80581  0.43054  1.0000
  C   C35       1.0  0.68690  0.69419  0.93054  1.0000
  C   C36       1.0  0.31310  0.19419  0.56946  1.0000
  C   C37       1.0  0.25540  0.28319  0.10068  1.0000
  C   C38       1.0  0.74460  0.78319  0.39932  1.0000
  C   C39       1.0  0.74460  0.71681  0.89932  1.0000
  C   C40       1.0  0.25540  0.21681  0.60068  1.0000
  H   H33       1.0  0.19510  0.29840  0.10150  1.0000
  H   H34       1.0  0.80490  0.79840  0.39850  1.0000
  H   H35       1.0  0.80490  0.70160  0.89850  1.0000
  H   H36       1.0  0.19510  0.20160  0.60150  1.0000
  C   C41       1.0  0.28770  0.23795  0.13065  1.0000
  C   C42       1.0  0.71230  0.73795  0.36935  1.0000
  C   C43       1.0  0.71230  0.76205  0.86935  1.0000
  C   C44       1.0  0.28770  0.26205  0.63065  1.0000
  C   C45       1.0  0.37790  0.21542  0.12873  1.0000
  C   C46       1.0  0.62210  0.71542  0.37127  1.0000
  C   C47       1.0  0.62210  0.78458  0.87127  1.0000
  C   C48       1.0  0.37790  0.28458  0.62873  1.0000
  C   C49       1.0  0.43340  0.23625  0.09629  1.0000
  C   C50       1.0  0.56660  0.73625  0.40371  1.0000
  C   C51       1.0  0.56660  0.76375  0.90371  1.0000
  C   C52       1.0  0.43340  0.26375  0.59629  1.0000
  H   H37       1.0  0.49220  0.22000  0.09410  1.0000
  H   H38       1.0  0.50780  0.72000  0.40590  1.0000
  H   H39       1.0  0.50780  0.78000  0.90590  1.0000
  H   H40       1.0  0.49220  0.28000  0.59410  1.0000
  C   C53       1.0  0.40050  0.28204  0.06669  1.0000
  C   C54       1.0  0.59950  0.78204  0.43331  1.0000
  C   C55       1.0  0.59950  0.71796  0.93331  1.0000
  C   C56       1.0  0.40050  0.21796  0.56669  1.0000
  H   H41       1.0  0.43790  0.29660  0.04490  1.0000
  H   H42       1.0  0.56210  0.79660  0.45510  1.0000
  H   H43       1.0  0.56210  0.70340  0.95510  1.0000
  H   H44       1.0  0.43790  0.20340  0.54490  1.0000
  C   C57       1.0  0.27890  0.35734  0.04099  1.0000
  C   C58       1.0  0.72110  0.85734  0.45901  1.0000
  C   C59       1.0  0.72110  0.64266  0.95901  1.0000
  C   C60       1.0  0.27890  0.14266  0.54099  1.0000
  C   C61       1.0  0.14280  0.23200  0.16160  1.0000
  C   C62       1.0  0.85720  0.73200  0.33840  1.0000
  C   C63       1.0  0.85720  0.76800  0.83840  1.0000
  C   C64       1.0  0.14280  0.26800  0.66160  1.0000
  H   H45       1.0  0.11380  0.21160  0.18540  1.0000
  H   H46       1.0  0.88620  0.71160  0.31460  1.0000
  H   H47       1.0  0.88620  0.78840  0.81460  1.0000
  H   H48       1.0  0.11380  0.28840  0.68540  1.0000
  H   H49       1.0  0.14580  0.26990  0.17110  1.0000
  H   H50       1.0  0.85420  0.76990  0.32890  1.0000
  H   H51       1.0  0.85420  0.73010  0.82890  1.0000
  H   H52       1.0  0.14580  0.23010  0.67110  1.0000
  H   H53       1.0  0.10420  0.22810  0.12740  1.0000
  H   H54       1.0  0.89580  0.72810  0.37260  1.0000
  H   H55       1.0  0.89580  0.77190  0.87260  1.0000
  H   H56       1.0  0.10420  0.27190  0.62740  1.0000
  C   C65       1.0  0.57910  0.12594  0.40668  1.0000
  C   C66       1.0  0.42090  0.62594  0.09332  1.0000
  C   C67       1.0  0.42090  0.87406  0.59332  1.0000
  C   C68       1.0  0.57910  0.37406  0.90668  1.0000
  C   C69       1.0  0.51770  0.16979  0.39396  1.0000
  C   C70       1.0  0.48230  0.66979  0.10604  1.0000
  C   C71       1.0  0.48230  0.83021  0.60604  1.0000
  C   C72       1.0  0.51770  0.33021  0.89396  1.0000
  H   H57       1.0  0.46040  0.17160  0.40620  1.0000
  H   H58       1.0  0.53960  0.67160  0.09380  1.0000
  H   H59       1.0  0.53960  0.82840  0.59380  1.0000
  H   H60       1.0  0.46040  0.32840  0.90620  1.0000
  C   C73       1.0  0.54080  0.21139  0.36287  1.0000
  C   C74       1.0  0.45920  0.71139  0.13713  1.0000
  C   C75       1.0  0.45920  0.78861  0.63713  1.0000
  C   C76       1.0  0.54080  0.28861  0.86287  1.0000
  C   C77       1.0  0.62660  0.20731  0.34567  1.0000
  C   C78       1.0  0.37340  0.70731  0.15433  1.0000
  C   C79       1.0  0.37340  0.79269  0.65433  1.0000
  C   C80       1.0  0.62660  0.29269  0.84567  1.0000
  C   C81       1.0  0.68760  0.16470  0.35750  1.0000
  C   C82       1.0  0.31240  0.66470  0.14250  1.0000
  C   C83       1.0  0.31240  0.83530  0.64250  1.0000
  C   C84       1.0  0.68760  0.33530  0.85750  1.0000
  H   H61       1.0  0.74480  0.16320  0.34510  1.0000
  H   H62       1.0  0.25520  0.66320  0.15490  1.0000
  H   H63       1.0  0.25520  0.83680  0.65490  1.0000
  H   H64       1.0  0.74480  0.33680  0.84510  1.0000
  C   C85       1.0  0.66420  0.12266  0.38881  1.0000
  C   C86       1.0  0.33580  0.62266  0.11119  1.0000
  C   C87       1.0  0.33580  0.87734  0.61119  1.0000
  C   C88       1.0  0.66420  0.37734  0.88881  1.0000
  H   H65       1.0  0.70560  0.09300  0.39730  1.0000
  H   H66       1.0  0.29440  0.59300  0.10270  1.0000
  H   H67       1.0  0.29440  0.90700  0.60270  1.0000
  H   H68       1.0  0.70560  0.40700  0.89730  1.0000
  C   C89       1.0  0.55180  0.08071  0.43928  1.0000
  C   C90       1.0  0.44820  0.58071  0.06072  1.0000
  C   C91       1.0  0.44820  0.91929  0.56072  1.0000
  C   C92       1.0  0.55180  0.41929  0.93928  1.0000
  C   C93       1.0  0.41050  0.26880  0.37960  1.0000
  C   C94       1.0  0.58950  0.76880  0.12040  1.0000
  C   C95       1.0  0.58950  0.73120  0.62040  1.0000
  C   C96       1.0  0.41050  0.23120  0.87960  1.0000
  H   H69       1.0  0.38350  0.30440  0.37090  1.0000
  H   H70       1.0  0.61650  0.80440  0.12910  1.0000
  H   H71       1.0  0.61650  0.69560  0.62910  1.0000
  H   H72       1.0  0.38350  0.19560  0.87090  1.0000
  H   H73       1.0  0.36170  0.24160  0.36790  1.0000
  H   H74       1.0  0.63830  0.74160  0.13210  1.0000
  H   H75       1.0  0.63830  0.75840  0.63210  1.0000
  H   H76       1.0  0.36170  0.25840  0.86790  1.0000
  H   H77       1.0  0.43200  0.26610  0.41630  1.0000
  H   H78       1.0  0.56800  0.76610  0.08370  1.0000
  H   H79       1.0  0.56800  0.73390  0.58370  1.0000
  H   H80       1.0  0.43200  0.23390  0.91630  1.0000
  C   C97       1.0  0.60730  0.40046  0.11432  1.0000
  C   C98       1.0  0.39270  0.90046  0.38568  1.0000
  C   C99       1.0  0.39270  0.59954  0.88568  1.0000
  C   C100      1.0  0.60730  0.09954  0.61432  1.0000
  C   C101      1.0  0.69550  0.38710  0.14610  1.0000
  C   C102      1.0  0.30450  0.88710  0.35390  1.0000
  C   C103      1.0  0.30450  0.61290  0.85390  1.0000
  C   C104      1.0  0.69550  0.11290  0.64610  1.0000
  H   H81       1.0  0.75320  0.39790  0.13710  1.0000
  H   H82       1.0  0.24680  0.89790  0.36290  1.0000
  H   H83       1.0  0.24680  0.60210  0.86290  1.0000
  H   H84       1.0  0.75320  0.10210  0.63710  1.0000
  C   C105      1.0  0.69870  0.35790  0.19120  1.0000
  C   C106      1.0  0.30130  0.85790  0.30880  1.0000
  C   C107      1.0  0.30130  0.64210  0.80880  1.0000
  C   C108      1.0  0.69870  0.14210  0.69120  1.0000
  C   C109      1.0  0.61170  0.33868  0.20118  1.0000
  C   C110      1.0  0.38830  0.83868  0.29882  1.0000
  C   C111      1.0  0.38830  0.66132  0.79882  1.0000
  C   C112      1.0  0.61170  0.16132  0.70118  1.0000
  C   C113      1.0  0.52820  0.34990  0.16950  1.0000
  C   C114      1.0  0.47180  0.84990  0.33050  1.0000
  C   C115      1.0  0.47180  0.65010  0.83050  1.0000
  C   C116      1.0  0.52820  0.15010  0.66950  1.0000
  H   H85       1.0  0.47030  0.33700  0.17690  1.0000
  H   H86       1.0  0.52970  0.83700  0.32310  1.0000
  H   H87       1.0  0.52970  0.66300  0.82310  1.0000
  H   H88       1.0  0.47030  0.16300  0.67690  1.0000
  C   C117      1.0  0.52590  0.38080  0.12540  1.0000
  C   C118      1.0  0.47410  0.88080  0.37460  1.0000
  C   C119      1.0  0.47410  0.61920  0.87460  1.0000
  C   C120      1.0  0.52590  0.11920  0.62540  1.0000
  H   H89       1.0  0.46660  0.38790  0.10330  1.0000
  H   H90       1.0  0.53340  0.88790  0.39670  1.0000
  H   H91       1.0  0.53340  0.61210  0.89670  1.0000
  H   H92       1.0  0.46660  0.11210  0.60330  1.0000
  C   C121      1.0  0.60720  0.43846  0.07055  1.0000
  C   C122      1.0  0.39280  0.93846  0.42945  1.0000
  C   C123      1.0  0.39280  0.56154  0.92945  1.0000
  C   C124      1.0  0.60720  0.06154  0.57055  1.0000
  C   C125      1.0  0.86520  0.39120  0.23160  1.0000
  C   C126      1.0  0.13480  0.89120  0.26840  1.0000
  C   C127      1.0  0.13480  0.60880  0.76840  1.0000
  C   C128      1.0  0.86520  0.10880  0.73160  1.0000
  H   H93       1.0  0.91280  0.38810  0.26310  1.0000
  H   H94       1.0  0.08720  0.88810  0.23690  1.0000
  H   H95       1.0  0.08720  0.61190  0.73690  1.0000
  H   H96       1.0  0.91280  0.11190  0.76310  1.0000
  H   H97       1.0  0.89230  0.37800  0.20350  1.0000
  H   H98       1.0  0.10770  0.87800  0.29650  1.0000
  H   H99       1.0  0.10770  0.62200  0.79650  1.0000
  H   H100      1.0  0.89230  0.12200  0.70350  1.0000
  H   H101      1.0  0.84670  0.42870  0.22560  1.0000
  H   H102      1.0  0.15330  0.92870  0.27440  1.0000
  H   H103      1.0  0.15330  0.57130  0.77440  1.0000
  H   H104      1.0  0.84670  0.07130  0.72560  1.0000
  C   C129      1.0  0.85230  0.03145  0.32657  1.0000
  C   C130      1.0  0.14770  0.53145  0.17343  1.0000
  C   C131      1.0  0.14770  0.96855  0.67343  1.0000
  C   C132      1.0  0.85230  0.46855  0.82657  1.0000
  C   C133      1.0  0.92230  0.06210  0.30891  1.0000
  C   C134      1.0  0.07770  0.56210  0.19109  1.0000
  C   C135      1.0  0.07770  0.93790  0.69109  1.0000
  C   C136      1.0  0.92230  0.43790  0.80891  1.0000
  H   H105      1.0  0.98720  0.06000  0.32570  1.0000
  H   H106      1.0  0.01280  0.56000  0.17430  1.0000
  H   H107      1.0  0.01280  0.94000  0.67430  1.0000
  H   H108      1.0  0.98720  0.44000  0.82570  1.0000
  C   C137      1.0  0.89530  0.09590  0.26610  1.0000
  C   C138      1.0  0.10470  0.59590  0.23390  1.0000
  C   C139      1.0  0.10470  0.90410  0.73390  1.0000
  C   C140      1.0  0.89530  0.40410  0.76610  1.0000
  C   C141      1.0  0.79810  0.10101  0.24319  1.0000
  C   C142      1.0  0.20190  0.60101  0.25681  1.0000
  C   C143      1.0  0.20190  0.89899  0.75681  1.0000
  C   C144      1.0  0.79810  0.39899  0.74319  1.0000
  C   C145      1.0  0.72900  0.07116  0.26085  1.0000
  C   C146      1.0  0.27100  0.57116  0.23915  1.0000
  C   C147      1.0  0.27100  0.92884  0.73915  1.0000
  C   C148      1.0  0.72900  0.42884  0.76085  1.0000
  H   H109      1.0  0.66380  0.07410  0.24470  1.0000
  H   H110      1.0  0.33620  0.57410  0.25530  1.0000
  H   H111      1.0  0.33620  0.92590  0.75530  1.0000
  H   H112      1.0  0.66380  0.42590  0.74470  1.0000
  C   C149      1.0  0.75650  0.03647  0.30308  1.0000
  C   C150      1.0  0.24350  0.53647  0.19692  1.0000
  C   C151      1.0  0.24350  0.96353  0.69692  1.0000
  C   C152      1.0  0.75650  0.46353  0.80308  1.0000
  H   H113      1.0  0.70950  0.01670  0.31530  1.0000
  H   H114      1.0  0.29050  0.51670  0.18470  1.0000
  H   H115      1.0  0.29050  0.98330  0.68470  1.0000
  H   H116      1.0  0.70950  0.48330  0.81530  1.0000
  C   C153      1.0  0.88160  0.99425  0.37205  1.0000
  C   C154      1.0  0.11840  0.49425  0.12795  1.0000
  C   C155      1.0  0.11840  0.00575  0.62795  1.0000
  C   C156      1.0  0.88160  0.50575  0.87205  1.0000
  C   C157      1.0  0.05830  0.11990  0.26670  1.0000
  C   C158      1.0  0.94170  0.61990  0.23330  1.0000
  C   C159      1.0  0.94170  0.88010  0.73330  1.0000
  C   C160      1.0  0.05830  0.38010  0.76670  1.0000
  H   H117      1.0  0.09600  0.14330  0.24940  1.0000
  H   H118      1.0  0.90400  0.64330  0.25060  1.0000
  H   H119      1.0  0.90400  0.85670  0.75060  1.0000
  H   H120      1.0  0.09600  0.35670  0.74940  1.0000
  H   H121      1.0  0.07060  0.12880  0.30270  1.0000
  H   H122      1.0  0.92940  0.62880  0.19730  1.0000
  H   H123      1.0  0.92940  0.87120  0.69730  1.0000
  H   H124      1.0  0.07060  0.37120  0.80270  1.0000
  H   H125      1.0  0.07620  0.08260  0.26260  1.0000
  H   H126      1.0  0.92380  0.58260  0.23740  1.0000
  H   H127      1.0  0.92380  0.91740  0.73740  1.0000
  H   H128      1.0  0.07620  0.41740  0.76260  1.0000
  C   C161      1.0  0.90280  0.31038  0.09403  1.0000
  C   C162      1.0  0.09720  0.81038  0.40597  1.0000
  C   C163      1.0  0.09720  0.68962  0.90597  1.0000
  C   C164      1.0  0.90280  0.18962  0.59403  1.0000
  C   C165      1.0  0.81420  0.29804  0.06089  1.0000
  C   C166      1.0  0.18580  0.79804  0.43911  1.0000
  C   C167      1.0  0.18580  0.70196  0.93911  1.0000
  C   C168      1.0  0.81420  0.20196  0.56089  1.0000
  H   H129      1.0  0.79860  0.31430  0.02850  1.0000
  H   H130      1.0  0.20140  0.81430  0.47150  1.0000
  H   H131      1.0  0.20140  0.68570  0.97150  1.0000
  H   H132      1.0  0.79860  0.18570  0.52850  1.0000
  C   C169      1.0  0.74930  0.26175  0.07588  1.0000
  C   C170      1.0  0.25070  0.76175  0.42412  1.0000
  C   C171      1.0  0.25070  0.73825  0.92412  1.0000
  C   C172      1.0  0.74930  0.23825  0.57588  1.0000
  C   C173      1.0  0.77630  0.23632  0.12408  1.0000
  C   C174      1.0  0.22370  0.73632  0.37592  1.0000
  C   C175      1.0  0.22370  0.76368  0.87592  1.0000
  C   C176      1.0  0.77630  0.26368  0.62408  1.0000
  C   C177      1.0  0.86160  0.24860  0.15744  1.0000
  C   C178      1.0  0.13840  0.74860  0.34256  1.0000
  C   C179      1.0  0.13840  0.75140  0.84256  1.0000
  C   C180      1.0  0.86160  0.25140  0.65744  1.0000
  H   H133      1.0  0.87750  0.23200  0.18960  1.0000
  H   H134      1.0  0.12250  0.73200  0.31040  1.0000
  H   H135      1.0  0.12250  0.76800  0.81040  1.0000
  H   H136      1.0  0.87750  0.26800  0.68960  1.0000
  C   C181      1.0  0.92430  0.28640  0.14241  1.0000
  C   C182      1.0  0.07570  0.78640  0.35759  1.0000
  C   C183      1.0  0.07570  0.71360  0.85759  1.0000
  C   C184      1.0  0.92430  0.21360  0.64241  1.0000
  H   H137      1.0  0.98160  0.29570  0.16520  1.0000
  H   H138      1.0  0.01840  0.79570  0.33480  1.0000
  H   H139      1.0  0.01840  0.70430  0.83480  1.0000
  H   H140      1.0  0.98160  0.20430  0.66520  1.0000
  C   C185      1.0  0.97020  0.34971  0.07648  1.0000
  C   C186      1.0  0.02980  0.84971  0.42352  1.0000
  C   C187      1.0  0.02980  0.65029  0.92352  1.0000
  C   C188      1.0  0.97020  0.15029  0.57648  1.0000
  C   C189      1.0  0.62570  0.28080  0.00267  1.0000
  C   C190      1.0  0.37430  0.78080  0.49733  1.0000
  C   C191      1.0  0.37430  0.71920  0.99733  1.0000
  C   C192      1.0  0.62570  0.21920  0.50267  1.0000
  H   H141      1.0  0.56230  0.26820  0.98590  1.0000
  H   H142      1.0  0.43770  0.76820  0.51410  1.0000
  H   H143      1.0  0.43770  0.73180  0.01410  1.0000
  H   H144      1.0  0.56230  0.23180  0.48590  1.0000
  H   H145      1.0  0.62190  0.31840  0.01220  1.0000
  H   H146      1.0  0.37810  0.81840  0.48780  1.0000
  H   H147      1.0  0.37810  0.68160  0.98780  1.0000
  H   H148      1.0  0.62190  0.18160  0.51220  1.0000
  H   H149      1.0  0.66970  0.27710  0.97960  1.0000
  H   H150      1.0  0.33030  0.77710  0.52040  1.0000
  H   H151      1.0  0.33030  0.72290  0.02040  1.0000
  H   H152      1.0  0.66970  0.22290  0.47960  1.0000
  C   C193      1.0  0.16550  0.97255  0.50059  1.0000
  C   C194      1.0  0.83450  0.47255  0.99941  1.0000
  C   C195      1.0  0.83450  0.02745  0.49941  1.0000
  C   C196      1.0  0.16550  0.52745  0.00059  1.0000
  H   H153      1.0  0.19150  0.94130  0.48890  1.0000
  H   H154      1.0  0.80850  0.44130  0.01110  1.0000
  H   H155      1.0  0.80850  0.05870  0.51110  1.0000
  H   H156      1.0  0.19150  0.55870  0.98890  1.0000
