data_image0
_chemical_formula_structural       Zn4O32C16
_chemical_formula_sum              "Zn4 O32 C16"
_cell_length_a       7.638
_cell_length_b       17.163
_cell_length_c       9.524
_cell_angle_alpha    90
_cell_angle_beta     93.32
_cell_angle_gamma    90

_space_group_name_H-M_alt    "P 1"
_space_group_IT_number       1

loop_
  _space_group_symop_operation_xyz
  'x, y, z'

loop_
  _atom_site_type_symbol
  _atom_site_label
  _atom_site_symmetry_multiplicity
  _atom_site_fract_x
  _atom_site_fract_y
  _atom_site_fract_z
  _atom_site_occupancy
  Zn  Zn1       1.0  0.15007  0.54810  0.76077  1.0000
  Zn  Zn2       1.0  0.34993  0.04810  0.73923  1.0000
  Zn  Zn3       1.0  0.84993  0.45190  0.23923  1.0000
  Zn  Zn4       1.0  0.65007  0.95190  0.26077  1.0000
  O   O1        1.0  0.05050  0.44820  0.85040  1.0000
  O   O2        1.0  0.44950  0.94820  0.64960  1.0000
  O   O3        1.0  0.94950  0.55180  0.14960  1.0000
  O   O4        1.0  0.55050  0.05180  0.35040  1.0000
  O   O5        1.0  0.92530  0.56750  0.62000  1.0000
  O   O6        1.0  0.57470  0.06750  0.88000  1.0000
  O   O7        1.0  0.07470  0.43250  0.38000  1.0000
  O   O8        1.0  0.42530  0.93250  0.12000  1.0000
  O   O9        1.0  0.41620  0.54020  0.81000  1.0000
  O   O10       1.0  0.08380  0.04020  0.69000  1.0000
  O   O11       1.0  0.58380  0.45980  0.19000  1.0000
  O   O12       1.0  0.91620  0.95980  0.31000  1.0000
  O   O13       1.0  0.22650  0.65940  0.70580  1.0000
  O   O14       1.0  0.27350  0.15940  0.79420  1.0000
  O   O15       1.0  0.77350  0.34060  0.29420  1.0000
  O   O16       1.0  0.72650  0.84060  0.20580  1.0000
  O   O17       1.0  0.91050  0.40960  0.03860  1.0000
  O   O18       1.0  0.58950  0.90960  0.46140  1.0000
  O   O19       1.0  0.08950  0.59040  0.96140  1.0000
  O   O20       1.0  0.41050  0.09040  0.53860  1.0000
  O   O21       1.0  0.79750  0.52520  0.41600  1.0000
  O   O22       1.0  0.70250  0.02520  0.08400  1.0000
  O   O23       1.0  0.20250  0.47480  0.58400  1.0000
  O   O24       1.0  0.29750  0.97480  0.91600  1.0000
  O   O25       1.0  0.44690  0.74070  0.75300  1.0000
  O   O26       1.0  0.05310  0.24070  0.74700  1.0000
  O   O27       1.0  0.55310  0.25930  0.24700  1.0000
  O   O28       1.0  0.94690  0.75930  0.25300  1.0000
  O   O29       1.0  0.64920  0.61920  0.84390  1.0000
  O   O30       1.0  0.85080  0.11920  0.65610  1.0000
  O   O31       1.0  0.35080  0.38080  0.15610  1.0000
  O   O32       1.0  0.14920  0.88080  0.34390  1.0000
  C   C1        1.0  0.92160  0.52670  0.51010  1.0000
  C   C2        1.0  0.57840  0.02670  0.98990  1.0000
  C   C3        1.0  0.07840  0.47330  0.48990  1.0000
  C   C4        1.0  0.42160  0.97330  0.01010  1.0000
  C   C5        1.0  0.49570  0.60540  0.80800  1.0000
  C   C6        1.0  0.00430  0.10540  0.69200  1.0000
  C   C7        1.0  0.50430  0.39460  0.19200  1.0000
  C   C8        1.0  0.99570  0.89460  0.30800  1.0000
  C   C9        1.0  0.38060  0.67460  0.75270  1.0000
  C   C10       1.0  0.11940  0.17460  0.74730  1.0000
  C   C11       1.0  0.61940  0.32540  0.24730  1.0000
  C   C12       1.0  0.88060  0.82540  0.25270  1.0000
  C   C13       1.0  0.99120  0.45850  0.96930  1.0000
  C   C14       1.0  0.50880  0.95850  0.53070  1.0000
  C   C15       1.0  0.00880  0.54150  0.03070  1.0000
  C   C16       1.0  0.49120  0.04150  0.46930  1.0000
