data_image0
_chemical_formula_structural       Zn2O14H2O12C6H2C2H2C6H2C10H2C2H2C10H8
_chemical_formula_sum              "Zn2 O26 H20 C36"
_cell_length_a       9.1366
_cell_length_b       10.2048
_cell_length_c       20.1133
_cell_angle_alpha    79.383
_cell_angle_beta     76.901
_cell_angle_gamma    77.65

_space_group_name_H-M_alt    "P 1"
_space_group_IT_number       1

loop_
  _space_group_symop_operation_xyz
  'x, y, z'

loop_
  _atom_site_type_symbol
  _atom_site_label
  _atom_site_symmetry_multiplicity
  _atom_site_fract_x
  _atom_site_fract_y
  _atom_site_fract_z
  _atom_site_occupancy
  Zn  Zn1       1.0  0.23550  0.17071  0.42307  1.0000
  Zn  Zn2       1.0  0.76450  0.82929  0.57693  1.0000
  O   O1        1.0  0.16309  0.92259  0.44111  1.0000
  O   O2        1.0  0.83691  0.07741  0.55889  1.0000
  O   O3        1.0  0.38009  0.99462  0.42561  1.0000
  O   O4        1.0  0.61991  0.00538  0.57439  1.0000
  O   O5        1.0  0.87244  0.67304  0.39380  1.0000
  O   O6        1.0  0.12756  0.32696  0.60620  1.0000
  O   O7        1.0  0.86947  0.45180  0.41084  1.0000
  O   O8        1.0  0.13053  0.54820  0.58916  1.0000
  O   O9        1.0  0.17275  0.45241  0.41256  1.0000
  O   O10       1.0  0.82725  0.54759  0.58744  1.0000
  O   O11       1.0  0.37720  0.29415  0.42364  1.0000
  O   O12       1.0  0.62280  0.70585  0.57636  1.0000
  O   O13       1.0  0.08580  0.18530  0.51058  1.0000
  O   O14       1.0  0.91420  0.81470  0.48942  1.0000
  H   H1        1.0  0.01912  0.14159  0.51226  1.0000
  H   H2        1.0  0.98088  0.85841  0.48774  1.0000
  O   O15       1.0  0.12349  0.22137  0.34719  1.0000
  O   O16       1.0  0.87651  0.77863  0.65281  1.0000
  O   O17       1.0  0.35140  0.23220  0.28078  1.0000
  O   O18       1.0  0.64860  0.76780  0.71922  1.0000
  O   O19       1.0  0.68949  0.49960  0.13267  1.0000
  O   O20       1.0  0.31051  0.50040  0.86733  1.0000
  O   O21       1.0  0.66740  0.45620  0.24610  1.0000
  O   O22       1.0  0.33260  0.54380  0.75390  1.0000
  O   O23       1.0  0.18260  0.38040  0.98491  1.0000
  O   O24       1.0  0.81740  0.61960  0.01509  1.0000
  O   O25       1.0  0.39800  0.33360  0.02411  1.0000
  O   O26       1.0  0.60200  0.66640  0.97589  1.0000
  C   C1        1.0  0.30430  0.90038  0.43261  1.0000
  C   C2        1.0  0.69570  0.09962  0.56739  1.0000
  C   C3        1.0  0.39360  0.75937  0.42653  1.0000
  C   C4        1.0  0.60640  0.24063  0.57347  1.0000
  C   C5        1.0  0.31760  0.65541  0.42513  1.0000
  C   C6        1.0  0.68240  0.34459  0.57487  1.0000
  H   H3        1.0  0.21205  0.67338  0.42924  1.0000
  H   H4        1.0  0.78795  0.32662  0.57076  1.0000
  C   C7        1.0  0.55190  0.73210  0.41948  1.0000
  C   C8        1.0  0.44810  0.26790  0.58052  1.0000
  H   H5        1.0  0.60369  0.80105  0.41990  1.0000
  H   H6        1.0  0.39631  0.19895  0.58010  1.0000
  C   C9        1.0  0.63320  0.60175  0.41181  1.0000
  C   C10       1.0  0.36680  0.39825  0.58819  1.0000
  C   C11       1.0  0.80290  0.57970  0.40462  1.0000
  C   C12       1.0  0.19710  0.42030  0.59538  1.0000
  C   C13       1.0  0.55680  0.49763  0.41115  1.0000
  C   C14       1.0  0.44320  0.50237  0.58885  1.0000
  H   H7        1.0  0.61118  0.41064  0.40642  1.0000
  H   H8        1.0  0.38882  0.58936  0.59358  1.0000
  C   C15       1.0  0.39810  0.52470  0.41764  1.0000
  C   C16       1.0  0.60190  0.47530  0.58236  1.0000
  C   C17       1.0  0.30830  0.41673  0.41763  1.0000
  C   C18       1.0  0.69170  0.58327  0.58237  1.0000
  C   C19       1.0  0.21060  0.24770  0.28974  1.0000
  C   C20       1.0  0.78940  0.75230  0.71026  1.0000
  C   C21       1.0  0.13680  0.30200  0.22810  1.0000
  C   C22       1.0  0.86320  0.69800  0.77190  1.0000
  C   C23       1.0  0.98030  0.35120  0.23613  1.0000
  C   C24       1.0  0.01970  0.64880  0.76387  1.0000
  H   H9        1.0  0.91999  0.35208  0.28007  1.0000
  H   H10       1.0  0.08001  0.64792  0.71993  1.0000
  C   C25       1.0  0.22770  0.30270  0.16266  1.0000
  C   C26       1.0  0.77230  0.69730  0.83734  1.0000
  H   H11       1.0  0.33274  0.27320  0.15754  1.0000
  H   H12       1.0  0.66726  0.72680  0.84246  1.0000
  C   C27       1.0  0.91440  0.39910  0.17828  1.0000
  C   C28       1.0  0.08560  0.60090  0.82172  1.0000
  C   C29       1.0  0.16190  0.34730  0.10490  1.0000
  C   C30       1.0  0.83810  0.65270  0.89510  1.0000
  C   C31       1.0  0.74480  0.45520  0.18813  1.0000
  C   C32       1.0  0.25520  0.54480  0.81187  1.0000
  C   C33       1.0  0.26060  0.35260  0.03468  1.0000
  C   C34       1.0  0.73940  0.64740  0.96532  1.0000
  C   C35       1.0  0.00480  0.39450  0.11297  1.0000
  C   C36       1.0  0.99520  0.60550  0.88703  1.0000
  H   H13       1.0  0.96037  0.42322  0.07427  1.0000
  H   H14       1.0  0.03963  0.57678  0.92573  1.0000
  H   H15       1.0  0.09526  0.22585  0.54424  1.0000
  H   H16       1.0  0.90474  0.77415  0.45576  1.0000
  H   H17       1.0  0.24258  0.39833  0.94897  1.0000
  H   H18       1.0  0.75742  0.60167  0.05103  1.0000
  H   H19       1.0  0.96210  0.43400  0.41010  1.0000
  H   H20       1.0  0.03790  0.56600  0.58990  1.0000
