data_image0
_chemical_formula_structural       Zn8S8N12C4N12C8O4N16C4H12O4C4H12O8N4O4C4H12N4O12
_chemical_formula_sum              "Zn8 S8 N48 C24 O32 H36"
_cell_length_a       15.7886
_cell_length_b       15.9425
_cell_length_c       16.3286
_cell_angle_alpha    90
_cell_angle_beta     90
_cell_angle_gamma    90

_space_group_name_H-M_alt    "P 1"
_space_group_IT_number       1

loop_
  _space_group_symop_operation_xyz
  'x, y, z'

loop_
  _atom_site_type_symbol
  _atom_site_label
  _atom_site_symmetry_multiplicity
  _atom_site_fract_x
  _atom_site_fract_y
  _atom_site_fract_z
  _atom_site_occupancy
  Zn  Zn1       1.0  0.29782  0.18239  0.16349  1.0000
  Zn  Zn2       1.0  0.20218  0.81761  0.66349  1.0000
  Zn  Zn3       1.0  0.70218  0.68239  0.33651  1.0000
  Zn  Zn4       1.0  0.79782  0.31761  0.83651  1.0000
  Zn  Zn5       1.0  0.35625  0.84386  0.32429  1.0000
  Zn  Zn6       1.0  0.14375  0.15614  0.82429  1.0000
  Zn  Zn7       1.0  0.64375  0.34386  0.17571  1.0000
  Zn  Zn8       1.0  0.85625  0.65614  0.67571  1.0000
  S   S1        1.0  0.24380  0.72440  0.22320  1.0000
  S   S2        1.0  0.25620  0.27560  0.72320  1.0000
  S   S3        1.0  0.75620  0.22440  0.27680  1.0000
  S   S4        1.0  0.74380  0.77560  0.77680  1.0000
  S   S5        1.0  0.19250  0.28190  0.28610  1.0000
  S   S6        1.0  0.30750  0.71810  0.78610  1.0000
  S   S7        1.0  0.80750  0.78190  0.21390  1.0000
  S   S8        1.0  0.69250  0.21810  0.71390  1.0000
  N   N1        1.0  0.35690  0.95080  0.26370  1.0000
  N   N2        1.0  0.14310  0.04920  0.76370  1.0000
  N   N3        1.0  0.64310  0.45080  0.23630  1.0000
  N   N4        1.0  0.85690  0.54920  0.73630  1.0000
  N   N5        1.0  0.33860  0.07490  0.21410  1.0000
  N   N6        1.0  0.16140  0.92510  0.71410  1.0000
  N   N7        1.0  0.66140  0.57490  0.28590  1.0000
  N   N8        1.0  0.83860  0.42510  0.78590  1.0000
  N   N9        1.0  0.20170  0.14190  0.93120  1.0000
  N   N10       1.0  0.29830  0.85810  0.43120  1.0000
  N   N11       1.0  0.79830  0.64190  0.56880  1.0000
  N   N12       1.0  0.70170  0.35810  0.06880  1.0000
  C   C1        1.0  0.30180  0.01400  0.24910  1.0000
  C   C2        1.0  0.19820  0.98600  0.74910  1.0000
  C   C3        1.0  0.69820  0.51400  0.25090  1.0000
  C   C4        1.0  0.80180  0.48600  0.75090  1.0000
  N   N13       1.0  0.59950  0.75310  0.35240  1.0000
  N   N14       1.0  0.90050  0.24690  0.85240  1.0000
  N   N15       1.0  0.40050  0.25310  0.14760  1.0000
  N   N16       1.0  0.09950  0.74690  0.64760  1.0000
  N   N17       1.0  0.47580  0.81010  0.34990  1.0000
  N   N18       1.0  0.02420  0.18990  0.84990  1.0000
  N   N19       1.0  0.52420  0.31010  0.15010  1.0000
  N   N20       1.0  0.97580  0.68990  0.65010  1.0000
  N   N21       1.0  0.25290  0.15080  0.05370  1.0000
  N   N22       1.0  0.24710  0.84920  0.55370  1.0000
  N   N23       1.0  0.74710  0.65080  0.44630  1.0000
  N   N24       1.0  0.75290  0.34920  0.94630  1.0000
  C   C5        1.0  0.53380  0.77200  0.30570  1.0000
  C   C6        1.0  0.96620  0.22800  0.80570  1.0000
  C   C7        1.0  0.46620  0.27200  0.19430  1.0000
  C   C8        1.0  0.03380  0.72800  0.69430  1.0000
  C   C9        1.0  0.22180  0.19290  0.99030  1.0000
  C   C10       1.0  0.27820  0.80710  0.49030  1.0000
  C   C11       1.0  0.77820  0.69290  0.50970  1.0000
  C   C12       1.0  0.72180  0.30710  0.00970  1.0000
  O   O1        1.0  0.31980  0.74600  0.26580  1.0000
  O   O2        1.0  0.18020  0.25400  0.76580  1.0000
  O   O3        1.0  0.68020  0.24600  0.23420  1.0000
  O   O4        1.0  0.81980  0.75400  0.73420  1.0000
  N   N25       1.0  0.42360  0.05370  0.20660  1.0000
  N   N26       1.0  0.07640  0.94630  0.70660  1.0000
  N   N27       1.0  0.57640  0.55370  0.29340  1.0000
  N   N28       1.0  0.92360  0.44630  0.79340  1.0000
  N   N29       1.0  0.43470  0.98140  0.23800  1.0000
  N   N30       1.0  0.06530  0.01860  0.73800  1.0000
  N   N31       1.0  0.56530  0.48140  0.26200  1.0000
  N   N32       1.0  0.93470  0.51860  0.76200  1.0000
  N   N33       1.0  0.50360  0.81250  0.42840  1.0000
  N   N34       1.0  0.99640  0.18750  0.92840  1.0000
  N   N35       1.0  0.49640  0.31250  0.07160  1.0000
  N   N36       1.0  0.00360  0.68750  0.57160  1.0000
  N   N37       1.0  0.57910  0.77690  0.43060  1.0000
  N   N38       1.0  0.92090  0.22310  0.93060  1.0000
  N   N39       1.0  0.42090  0.27690  0.06940  1.0000
  N   N40       1.0  0.07910  0.72310  0.56940  1.0000
  C   C13       1.0  0.20990  0.00720  0.26110  1.0000
  C   C14       1.0  0.29010  0.99280  0.76110  1.0000
  C   C15       1.0  0.79010  0.50720  0.23890  1.0000
  C   C16       1.0  0.70990  0.49280  0.73890  1.0000
  H   H1        1.0  0.19720  0.95570  0.28900  1.0000
  H   H2        1.0  0.30280  0.04430  0.78900  1.0000
  H   H3        1.0  0.80280  0.45570  0.21100  1.0000
  H   H4        1.0  0.69720  0.54430  0.71100  1.0000
  H   H5        1.0  0.19040  0.05370  0.29330  1.0000
  H   H6        1.0  0.30960  0.94630  0.79330  1.0000
  H   H7        1.0  0.80960  0.55370  0.20670  1.0000
  H   H8        1.0  0.69040  0.44630  0.70670  1.0000
  H   H9        1.0  0.18210  0.00770  0.20880  1.0000
  H   H10       1.0  0.31790  0.99230  0.70880  1.0000
  H   H11       1.0  0.81790  0.50770  0.29120  1.0000
  H   H12       1.0  0.68210  0.49230  0.79120  1.0000
  O   O5        1.0  0.18470  0.79360  0.22070  1.0000
  O   O6        1.0  0.31530  0.20640  0.72070  1.0000
  O   O7        1.0  0.81530  0.29360  0.27930  1.0000
  O   O8        1.0  0.68470  0.70640  0.77930  1.0000
  C   C17       1.0  0.53000  0.75880  0.21910  1.0000
  C   C18       1.0  0.97000  0.24120  0.71910  1.0000
  C   C19       1.0  0.47000  0.25880  0.28090  1.0000
  C   C20       1.0  0.03000  0.74120  0.78090  1.0000
  H   H13       1.0  0.57990  0.72960  0.20140  1.0000
  H   H14       1.0  0.92010  0.27040  0.70140  1.0000
  H   H15       1.0  0.42010  0.22960  0.29860  1.0000
  H   H16       1.0  0.07990  0.77040  0.79860  1.0000
  H   H17       1.0  0.48080  0.72600  0.20600  1.0000
  H   H18       1.0  0.01920  0.27400  0.70600  1.0000
  H   H19       1.0  0.51920  0.22600  0.29400  1.0000
  H   H20       1.0  0.98080  0.77400  0.79400  1.0000
  H   H21       1.0  0.52670  0.81200  0.19170  1.0000
  H   H22       1.0  0.97330  0.18800  0.69170  1.0000
  H   H23       1.0  0.47330  0.31200  0.30830  1.0000
  H   H24       1.0  0.02670  0.68800  0.80830  1.0000
  O   O9        1.0  0.20700  0.65670  0.26900  1.0000
  O   O10       1.0  0.29300  0.34330  0.76900  1.0000
  O   O11       1.0  0.79300  0.15670  0.23100  1.0000
  O   O12       1.0  0.70700  0.84330  0.73100  1.0000
  O   O13       1.0  0.26690  0.69390  0.14640  1.0000
  O   O14       1.0  0.23310  0.30610  0.64640  1.0000
  O   O15       1.0  0.73310  0.19390  0.35360  1.0000
  O   O16       1.0  0.76690  0.80610  0.85360  1.0000
  N   N41       1.0  0.22220  0.06230  0.95910  1.0000
  N   N42       1.0  0.27780  0.93770  0.45910  1.0000
  N   N43       1.0  0.77780  0.56230  0.54090  1.0000
  N   N44       1.0  0.72220  0.43770  0.04090  1.0000
  O   O17       1.0  0.20260  0.23290  0.21200  1.0000
  O   O18       1.0  0.29740  0.76710  0.71200  1.0000
  O   O19       1.0  0.79740  0.73290  0.28800  1.0000
  O   O20       1.0  0.70260  0.26710  0.78800  1.0000
  C   C21       1.0  0.20930  0.28330  0.98930  1.0000
  C   C22       1.0  0.29070  0.71670  0.48930  1.0000
  C   C23       1.0  0.79070  0.78330  0.51070  1.0000
  C   C24       1.0  0.70930  0.21670  0.01070  1.0000
  H   H25       1.0  0.22920  0.30680  0.03990  1.0000
  H   H26       1.0  0.27080  0.69320  0.53990  1.0000
  H   H27       1.0  0.77080  0.80680  0.46010  1.0000
  H   H28       1.0  0.72920  0.19320  0.96010  1.0000
  H   H29       1.0  0.24040  0.30720  0.94450  1.0000
  H   H30       1.0  0.25960  0.69280  0.44450  1.0000
  H   H31       1.0  0.75960  0.80720  0.55550  1.0000
  H   H32       1.0  0.74040  0.19280  0.05550  1.0000
  H   H33       1.0  0.15010  0.29550  0.98280  1.0000
  H   H34       1.0  0.34990  0.70450  0.48280  1.0000
  H   H35       1.0  0.84990  0.79550  0.51720  1.0000
  H   H36       1.0  0.65010  0.20450  0.01720  1.0000
  N   N45       1.0  0.25020  0.06980  0.03410  1.0000
  N   N46       1.0  0.24980  0.93020  0.53410  1.0000
  N   N47       1.0  0.74980  0.56980  0.46590  1.0000
  N   N48       1.0  0.75020  0.43020  0.96590  1.0000
  O   O21       1.0  0.11120  0.30400  0.29610  1.0000
  O   O22       1.0  0.38880  0.69600  0.79610  1.0000
  O   O23       1.0  0.88880  0.80400  0.20390  1.0000
  O   O24       1.0  0.61120  0.19600  0.70390  1.0000
  O   O25       1.0  0.25800  0.34450  0.29270  1.0000
  O   O26       1.0  0.24200  0.65550  0.79270  1.0000
  O   O27       1.0  0.74200  0.84450  0.20730  1.0000
  O   O28       1.0  0.75800  0.15550  0.70730  1.0000
  O   O29       1.0  0.21500  0.23700  0.35290  1.0000
  O   O30       1.0  0.28500  0.76300  0.85290  1.0000
  O   O31       1.0  0.78500  0.73700  0.14710  1.0000
  O   O32       1.0  0.71500  0.26300  0.64710  1.0000
