data_image0
_chemical_formula_structural       N8B8H8B8H8B8H8C8H8B8H8C8H8B8H8B8H8B8H8C8H8B8H8B8H8C8H8B8H8N8B8H8C8H8B8H8B8H8B8H8C8H8B8H8C8H8C8H8C8H8B8H8B8H8C8H8B8H8B8H8B8H8B8H8B8H8Ag8Sn16Ag8
_chemical_formula_sum              "N16 B176 H256 C80 Ag16 Sn16"
_cell_length_a       26.449
_cell_length_b       16.1365
_cell_length_c       24.1068
_cell_angle_alpha    90
_cell_angle_beta     114.725
_cell_angle_gamma    90

_space_group_name_H-M_alt    "P 1"
_space_group_IT_number       1

loop_
  _space_group_symop_operation_xyz
  'x, y, z'

loop_
  _atom_site_type_symbol
  _atom_site_label
  _atom_site_symmetry_multiplicity
  _atom_site_fract_x
  _atom_site_fract_y
  _atom_site_fract_z
  _atom_site_occupancy
  N   N1        1.0  0.09870  0.15855  0.40556  1.0000
  N   N2        1.0  0.90130  0.15855  0.09444  1.0000
  N   N3        1.0  0.59870  0.65855  0.40556  1.0000
  N   N4        1.0  0.40130  0.65855  0.09444  1.0000
  N   N5        1.0  0.90130  0.84145  0.59444  1.0000
  N   N6        1.0  0.09870  0.84145  0.90556  1.0000
  N   N7        1.0  0.40130  0.34145  0.59444  1.0000
  N   N8        1.0  0.59870  0.34145  0.90556  1.0000
  B   B1        1.0  0.13671  0.94100  0.16434  1.0000
  B   B2        1.0  0.86329  0.94100  0.33566  1.0000
  B   B3        1.0  0.63671  0.44100  0.16434  1.0000
  B   B4        1.0  0.36329  0.44100  0.33566  1.0000
  B   B5        1.0  0.86329  0.05900  0.83566  1.0000
  B   B6        1.0  0.13671  0.05900  0.66434  1.0000
  B   B7        1.0  0.36329  0.55900  0.83566  1.0000
  B   B8        1.0  0.63671  0.55900  0.66434  1.0000
  H   H1        1.0  0.15440  0.88930  0.14850  1.0000
  H   H2        1.0  0.84560  0.88930  0.35150  1.0000
  H   H3        1.0  0.65440  0.38930  0.14850  1.0000
  H   H4        1.0  0.34560  0.38930  0.35150  1.0000
  H   H5        1.0  0.84560  0.11070  0.85150  1.0000
  H   H6        1.0  0.15440  0.11070  0.64850  1.0000
  H   H7        1.0  0.34560  0.61070  0.85150  1.0000
  H   H8        1.0  0.65440  0.61070  0.64850  1.0000
  B   B9        1.0  0.15164  0.05190  0.26440  1.0000
  B   B10       1.0  0.84836  0.05190  0.23560  1.0000
  B   B11       1.0  0.65164  0.55190  0.26440  1.0000
  B   B12       1.0  0.34836  0.55190  0.23560  1.0000
  B   B13       1.0  0.84836  0.94810  0.73560  1.0000
  B   B14       1.0  0.15164  0.94810  0.76440  1.0000
  B   B15       1.0  0.34836  0.44810  0.73560  1.0000
  B   B16       1.0  0.65164  0.44810  0.76440  1.0000
  H   H9        1.0  0.17870  0.06960  0.31170  1.0000
  H   H10       1.0  0.82130  0.06960  0.18830  1.0000
  H   H11       1.0  0.67870  0.56960  0.31170  1.0000
  H   H12       1.0  0.32130  0.56960  0.18830  1.0000
  H   H13       1.0  0.82130  0.93040  0.68830  1.0000
  H   H14       1.0  0.17870  0.93040  0.81170  1.0000
  H   H15       1.0  0.32130  0.43040  0.68830  1.0000
  H   H16       1.0  0.67870  0.43040  0.81170  1.0000
  B   B17       1.0  0.14443  0.94660  0.24110  1.0000
  B   B18       1.0  0.85557  0.94660  0.25890  1.0000
  B   B19       1.0  0.64443  0.44660  0.24110  1.0000
  B   B20       1.0  0.35557  0.44660  0.25890  1.0000
  B   B21       1.0  0.85557  0.05340  0.75890  1.0000
  B   B22       1.0  0.14443  0.05340  0.74110  1.0000
  B   B23       1.0  0.35557  0.55340  0.75890  1.0000
  B   B24       1.0  0.64443  0.55340  0.74110  1.0000
  H   H17       1.0  0.16670  0.89850  0.27480  1.0000
  H   H18       1.0  0.83330  0.89850  0.22520  1.0000
  H   H19       1.0  0.66670  0.39850  0.27480  1.0000
  H   H20       1.0  0.33330  0.39850  0.22520  1.0000
  H   H21       1.0  0.83330  0.10150  0.72520  1.0000
  H   H22       1.0  0.16670  0.10150  0.77480  1.0000
  H   H23       1.0  0.33330  0.60150  0.72520  1.0000
  H   H24       1.0  0.66670  0.60150  0.77480  1.0000
  C   C1        1.0  0.15362  0.16400  0.42149  1.0000
  C   C2        1.0  0.84638  0.16400  0.07851  1.0000
  C   C3        1.0  0.65362  0.66400  0.42149  1.0000
  C   C4        1.0  0.34638  0.66400  0.07851  1.0000
  C   C5        1.0  0.84638  0.83600  0.57851  1.0000
  C   C6        1.0  0.15362  0.83600  0.92149  1.0000
  C   C7        1.0  0.34638  0.33600  0.57851  1.0000
  C   C8        1.0  0.65362  0.33600  0.92149  1.0000
  H   H25       1.0  0.16570  0.17840  0.39170  1.0000
  H   H26       1.0  0.83430  0.17840  0.10830  1.0000
  H   H27       1.0  0.66570  0.67840  0.39170  1.0000
  H   H28       1.0  0.33430  0.67840  0.10830  1.0000
  H   H29       1.0  0.83430  0.82160  0.60830  1.0000
  H   H30       1.0  0.16570  0.82160  0.89170  1.0000
  H   H31       1.0  0.33430  0.32160  0.60830  1.0000
  H   H32       1.0  0.66570  0.32160  0.89170  1.0000
  B   B25       1.0  0.07782  0.92670  0.18110  1.0000
  B   B26       1.0  0.92218  0.92670  0.31890  1.0000
  B   B27       1.0  0.57782  0.42670  0.18110  1.0000
  B   B28       1.0  0.42218  0.42670  0.31890  1.0000
  B   B29       1.0  0.92218  0.07330  0.81890  1.0000
  B   B30       1.0  0.07782  0.07330  0.68110  1.0000
  B   B31       1.0  0.42218  0.57330  0.81890  1.0000
  B   B32       1.0  0.57782  0.57330  0.68110  1.0000
  H   H33       1.0  0.05730  0.86610  0.17590  1.0000
  H   H34       1.0  0.94270  0.86610  0.32410  1.0000
  H   H35       1.0  0.55730  0.36610  0.17590  1.0000
  H   H36       1.0  0.44270  0.36610  0.32410  1.0000
  H   H37       1.0  0.94270  0.13390  0.82410  1.0000
  H   H38       1.0  0.05730  0.13390  0.67590  1.0000
  H   H39       1.0  0.44270  0.63390  0.82410  1.0000
  H   H40       1.0  0.55730  0.63390  0.67590  1.0000
  C   C9        1.0  0.08246  0.13810  0.44959  1.0000
  C   C10       1.0  0.91754  0.13810  0.05041  1.0000
  C   C11       1.0  0.58246  0.63810  0.44959  1.0000
  C   C12       1.0  0.41754  0.63810  0.05041  1.0000
  C   C13       1.0  0.91754  0.86190  0.55041  1.0000
  C   C14       1.0  0.08246  0.86190  0.94959  1.0000
  C   C15       1.0  0.41754  0.36190  0.55041  1.0000
  C   C16       1.0  0.58246  0.36190  0.94959  1.0000
  H   H41       1.0  0.04460  0.13470  0.43970  1.0000
  H   H42       1.0  0.95540  0.13470  0.06030  1.0000
  H   H43       1.0  0.54460  0.63470  0.43970  1.0000
  H   H44       1.0  0.45540  0.63470  0.06030  1.0000
  H   H45       1.0  0.95540  0.86530  0.56030  1.0000
  H   H46       1.0  0.04460  0.86530  0.93970  1.0000
  H   H47       1.0  0.45540  0.36530  0.56030  1.0000
  H   H48       1.0  0.54460  0.36530  0.93970  1.0000
  B   B33       1.0  0.18005  0.01870  0.21340  1.0000
  B   B34       1.0  0.81995  0.01870  0.28660  1.0000
  B   B35       1.0  0.68005  0.51870  0.21340  1.0000
  B   B36       1.0  0.31995  0.51870  0.28660  1.0000
  B   B37       1.0  0.81995  0.98130  0.78660  1.0000
  B   B38       1.0  0.18005  0.98130  0.71340  1.0000
  B   B39       1.0  0.31995  0.48130  0.78660  1.0000
  B   B40       1.0  0.68005  0.48130  0.71340  1.0000
  H   H49       1.0  0.22550  0.01750  0.22920  1.0000
  H   H50       1.0  0.77450  0.01750  0.27080  1.0000
  H   H51       1.0  0.72550  0.51750  0.22920  1.0000
  H   H52       1.0  0.27450  0.51750  0.27080  1.0000
  H   H53       1.0  0.77450  0.98250  0.77080  1.0000
  H   H54       1.0  0.22550  0.98250  0.72920  1.0000
  H   H55       1.0  0.27450  0.48250  0.77080  1.0000
  H   H56       1.0  0.72550  0.48250  0.72920  1.0000
  B   B41       1.0  0.06782  0.52370  0.35550  1.0000
  B   B42       1.0  0.93218  0.52370  0.14450  1.0000
  B   B43       1.0  0.56782  0.02370  0.35550  1.0000
  B   B44       1.0  0.43218  0.02370  0.14450  1.0000
  B   B45       1.0  0.93218  0.47630  0.64450  1.0000
  B   B46       1.0  0.06782  0.47630  0.85550  1.0000
  B   B47       1.0  0.43218  0.97630  0.64450  1.0000
  B   B48       1.0  0.56782  0.97630  0.85550  1.0000
  H   H57       1.0  0.03680  0.55210  0.31360  1.0000
  H   H58       1.0  0.96320  0.55210  0.18640  1.0000
  H   H59       1.0  0.53680  0.05210  0.31360  1.0000
  H   H60       1.0  0.46320  0.05210  0.18640  1.0000
  H   H61       1.0  0.96320  0.44790  0.68640  1.0000
  H   H62       1.0  0.03680  0.44790  0.81360  1.0000
  H   H63       1.0  0.46320  0.94790  0.68640  1.0000
  H   H64       1.0  0.53680  0.94790  0.81360  1.0000
  B   B49       1.0  0.15791  0.39520  0.42010  1.0000
  B   B50       1.0  0.84209  0.39520  0.07990  1.0000
  B   B51       1.0  0.65791  0.89520  0.42010  1.0000
  B   B52       1.0  0.34209  0.89520  0.07990  1.0000
  B   B53       1.0  0.84209  0.60480  0.57990  1.0000
  B   B54       1.0  0.15791  0.60480  0.92010  1.0000
  B   B55       1.0  0.34209  0.10480  0.57990  1.0000
  B   B56       1.0  0.65791  0.10480  0.92010  1.0000
  H   H65       1.0  0.18380  0.34240  0.41890  1.0000
  H   H66       1.0  0.81620  0.34240  0.08110  1.0000
  H   H67       1.0  0.68380  0.84240  0.41890  1.0000
  H   H68       1.0  0.31620  0.84240  0.08110  1.0000
  H   H69       1.0  0.81620  0.65760  0.58110  1.0000
  H   H70       1.0  0.18380  0.65760  0.91890  1.0000
  H   H71       1.0  0.31620  0.15760  0.58110  1.0000
  H   H72       1.0  0.68380  0.15760  0.91890  1.0000
  C   C17       1.0  0.17630  0.12720  0.52459  1.0000
  C   C18       1.0  0.82370  0.12720  0.97541  1.0000
  C   C19       1.0  0.67630  0.62720  0.52459  1.0000
  C   C20       1.0  0.32370  0.62720  0.97541  1.0000
  C   C21       1.0  0.82370  0.87280  0.47541  1.0000
  C   C22       1.0  0.17630  0.87280  0.02459  1.0000
  C   C23       1.0  0.32370  0.37280  0.47541  1.0000
  C   C24       1.0  0.67630  0.37280  0.02459  1.0000
  H   H73       1.0  0.20210  0.11620  0.56420  1.0000
  H   H74       1.0  0.79790  0.11620  0.93580  1.0000
  H   H75       1.0  0.70210  0.61620  0.56420  1.0000
  H   H76       1.0  0.29790  0.61620  0.93580  1.0000
  H   H77       1.0  0.79790  0.88380  0.43580  1.0000
  H   H78       1.0  0.20210  0.88380  0.06420  1.0000
  H   H79       1.0  0.29790  0.38380  0.43580  1.0000
  H   H80       1.0  0.70210  0.38380  0.06420  1.0000
  B   B57       1.0  0.13285  0.57270  0.39750  1.0000
  B   B58       1.0  0.86715  0.57270  0.10250  1.0000
  B   B59       1.0  0.63285  0.07270  0.39750  1.0000
  B   B60       1.0  0.36715  0.07270  0.10250  1.0000
  B   B61       1.0  0.86715  0.42730  0.60250  1.0000
  B   B62       1.0  0.13285  0.42730  0.89750  1.0000
  B   B63       1.0  0.36715  0.92730  0.60250  1.0000
  B   B64       1.0  0.63285  0.92730  0.89750  1.0000
  H   H81       1.0  0.14230  0.63180  0.38120  1.0000
  H   H82       1.0  0.85770  0.63180  0.11880  1.0000
  H   H83       1.0  0.64230  0.13180  0.38120  1.0000
  H   H84       1.0  0.35770  0.13180  0.11880  1.0000
  H   H85       1.0  0.85770  0.36820  0.61880  1.0000
  H   H86       1.0  0.14230  0.36820  0.88120  1.0000
  H   H87       1.0  0.35770  0.86820  0.61880  1.0000
  H   H88       1.0  0.64230  0.86820  0.88120  1.0000
  B   B65       1.0  0.18572  0.49710  0.43520  1.0000
  B   B66       1.0  0.81428  0.49710  0.06480  1.0000
  B   B67       1.0  0.68572  0.99710  0.43520  1.0000
  B   B68       1.0  0.31428  0.99710  0.06480  1.0000
  B   B69       1.0  0.81428  0.50290  0.56480  1.0000
  B   B70       1.0  0.18572  0.50290  0.93520  1.0000
  B   B71       1.0  0.31428  0.00290  0.56480  1.0000
  B   B72       1.0  0.68572  0.00290  0.93520  1.0000
  H   H89       1.0  0.22930  0.50740  0.44310  1.0000
  H   H90       1.0  0.77070  0.50740  0.05690  1.0000
  H   H91       1.0  0.72930  0.00740  0.44310  1.0000
  H   H92       1.0  0.27070  0.00740  0.05690  1.0000
  H   H93       1.0  0.77070  0.49260  0.55690  1.0000
  H   H94       1.0  0.22930  0.49260  0.94310  1.0000
  H   H95       1.0  0.27070  0.99260  0.55690  1.0000
  H   H96       1.0  0.72930  0.99260  0.94310  1.0000
  C   C25       1.0  0.11969  0.12200  0.50880  1.0000
  C   C26       1.0  0.88031  0.12200  0.99120  1.0000
  C   C27       1.0  0.61969  0.62200  0.50880  1.0000
  C   C28       1.0  0.38031  0.62200  0.99120  1.0000
  C   C29       1.0  0.88031  0.87800  0.49120  1.0000
  C   C30       1.0  0.11969  0.87800  0.00880  1.0000
  C   C31       1.0  0.38031  0.37800  0.49120  1.0000
  C   C32       1.0  0.61969  0.37800  0.00880  1.0000
  H   H97       1.0  0.10680  0.10770  0.53800  1.0000
  H   H98       1.0  0.89320  0.10770  0.96200  1.0000
  H   H99       1.0  0.60680  0.60770  0.53800  1.0000
  H   H100      1.0  0.39320  0.60770  0.96200  1.0000
  H   H101      1.0  0.89320  0.89230  0.46200  1.0000
  H   H102      1.0  0.10680  0.89230  0.03800  1.0000
  H   H103      1.0  0.39320  0.39230  0.46200  1.0000
  H   H104      1.0  0.60680  0.39230  0.03800  1.0000
  B   B73       1.0  0.08436  0.99310  0.24300  1.0000
  B   B74       1.0  0.91564  0.99310  0.25700  1.0000
  B   B75       1.0  0.58436  0.49310  0.24300  1.0000
  B   B76       1.0  0.41564  0.49310  0.25700  1.0000
  B   B77       1.0  0.91564  0.00690  0.75700  1.0000
  B   B78       1.0  0.08436  0.00690  0.74300  1.0000
  B   B79       1.0  0.41564  0.50690  0.75700  1.0000
  B   B80       1.0  0.58436  0.50690  0.74300  1.0000
  H   H105      1.0  0.06860  0.97430  0.27680  1.0000
  H   H106      1.0  0.93140  0.97430  0.22320  1.0000
  H   H107      1.0  0.56860  0.47430  0.27680  1.0000
  H   H108      1.0  0.43140  0.47430  0.22320  1.0000
  H   H109      1.0  0.93140  0.02570  0.72320  1.0000
  H   H110      1.0  0.06860  0.02570  0.77680  1.0000
  H   H111      1.0  0.43140  0.52570  0.72320  1.0000
  H   H112      1.0  0.56860  0.52570  0.77680  1.0000
  N   N9        1.0  0.10762  0.34689  0.19609  1.0000
  N   N10       1.0  0.89238  0.34689  0.30391  1.0000
  N   N11       1.0  0.60762  0.84689  0.19609  1.0000
  N   N12       1.0  0.39238  0.84689  0.30391  1.0000
  N   N13       1.0  0.89238  0.65311  0.80391  1.0000
  N   N14       1.0  0.10762  0.65311  0.69609  1.0000
  N   N15       1.0  0.39238  0.15311  0.80391  1.0000
  N   N16       1.0  0.60762  0.15311  0.69609  1.0000
  B   B81       1.0  0.08243  0.56560  0.42920  1.0000
  B   B82       1.0  0.91757  0.56560  0.07080  1.0000
  B   B83       1.0  0.58243  0.06560  0.42920  1.0000
  B   B84       1.0  0.41757  0.06560  0.07080  1.0000
  B   B85       1.0  0.91757  0.43440  0.57080  1.0000
  B   B86       1.0  0.08243  0.43440  0.92920  1.0000
  B   B87       1.0  0.41757  0.93440  0.57080  1.0000
  B   B88       1.0  0.58243  0.93440  0.92920  1.0000
  H   H113      1.0  0.05920  0.62020  0.43320  1.0000
  H   H114      1.0  0.94080  0.62020  0.06680  1.0000
  H   H115      1.0  0.55920  0.12020  0.43320  1.0000
  H   H116      1.0  0.44080  0.12020  0.06680  1.0000
  H   H117      1.0  0.94080  0.37980  0.56680  1.0000
  H   H118      1.0  0.05920  0.37980  0.93320  1.0000
  H   H119      1.0  0.44080  0.87980  0.56680  1.0000
  H   H120      1.0  0.55920  0.87980  0.93320  1.0000
  C   C33       1.0  0.19302  0.14920  0.47978  1.0000
  C   C34       1.0  0.80698  0.14920  0.02022  1.0000
  C   C35       1.0  0.69302  0.64920  0.47978  1.0000
  C   C36       1.0  0.30698  0.64920  0.02022  1.0000
  C   C37       1.0  0.80698  0.85080  0.52022  1.0000
  C   C38       1.0  0.19302  0.85080  0.97978  1.0000
  C   C39       1.0  0.30698  0.35080  0.52022  1.0000
  C   C40       1.0  0.69302  0.35080  0.97978  1.0000
  H   H121      1.0  0.23070  0.15400  0.48880  1.0000
  H   H122      1.0  0.76930  0.15400  0.01120  1.0000
  H   H123      1.0  0.73070  0.65400  0.48880  1.0000
  H   H124      1.0  0.26930  0.65400  0.01120  1.0000
  H   H125      1.0  0.76930  0.84600  0.51120  1.0000
  H   H126      1.0  0.23070  0.84600  0.98880  1.0000
  H   H127      1.0  0.26930  0.34600  0.51120  1.0000
  H   H128      1.0  0.73070  0.34600  0.98880  1.0000
  B   B89       1.0  0.04902  0.46820  0.41360  1.0000
  B   B90       1.0  0.95098  0.46820  0.08640  1.0000
  B   B91       1.0  0.54902  0.96820  0.41360  1.0000
  B   B92       1.0  0.45098  0.96820  0.08640  1.0000
  B   B93       1.0  0.95098  0.53180  0.58640  1.0000
  B   B94       1.0  0.04902  0.53180  0.91360  1.0000
  B   B95       1.0  0.45098  0.03180  0.58640  1.0000
  B   B96       1.0  0.54902  0.03180  0.91360  1.0000
  H   H129      1.0  0.00580  0.46190  0.40830  1.0000
  H   H130      1.0  0.99420  0.46190  0.09170  1.0000
  H   H131      1.0  0.50580  0.96190  0.40830  1.0000
  H   H132      1.0  0.49420  0.96190  0.09170  1.0000
  H   H133      1.0  0.99420  0.53810  0.59170  1.0000
  H   H134      1.0  0.00580  0.53810  0.90830  1.0000
  H   H135      1.0  0.49420  0.03810  0.59170  1.0000
  H   H136      1.0  0.50580  0.03810  0.90830  1.0000
  B   B97       1.0  0.16793  0.44440  0.48980  1.0000
  B   B98       1.0  0.83207  0.44440  0.01020  1.0000
  B   B99       1.0  0.66793  0.94440  0.48980  1.0000
  B   B100      1.0  0.33207  0.94440  0.01020  1.0000
  B   B101      1.0  0.83207  0.55560  0.51020  1.0000
  B   B102      1.0  0.16793  0.55560  0.98980  1.0000
  B   B103      1.0  0.33207  0.05560  0.51020  1.0000
  B   B104      1.0  0.66793  0.05560  0.98980  1.0000
  H   H137      1.0  0.20020  0.42090  0.53290  1.0000
  H   H138      1.0  0.79980  0.42090  0.96710  1.0000
  H   H139      1.0  0.70020  0.92090  0.53290  1.0000
  H   H140      1.0  0.29980  0.92090  0.96710  1.0000
  H   H141      1.0  0.79980  0.57910  0.46710  1.0000
  H   H142      1.0  0.20020  0.57910  0.03290  1.0000
  H   H143      1.0  0.29980  0.07910  0.46710  1.0000
  H   H144      1.0  0.70020  0.07910  0.03290  1.0000
  B   B105      1.0  0.10506  0.38830  0.45370  1.0000
  B   B106      1.0  0.89494  0.38830  0.04630  1.0000
  B   B107      1.0  0.60506  0.88830  0.45370  1.0000
  B   B108      1.0  0.39494  0.88830  0.04630  1.0000
  B   B109      1.0  0.89494  0.61170  0.54630  1.0000
  B   B110      1.0  0.10506  0.61170  0.95370  1.0000
  B   B111      1.0  0.39494  0.11170  0.54630  1.0000
  B   B112      1.0  0.60506  0.11170  0.95370  1.0000
  H   H145      1.0  0.09750  0.33120  0.47400  1.0000
  H   H146      1.0  0.90250  0.33120  0.02600  1.0000
  H   H147      1.0  0.59750  0.83120  0.47400  1.0000
  H   H148      1.0  0.40250  0.83120  0.02600  1.0000
  H   H149      1.0  0.90250  0.66880  0.52600  1.0000
  H   H150      1.0  0.09750  0.66880  0.97400  1.0000
  H   H151      1.0  0.40250  0.16880  0.52600  1.0000
  H   H152      1.0  0.59750  0.16880  0.97400  1.0000
  C   C41       1.0  0.09487  0.34820  0.13587  1.0000
  C   C42       1.0  0.90513  0.34820  0.36413  1.0000
  C   C43       1.0  0.59487  0.84820  0.13587  1.0000
  C   C44       1.0  0.40513  0.84820  0.36413  1.0000
  C   C45       1.0  0.90513  0.65180  0.86413  1.0000
  C   C46       1.0  0.09487  0.65180  0.63587  1.0000
  C   C47       1.0  0.40513  0.15180  0.86413  1.0000
  C   C48       1.0  0.59487  0.15180  0.63587  1.0000
  H   H153      1.0  0.05800  0.34070  0.10840  1.0000
  H   H154      1.0  0.94200  0.34070  0.39160  1.0000
  H   H155      1.0  0.55800  0.84070  0.10840  1.0000
  H   H156      1.0  0.44200  0.84070  0.39160  1.0000
  H   H157      1.0  0.94200  0.65930  0.89160  1.0000
  H   H158      1.0  0.05800  0.65930  0.60840  1.0000
  H   H159      1.0  0.44200  0.15930  0.89160  1.0000
  H   H160      1.0  0.55800  0.15930  0.60840  1.0000
  B   B113      1.0  0.10450  0.48630  0.48580  1.0000
  B   B114      1.0  0.89550  0.48630  0.01420  1.0000
  B   B115      1.0  0.60450  0.98630  0.48580  1.0000
  B   B116      1.0  0.39550  0.98630  0.01420  1.0000
  B   B117      1.0  0.89550  0.51370  0.51420  1.0000
  B   B118      1.0  0.10450  0.51370  0.98580  1.0000
  B   B119      1.0  0.39550  0.01370  0.51420  1.0000
  B   B120      1.0  0.60450  0.01370  0.98580  1.0000
  H   H161      1.0  0.09570  0.48970  0.52640  1.0000
  H   H162      1.0  0.90430  0.48970  0.97360  1.0000
  H   H163      1.0  0.59570  0.98970  0.52640  1.0000
  H   H164      1.0  0.40430  0.98970  0.97360  1.0000
  H   H165      1.0  0.90430  0.51030  0.47360  1.0000
  H   H166      1.0  0.09570  0.51030  0.02640  1.0000
  H   H167      1.0  0.40430  0.01030  0.47360  1.0000
  H   H168      1.0  0.59570  0.01030  0.02640  1.0000
  C   C49       1.0  0.18900  0.37140  0.15360  1.0000
  C   C50       1.0  0.81100  0.37140  0.34640  1.0000
  C   C51       1.0  0.68900  0.87140  0.15360  1.0000
  C   C52       1.0  0.31100  0.87140  0.34640  1.0000
  C   C53       1.0  0.81100  0.62860  0.84640  1.0000
  C   C54       1.0  0.18900  0.62860  0.65360  1.0000
  C   C55       1.0  0.31100  0.12860  0.84640  1.0000
  C   C56       1.0  0.68900  0.12860  0.65360  1.0000
  H   H169      1.0  0.21620  0.38070  0.13940  1.0000
  H   H170      1.0  0.78380  0.38070  0.36060  1.0000
  H   H171      1.0  0.71620  0.88070  0.13940  1.0000
  H   H172      1.0  0.28380  0.88070  0.36060  1.0000
  H   H173      1.0  0.78380  0.61930  0.86060  1.0000
  H   H174      1.0  0.21620  0.61930  0.63940  1.0000
  H   H175      1.0  0.28380  0.11930  0.86060  1.0000
  H   H176      1.0  0.71620  0.11930  0.63940  1.0000
  C   C57       1.0  0.13470  0.36030  0.11330  1.0000
  C   C58       1.0  0.86530  0.36030  0.38670  1.0000
  C   C59       1.0  0.63470  0.86030  0.11330  1.0000
  C   C60       1.0  0.36530  0.86030  0.38670  1.0000
  C   C61       1.0  0.86530  0.63970  0.88670  1.0000
  C   C62       1.0  0.13470  0.63970  0.61330  1.0000
  C   C63       1.0  0.36530  0.13970  0.88670  1.0000
  C   C64       1.0  0.63470  0.13970  0.61330  1.0000
  H   H177      1.0  0.12470  0.36080  0.07140  1.0000
  H   H178      1.0  0.87530  0.36080  0.42860  1.0000
  H   H179      1.0  0.62470  0.86080  0.07140  1.0000
  H   H180      1.0  0.37530  0.86080  0.42860  1.0000
  H   H181      1.0  0.87530  0.63920  0.92860  1.0000
  H   H182      1.0  0.12470  0.63920  0.57140  1.0000
  H   H183      1.0  0.37530  0.13920  0.92860  1.0000
  H   H184      1.0  0.62470  0.13920  0.57140  1.0000
  C   C65       1.0  0.20287  0.36880  0.21510  1.0000
  C   C66       1.0  0.79713  0.36880  0.28490  1.0000
  C   C67       1.0  0.70287  0.86880  0.21510  1.0000
  C   C68       1.0  0.29713  0.86880  0.28490  1.0000
  C   C69       1.0  0.79713  0.63120  0.78490  1.0000
  C   C70       1.0  0.20287  0.63120  0.71510  1.0000
  C   C71       1.0  0.29713  0.13120  0.78490  1.0000
  C   C72       1.0  0.70287  0.13120  0.71510  1.0000
  H   H185      1.0  0.23970  0.37530  0.24310  1.0000
  H   H186      1.0  0.76030  0.37530  0.25690  1.0000
  H   H187      1.0  0.73970  0.87530  0.24310  1.0000
  H   H188      1.0  0.26030  0.87530  0.25690  1.0000
  H   H189      1.0  0.76030  0.62470  0.75690  1.0000
  H   H190      1.0  0.23970  0.62470  0.74310  1.0000
  H   H191      1.0  0.26030  0.12470  0.75690  1.0000
  H   H192      1.0  0.73970  0.12470  0.74310  1.0000
  B   B121      1.0  0.15425  0.55210  0.47670  1.0000
  B   B122      1.0  0.84575  0.55210  0.02330  1.0000
  B   B123      1.0  0.65425  0.05210  0.47670  1.0000
  B   B124      1.0  0.34575  0.05210  0.02330  1.0000
  B   B125      1.0  0.84575  0.44790  0.52330  1.0000
  B   B126      1.0  0.15425  0.44790  0.97670  1.0000
  B   B127      1.0  0.34575  0.94790  0.52330  1.0000
  B   B128      1.0  0.65425  0.94790  0.97670  1.0000
  H   H193      1.0  0.17760  0.59850  0.51140  1.0000
  H   H194      1.0  0.82240  0.59850  0.98860  1.0000
  H   H195      1.0  0.67760  0.09850  0.51140  1.0000
  H   H196      1.0  0.32240  0.09850  0.98860  1.0000
  H   H197      1.0  0.82240  0.40150  0.48860  1.0000
  H   H198      1.0  0.17760  0.40150  0.01140  1.0000
  H   H199      1.0  0.32240  0.90150  0.48860  1.0000
  H   H200      1.0  0.67760  0.90150  0.01140  1.0000
  B   B129      1.0  0.13457  0.47870  0.35990  1.0000
  B   B130      1.0  0.86543  0.47870  0.14010  1.0000
  B   B131      1.0  0.63457  0.97870  0.35990  1.0000
  B   B132      1.0  0.36543  0.97870  0.14010  1.0000
  B   B133      1.0  0.86543  0.52130  0.64010  1.0000
  B   B134      1.0  0.13457  0.52130  0.85990  1.0000
  B   B135      1.0  0.36543  0.02130  0.64010  1.0000
  B   B136      1.0  0.63457  0.02130  0.85990  1.0000
  H   H201      1.0  0.14560  0.47860  0.32070  1.0000
  H   H202      1.0  0.85440  0.47860  0.17930  1.0000
  H   H203      1.0  0.64560  0.97860  0.32070  1.0000
  H   H204      1.0  0.35440  0.97860  0.17930  1.0000
  H   H205      1.0  0.85440  0.52140  0.67930  1.0000
  H   H206      1.0  0.14560  0.52140  0.82070  1.0000
  H   H207      1.0  0.35440  0.02140  0.67930  1.0000
  H   H208      1.0  0.64560  0.02140  0.82070  1.0000
  C   C73       1.0  0.16130  0.35630  0.23470  1.0000
  C   C74       1.0  0.83870  0.35630  0.26530  1.0000
  C   C75       1.0  0.66130  0.85630  0.23470  1.0000
  C   C76       1.0  0.33870  0.85630  0.26530  1.0000
  C   C77       1.0  0.83870  0.64370  0.76530  1.0000
  C   C78       1.0  0.16130  0.64370  0.73470  1.0000
  C   C79       1.0  0.33870  0.14370  0.76530  1.0000
  C   C80       1.0  0.66130  0.14370  0.73470  1.0000
  H   H209      1.0  0.17090  0.35440  0.27640  1.0000
  H   H210      1.0  0.82910  0.35440  0.22360  1.0000
  H   H211      1.0  0.67090  0.85440  0.27640  1.0000
  H   H212      1.0  0.32910  0.85440  0.22360  1.0000
  H   H213      1.0  0.82910  0.64560  0.72360  1.0000
  H   H214      1.0  0.17090  0.64560  0.77640  1.0000
  H   H215      1.0  0.32910  0.14560  0.72360  1.0000
  H   H216      1.0  0.67090  0.14560  0.77640  1.0000
  B   B137      1.0  0.07464  0.09470  0.13240  1.0000
  B   B138      1.0  0.92536  0.09470  0.36760  1.0000
  B   B139      1.0  0.57464  0.59470  0.13240  1.0000
  B   B140      1.0  0.42536  0.59470  0.36760  1.0000
  B   B141      1.0  0.92536  0.90530  0.86760  1.0000
  B   B142      1.0  0.07464  0.90530  0.63240  1.0000
  B   B143      1.0  0.42536  0.40530  0.86760  1.0000
  B   B144      1.0  0.57464  0.40530  0.63240  1.0000
  H   H217      1.0  0.05280  0.13970  0.09590  1.0000
  H   H218      1.0  0.94720  0.13970  0.40410  1.0000
  H   H219      1.0  0.55280  0.63970  0.09590  1.0000
  H   H220      1.0  0.44720  0.63970  0.40410  1.0000
  H   H221      1.0  0.94720  0.86030  0.90410  1.0000
  H   H222      1.0  0.05280  0.86030  0.59590  1.0000
  H   H223      1.0  0.44720  0.36030  0.90410  1.0000
  H   H224      1.0  0.55280  0.36030  0.59590  1.0000
  B   B145      1.0  0.03757  0.01870  0.16240  1.0000
  B   B146      1.0  0.96243  0.01870  0.33760  1.0000
  B   B147      1.0  0.53757  0.51870  0.16240  1.0000
  B   B148      1.0  0.46243  0.51870  0.33760  1.0000
  B   B149      1.0  0.96243  0.98130  0.83760  1.0000
  B   B150      1.0  0.03757  0.98130  0.66240  1.0000
  B   B151      1.0  0.46243  0.48130  0.83760  1.0000
  B   B152      1.0  0.53757  0.48130  0.66240  1.0000
  H   H225      1.0  0.99200  0.01570  0.14510  1.0000
  H   H226      1.0  0.00800  0.01570  0.35490  1.0000
  H   H227      1.0  0.49200  0.51570  0.14510  1.0000
  H   H228      1.0  0.50800  0.51570  0.35490  1.0000
  H   H229      1.0  0.00800  0.98430  0.85490  1.0000
  H   H230      1.0  0.99200  0.98430  0.64510  1.0000
  H   H231      1.0  0.50800  0.48430  0.85490  1.0000
  H   H232      1.0  0.49200  0.48430  0.64510  1.0000
  B   B153      1.0  0.13494  0.04290  0.13620  1.0000
  B   B154      1.0  0.86506  0.04290  0.36380  1.0000
  B   B155      1.0  0.63494  0.54290  0.13620  1.0000
  B   B156      1.0  0.36506  0.54290  0.36380  1.0000
  B   B157      1.0  0.86506  0.95710  0.86380  1.0000
  B   B158      1.0  0.13494  0.95710  0.63620  1.0000
  B   B159      1.0  0.36506  0.45710  0.86380  1.0000
  B   B160      1.0  0.63494  0.45710  0.63620  1.0000
  H   H233      1.0  0.15120  0.05690  0.10210  1.0000
  H   H234      1.0  0.84880  0.05690  0.39790  1.0000
  H   H235      1.0  0.65120  0.55690  0.10210  1.0000
  H   H236      1.0  0.34880  0.55690  0.39790  1.0000
  H   H237      1.0  0.84880  0.94310  0.89790  1.0000
  H   H238      1.0  0.15120  0.94310  0.60210  1.0000
  H   H239      1.0  0.34880  0.44310  0.89790  1.0000
  H   H240      1.0  0.65120  0.44310  0.60210  1.0000
  B   B161      1.0  0.14484  0.11550  0.19570  1.0000
  B   B162      1.0  0.85516  0.11550  0.30430  1.0000
  B   B163      1.0  0.64484  0.61550  0.19570  1.0000
  B   B164      1.0  0.35516  0.61550  0.30430  1.0000
  B   B165      1.0  0.85516  0.88450  0.80430  1.0000
  B   B166      1.0  0.14484  0.88450  0.69570  1.0000
  B   B167      1.0  0.35516  0.38450  0.80430  1.0000
  B   B168      1.0  0.64484  0.38450  0.69570  1.0000
  H   H241      1.0  0.16750  0.17390  0.19950  1.0000
  H   H242      1.0  0.83250  0.17390  0.30050  1.0000
  H   H243      1.0  0.66750  0.67390  0.19950  1.0000
  H   H244      1.0  0.33250  0.67390  0.30050  1.0000
  H   H245      1.0  0.83250  0.82610  0.80050  1.0000
  H   H246      1.0  0.16750  0.82610  0.69950  1.0000
  H   H247      1.0  0.33250  0.32610  0.80050  1.0000
  H   H248      1.0  0.66750  0.32610  0.69950  1.0000
  B   B169      1.0  0.07179  0.98710  0.11650  1.0000
  B   B170      1.0  0.92821  0.98710  0.38350  1.0000
  B   B171      1.0  0.57179  0.48710  0.11650  1.0000
  B   B172      1.0  0.42821  0.48710  0.38350  1.0000
  B   B173      1.0  0.92821  0.01290  0.88350  1.0000
  B   B174      1.0  0.07179  0.01290  0.61650  1.0000
  B   B175      1.0  0.42821  0.51290  0.88350  1.0000
  B   B176      1.0  0.57179  0.51290  0.61650  1.0000
  H   H249      1.0  0.04700  0.96550  0.06950  1.0000
  H   H250      1.0  0.95300  0.96550  0.43050  1.0000
  H   H251      1.0  0.54700  0.46550  0.06950  1.0000
  H   H252      1.0  0.45300  0.46550  0.43050  1.0000
  H   H253      1.0  0.95300  0.03450  0.93050  1.0000
  H   H254      1.0  0.04700  0.03450  0.56950  1.0000
  H   H255      1.0  0.45300  0.53450  0.93050  1.0000
  H   H256      1.0  0.54700  0.53450  0.56950  1.0000
  Ag  Ag1       1.0  0.04282  0.31846  0.22972  1.0000
  Ag  Ag2       1.0  0.95718  0.31846  0.27028  1.0000
  Ag  Ag3       1.0  0.54282  0.81846  0.22972  1.0000
  Ag  Ag4       1.0  0.45718  0.81846  0.27028  1.0000
  Ag  Ag5       1.0  0.95718  0.68154  0.77028  1.0000
  Ag  Ag6       1.0  0.04282  0.68154  0.72972  1.0000
  Ag  Ag7       1.0  0.45718  0.18154  0.77028  1.0000
  Ag  Ag8       1.0  0.54282  0.18154  0.72972  1.0000
  Sn  Sn1       1.0  0.07197  0.13521  0.22359  1.0000
  Sn  Sn2       1.0  0.92802  0.13521  0.27641  1.0000
  Sn  Sn3       1.0  0.57198  0.63521  0.22359  1.0000
  Sn  Sn4       1.0  0.42803  0.63521  0.27641  1.0000
  Sn  Sn5       1.0  0.92802  0.86479  0.77641  1.0000
  Sn  Sn6       1.0  0.07197  0.86479  0.72359  1.0000
  Sn  Sn7       1.0  0.42803  0.36479  0.77641  1.0000
  Sn  Sn8       1.0  0.57198  0.36479  0.72359  1.0000
  Sn  Sn9       1.0  0.06639  0.37928  0.34763  1.0000
  Sn  Sn10      1.0  0.93361  0.37928  0.15237  1.0000
  Sn  Sn11      1.0  0.56639  0.87928  0.34763  1.0000
  Sn  Sn12      1.0  0.43361  0.87928  0.15237  1.0000
  Sn  Sn13      1.0  0.93361  0.62072  0.65237  1.0000
  Sn  Sn14      1.0  0.06639  0.62072  0.84763  1.0000
  Sn  Sn15      1.0  0.43361  0.12072  0.65237  1.0000
  Sn  Sn16      1.0  0.56639  0.12072  0.84763  1.0000
  Ag  Ag9       1.0  0.04022  0.19605  0.31243  1.0000
  Ag  Ag10      1.0  0.95978  0.19605  0.18758  1.0000
  Ag  Ag11      1.0  0.54022  0.69605  0.31243  1.0000
  Ag  Ag12      1.0  0.45978  0.69605  0.18758  1.0000
  Ag  Ag13      1.0  0.95978  0.80395  0.68758  1.0000
  Ag  Ag14      1.0  0.04022  0.80395  0.81242  1.0000
  Ag  Ag15      1.0  0.45978  0.30395  0.68758  1.0000
  Ag  Ag16      1.0  0.54022  0.30395  0.81242  1.0000
