data_image0
_chemical_formula_structural       Zn8N8C8O8C8N12H8C8H8N8C8H8N8C8N8C8H8C4N16H16C8O8
_chemical_formula_sum              "Zn8 N60 C60 O16 H48"
_cell_length_a       31.928
_cell_length_b       16.003
_cell_length_c       10.329
_cell_angle_alpha    90
_cell_angle_beta     90
_cell_angle_gamma    90

_space_group_name_H-M_alt    "P 1"
_space_group_IT_number       1

loop_
  _space_group_symop_operation_xyz
  'x, y, z'

loop_
  _atom_site_type_symbol
  _atom_site_label
  _atom_site_symmetry_multiplicity
  _atom_site_fract_x
  _atom_site_fract_y
  _atom_site_fract_z
  _atom_site_occupancy
  Zn  Zn1       1.0  0.29347  0.05792  0.39859  1.0000
  Zn  Zn2       1.0  0.20653  0.94208  0.89859  1.0000
  Zn  Zn3       1.0  0.70653  0.55792  0.60141  1.0000
  Zn  Zn4       1.0  0.79347  0.44208  0.10141  1.0000
  Zn  Zn5       1.0  0.70653  0.94208  0.60141  1.0000
  Zn  Zn6       1.0  0.79347  0.05792  0.10141  1.0000
  Zn  Zn7       1.0  0.29347  0.44208  0.39859  1.0000
  Zn  Zn8       1.0  0.20653  0.55792  0.89859  1.0000
  N   N1        1.0  0.28311  0.18030  0.40800  1.0000
  N   N2        1.0  0.21689  0.81970  0.90800  1.0000
  N   N3        1.0  0.71689  0.68030  0.59200  1.0000
  N   N4        1.0  0.78311  0.31970  0.09200  1.0000
  N   N5        1.0  0.71689  0.81970  0.59200  1.0000
  N   N6        1.0  0.78311  0.18030  0.09200  1.0000
  N   N7        1.0  0.28311  0.31970  0.40800  1.0000
  N   N8        1.0  0.21689  0.68030  0.90800  1.0000
  C   C1        1.0  0.37637  0.04430  0.48150  1.0000
  C   C2        1.0  0.12363  0.95570  0.98150  1.0000
  C   C3        1.0  0.62363  0.54430  0.51850  1.0000
  C   C4        1.0  0.87637  0.45570  0.01850  1.0000
  C   C5        1.0  0.62363  0.95570  0.51850  1.0000
  C   C6        1.0  0.87637  0.04430  0.01850  1.0000
  C   C7        1.0  0.37637  0.45570  0.48150  1.0000
  C   C8        1.0  0.12363  0.54430  0.98150  1.0000
  O   O1        1.0  0.36358  0.08090  0.58350  1.0000
  O   O2        1.0  0.13642  0.91910  0.08350  1.0000
  O   O3        1.0  0.63642  0.58090  0.41650  1.0000
  O   O4        1.0  0.86358  0.41910  0.91650  1.0000
  O   O5        1.0  0.63642  0.91910  0.41650  1.0000
  O   O6        1.0  0.86358  0.08090  0.91650  1.0000
  O   O7        1.0  0.36358  0.41910  0.58350  1.0000
  O   O8        1.0  0.13642  0.58090  0.08350  1.0000
  C   C9        1.0  0.42213  0.02210  0.46760  1.0000
  C   C10       1.0  0.07787  0.97790  0.96760  1.0000
  C   C11       1.0  0.57787  0.52210  0.53240  1.0000
  C   C12       1.0  0.92213  0.47790  0.03240  1.0000
  C   C13       1.0  0.57787  0.97790  0.53240  1.0000
  C   C14       1.0  0.92213  0.02210  0.03240  1.0000
  C   C15       1.0  0.42213  0.47790  0.46760  1.0000
  C   C16       1.0  0.07787  0.52210  0.96760  1.0000
  N   N9        1.0  0.24710  0.20900  0.34610  1.0000
  N   N10       1.0  0.25290  0.79100  0.84610  1.0000
  N   N11       1.0  0.75290  0.70900  0.65390  1.0000
  N   N12       1.0  0.74710  0.29100  0.15390  1.0000
  N   N13       1.0  0.75290  0.79100  0.65390  1.0000
  N   N14       1.0  0.74710  0.20900  0.15390  1.0000
  N   N15       1.0  0.24710  0.29100  0.34610  1.0000
  N   N16       1.0  0.25290  0.70900  0.84610  1.0000
  N   N17       1.0  0.34162  0.25000  0.50630  1.0000
  N   N18       1.0  0.15838  0.75000  0.00630  1.0000
  N   N19       1.0  0.65838  0.75000  0.49370  1.0000
  N   N20       1.0  0.84162  0.25000  0.99370  1.0000
  H   H1        1.0  0.35410  0.20130  0.52640  1.0000
  H   H2        1.0  0.14590  0.79870  0.02640  1.0000
  H   H3        1.0  0.64590  0.70130  0.47360  1.0000
  H   H4        1.0  0.85410  0.29870  0.97360  1.0000
  H   H5        1.0  0.64590  0.79870  0.47360  1.0000
  H   H6        1.0  0.85410  0.20130  0.97360  1.0000
  H   H7        1.0  0.35410  0.29870  0.52640  1.0000
  H   H8        1.0  0.14590  0.70130  0.02640  1.0000
  C   C17       1.0  0.43779  0.99480  0.34960  1.0000
  C   C18       1.0  0.06221  0.00520  0.84960  1.0000
  C   C19       1.0  0.56221  0.49480  0.65040  1.0000
  C   C20       1.0  0.93779  0.50520  0.15040  1.0000
  C   C21       1.0  0.56221  0.00520  0.65040  1.0000
  C   C22       1.0  0.93779  0.99480  0.15040  1.0000
  C   C23       1.0  0.43779  0.50520  0.34960  1.0000
  C   C24       1.0  0.06221  0.49480  0.84960  1.0000
  H   H9        1.0  0.41970  0.98770  0.27980  1.0000
  H   H10       1.0  0.08030  0.01230  0.77980  1.0000
  H   H11       1.0  0.58030  0.48770  0.72020  1.0000
  H   H12       1.0  0.91970  0.51230  0.22020  1.0000
  H   H13       1.0  0.58030  0.01230  0.72020  1.0000
  H   H14       1.0  0.91970  0.98770  0.22020  1.0000
  H   H15       1.0  0.41970  0.51230  0.27980  1.0000
  H   H16       1.0  0.08030  0.48770  0.77980  1.0000
  N   N21       1.0  0.26039  0.00380  0.54040  1.0000
  N   N22       1.0  0.23961  0.99620  0.04040  1.0000
  N   N23       1.0  0.73961  0.50380  0.45960  1.0000
  N   N24       1.0  0.76039  0.49620  0.95960  1.0000
  N   N25       1.0  0.73961  0.99620  0.45960  1.0000
  N   N26       1.0  0.76039  0.00380  0.95960  1.0000
  N   N27       1.0  0.26039  0.49620  0.54040  1.0000
  N   N28       1.0  0.23961  0.50380  0.04040  1.0000
  C   C25       1.0  0.44874  0.03300  0.57050  1.0000
  C   C26       1.0  0.05126  0.96700  0.07050  1.0000
  C   C27       1.0  0.55126  0.53300  0.42950  1.0000
  C   C28       1.0  0.94874  0.46700  0.92950  1.0000
  C   C29       1.0  0.55126  0.96700  0.42950  1.0000
  C   C30       1.0  0.94874  0.03300  0.92950  1.0000
  C   C31       1.0  0.44874  0.46700  0.57050  1.0000
  C   C32       1.0  0.05126  0.53300  0.07050  1.0000
  H   H17       1.0  0.43810  0.05210  0.64890  1.0000
  H   H18       1.0  0.06190  0.94790  0.14890  1.0000
  H   H19       1.0  0.56190  0.55210  0.35110  1.0000
  H   H20       1.0  0.93810  0.44790  0.85110  1.0000
  H   H21       1.0  0.56190  0.94790  0.35110  1.0000
  H   H22       1.0  0.93810  0.05210  0.85110  1.0000
  H   H23       1.0  0.43810  0.44790  0.64890  1.0000
  H   H24       1.0  0.06190  0.55210  0.14890  1.0000
  N   N29       1.0  0.22678  0.95480  0.51440  1.0000
  N   N30       1.0  0.27322  0.04520  0.01440  1.0000
  N   N31       1.0  0.77322  0.45480  0.48560  1.0000
  N   N32       1.0  0.72678  0.54520  0.98560  1.0000
  N   N33       1.0  0.77322  0.04520  0.48560  1.0000
  N   N34       1.0  0.72678  0.95480  0.98560  1.0000
  N   N35       1.0  0.22678  0.54520  0.51440  1.0000
  N   N36       1.0  0.27322  0.45480  0.01440  1.0000
  C   C33       1.0  0.49234  0.01490  0.55960  1.0000
  C   C34       1.0  0.00766  0.98510  0.05960  1.0000
  C   C35       1.0  0.50766  0.51490  0.44040  1.0000
  C   C36       1.0  0.99234  0.48510  0.94040  1.0000
  C   C37       1.0  0.50766  0.98510  0.44040  1.0000
  C   C38       1.0  0.99234  0.01490  0.94040  1.0000
  C   C39       1.0  0.49234  0.48510  0.55960  1.0000
  C   C40       1.0  0.00766  0.51490  0.05960  1.0000
  N   N37       1.0  0.20756  0.93640  0.62160  1.0000
  N   N38       1.0  0.29244  0.06360  0.12160  1.0000
  N   N39       1.0  0.79244  0.43640  0.37840  1.0000
  N   N40       1.0  0.70756  0.56360  0.87840  1.0000
  N   N41       1.0  0.79244  0.06360  0.37840  1.0000
  N   N42       1.0  0.70756  0.93640  0.87840  1.0000
  N   N43       1.0  0.20756  0.56360  0.62160  1.0000
  N   N44       1.0  0.29244  0.43640  0.12160  1.0000
  C   C41       1.0  0.51988  0.02240  0.66430  1.0000
  C   C42       1.0  0.98012  0.97760  0.16430  1.0000
  C   C43       1.0  0.48012  0.52240  0.33570  1.0000
  C   C44       1.0  0.01988  0.47760  0.83570  1.0000
  C   C45       1.0  0.48012  0.97760  0.33570  1.0000
  C   C46       1.0  0.01988  0.02240  0.83570  1.0000
  C   C47       1.0  0.51988  0.47760  0.66430  1.0000
  C   C48       1.0  0.98012  0.52240  0.16430  1.0000
  H   H25       1.0  0.50970  0.03880  0.74470  1.0000
  H   H26       1.0  0.99030  0.96120  0.24470  1.0000
  H   H27       1.0  0.49030  0.53880  0.25530  1.0000
  H   H28       1.0  0.00970  0.46120  0.75530  1.0000
  H   H29       1.0  0.49030  0.96120  0.25530  1.0000
  H   H30       1.0  0.00970  0.03880  0.75530  1.0000
  H   H31       1.0  0.50970  0.46120  0.74470  1.0000
  H   H32       1.0  0.99030  0.53880  0.24470  1.0000
  C   C49       1.0  0.30371  0.25000  0.44360  1.0000
  C   C50       1.0  0.19629  0.75000  0.94360  1.0000
  C   C51       1.0  0.69629  0.75000  0.55640  1.0000
  C   C52       1.0  0.80371  0.25000  0.05640  1.0000
  N   N45       1.0  0.22830  0.97340  0.72330  1.0000
  N   N46       1.0  0.27170  0.02660  0.22330  1.0000
  N   N47       1.0  0.77170  0.47340  0.27670  1.0000
  N   N48       1.0  0.72830  0.52660  0.77670  1.0000
  N   N49       1.0  0.77170  0.02660  0.27670  1.0000
  N   N50       1.0  0.72830  0.97340  0.77670  1.0000
  N   N51       1.0  0.22830  0.52660  0.72330  1.0000
  N   N52       1.0  0.27170  0.47340  0.22330  1.0000
  N   N53       1.0  0.28857  0.06380  0.73610  1.0000
  N   N54       1.0  0.21143  0.93620  0.23610  1.0000
  N   N55       1.0  0.71143  0.56380  0.26390  1.0000
  N   N56       1.0  0.78857  0.43620  0.76390  1.0000
  N   N57       1.0  0.71143  0.93620  0.26390  1.0000
  N   N58       1.0  0.78857  0.06380  0.76390  1.0000
  N   N59       1.0  0.28857  0.43620  0.73610  1.0000
  N   N60       1.0  0.21143  0.56380  0.23610  1.0000
  H   H33       1.0  0.28560  0.07060  0.82210  1.0000
  H   H34       1.0  0.21440  0.92940  0.32210  1.0000
  H   H35       1.0  0.71440  0.57060  0.17790  1.0000
  H   H36       1.0  0.78560  0.42940  0.67790  1.0000
  H   H37       1.0  0.71440  0.92940  0.17790  1.0000
  H   H38       1.0  0.78560  0.07060  0.67790  1.0000
  H   H39       1.0  0.28560  0.42940  0.82210  1.0000
  H   H40       1.0  0.21440  0.57060  0.32210  1.0000
  H   H41       1.0  0.30970  0.08910  0.69410  1.0000
  H   H42       1.0  0.19030  0.91090  0.19410  1.0000
  H   H43       1.0  0.69030  0.58910  0.30590  1.0000
  H   H44       1.0  0.80970  0.41090  0.80590  1.0000
  H   H45       1.0  0.69030  0.91090  0.30590  1.0000
  H   H46       1.0  0.80970  0.08910  0.80590  1.0000
  H   H47       1.0  0.30970  0.41090  0.69410  1.0000
  H   H48       1.0  0.19030  0.58910  0.19410  1.0000
  C   C53       1.0  0.26099  0.01440  0.66990  1.0000
  C   C54       1.0  0.23901  0.98560  0.16990  1.0000
  C   C55       1.0  0.73901  0.51440  0.33010  1.0000
  C   C56       1.0  0.76099  0.48560  0.83010  1.0000
  C   C57       1.0  0.73901  0.98560  0.33010  1.0000
  C   C58       1.0  0.76099  0.01440  0.83010  1.0000
  C   C59       1.0  0.26099  0.48560  0.66990  1.0000
  C   C60       1.0  0.23901  0.51440  0.16990  1.0000
  O   O9        1.0  0.35261  0.02660  0.38570  1.0000
  O   O10       1.0  0.14739  0.97340  0.88570  1.0000
  O   O11       1.0  0.64739  0.52660  0.61430  1.0000
  O   O12       1.0  0.85261  0.47340  0.11430  1.0000
  O   O13       1.0  0.64739  0.97340  0.61430  1.0000
  O   O14       1.0  0.85261  0.02660  0.11430  1.0000
  O   O15       1.0  0.35261  0.47340  0.38570  1.0000
  O   O16       1.0  0.14739  0.52660  0.88570  1.0000
