data_image0
_chemical_formula_structural       Pb4O20H4O12N14C2H2C2H2C4H2C2H2C2H2C2H2C4H2C2H2C2H2C2H2N2C2H2C2H2C4H2C2H2C2H2C2H2C4H2C2H2C2H2C2H2N2
_chemical_formula_sum              "Pb4 O32 H44 N18 C48"
_cell_length_a       9.466
_cell_length_b       16.736
_cell_length_c       16.864
_cell_angle_alpha    112.54
_cell_angle_beta     100.82
_cell_angle_gamma    92.1

_space_group_name_H-M_alt    "P 1"
_space_group_IT_number       1

loop_
  _space_group_symop_operation_xyz
  'x, y, z'

loop_
  _atom_site_type_symbol
  _atom_site_label
  _atom_site_symmetry_multiplicity
  _atom_site_fract_x
  _atom_site_fract_y
  _atom_site_fract_z
  _atom_site_occupancy
  Pb  Pb1       1.0  0.49077  0.37735  0.15125  1.0000
  Pb  Pb2       1.0  0.50923  0.62265  0.84875  1.0000
  Pb  Pb3       1.0  0.55134  0.18915  0.33328  1.0000
  Pb  Pb4       1.0  0.44866  0.81085  0.66672  1.0000
  O   O1        1.0  0.45240  0.25500  0.21020  1.0000
  O   O2        1.0  0.54760  0.74500  0.78980  1.0000
  O   O3        1.0  0.29620  0.23570  0.09190  1.0000
  O   O4        1.0  0.70380  0.76430  0.90810  1.0000
  O   O5        1.0  0.28400  0.14770  0.15940  1.0000
  O   O6        1.0  0.71600  0.85230  0.84060  1.0000
  O   O7        1.0  0.66800  0.48120  0.11840  1.0000
  O   O8        1.0  0.33200  0.51880  0.88160  1.0000
  O   O9        1.0  0.60960  0.55240  0.23160  1.0000
  O   O10       1.0  0.39040  0.44760  0.76840  1.0000
  O   O11       1.0  0.76360  0.60880  0.18730  1.0000
  O   O12       1.0  0.23640  0.39120  0.81270  1.0000
  O   O13       1.0  0.67690  0.41450  0.29360  1.0000
  O   O14       1.0  0.32310  0.58550  0.70640  1.0000
  O   O15       1.0  0.75590  0.30660  0.31280  1.0000
  O   O16       1.0  0.24410  0.69340  0.68720  1.0000
  O   O17       1.0  0.62720  0.37910  0.39570  1.0000
  O   O18       1.0  0.37280  0.62090  0.60430  1.0000
  O   O19       1.0  0.35530  0.36100  0.99540  1.0000
  O   O20       1.0  0.64470  0.63900  0.00460  1.0000
  H   H1        1.0  0.29620  0.30380  0.97860  1.0000
  H   H2        1.0  0.70380  0.69620  0.02140  1.0000
  H   H3        1.0  0.33910  0.37420  0.93830  1.0000
  H   H4        1.0  0.66090  0.62580  0.06170  1.0000
  O   O21       1.0  0.79490  0.17680  0.43500  1.0000
  O   O22       1.0  0.20510  0.82320  0.56500  1.0000
  O   O23       1.0  0.63030  0.22710  0.50330  1.0000
  O   O24       1.0  0.36970  0.77290  0.49670  1.0000
  O   O25       1.0  0.80340  0.17780  0.56420  1.0000
  O   O26       1.0  0.19660  0.82220  0.43580  1.0000
  O   O27       1.0  0.54030  0.04010  0.35390  1.0000
  O   O28       1.0  0.45970  0.95990  0.64610  1.0000
  O   O29       1.0  0.35820  0.05490  0.27660  1.0000
  O   O30       1.0  0.64180  0.94510  0.72340  1.0000
  O   O31       1.0  0.37490  0.93160  0.28370  1.0000
  O   O32       1.0  0.62510  0.06840  0.71630  1.0000
  N   N1        1.0  0.33880  0.20980  0.15000  1.0000
  N   N2        1.0  0.66120  0.79020  0.85000  1.0000
  N   N3        1.0  0.67860  0.54850  0.17820  1.0000
  N   N4        1.0  0.32140  0.45150  0.82180  1.0000
  N   N5        1.0  0.68510  0.36460  0.33440  1.0000
  N   N6        1.0  0.31490  0.63540  0.66560  1.0000
  N   N7        1.0  0.64630  0.25850  0.07100  1.0000
  N   N8        1.0  0.35370  0.74150  0.92900  1.0000
  N   N9        1.0  0.74340  0.19190  0.50150  1.0000
  N   N10       1.0  0.25660  0.80810  0.49850  1.0000
  N   N11       1.0  0.42060  0.00380  0.29930  1.0000
  N   N12       1.0  0.57940  0.99620  0.70070  1.0000
  N   N13       1.0  0.29090  0.90070  0.78650  1.0000
  N   N14       1.0  0.70910  0.09930  0.21350  1.0000
  C   C1        1.0  0.78290  0.25540  0.10580  1.0000
  C   C2        1.0  0.21710  0.74460  0.89420  1.0000
  H   H5        1.0  0.82280  0.29490  0.16290  1.0000
  H   H6        1.0  0.17720  0.70510  0.83710  1.0000
  C   C3        1.0  0.86850  0.19690  0.06210  1.0000
  C   C4        1.0  0.13150  0.80310  0.93790  1.0000
  H   H7        1.0  0.96300  0.19680  0.09010  1.0000
  H   H8        1.0  0.03700  0.80320  0.90990  1.0000
  C   C5        1.0  0.81470  0.13860  0.97690  1.0000
  C   C6        1.0  0.18530  0.86140  0.02310  1.0000
  C   C7        1.0  0.67310  0.13940  0.94250  1.0000
  C   C8        1.0  0.32690  0.86060  0.05750  1.0000
  H   H9        1.0  0.63030  0.09960  0.88600  1.0000
  H   H10       1.0  0.36970  0.90040  0.11400  1.0000
  C   C9        1.0  0.59240  0.19920  0.99110  1.0000
  C   C10       1.0  0.40760  0.80080  0.00890  1.0000
  H   H11       1.0  0.49530  0.19740  0.96620  1.0000
  H   H12       1.0  0.50470  0.80260  0.03380  1.0000
  C   C11       1.0  0.89770  0.07450  0.92370  1.0000
  C   C12       1.0  0.10230  0.92550  0.07630  1.0000
  H   H13       1.0  0.84890  0.03640  0.86770  1.0000
  H   H14       1.0  0.15110  0.96360  0.13230  1.0000
  C   C13       1.0  0.03310  0.06610  0.94790  1.0000
  C   C14       1.0  0.96690  0.93390  0.05210  1.0000
  H   H15       1.0  0.07980  0.10150  0.00540  1.0000
  H   H16       1.0  0.92020  0.89850  0.99460  1.0000
  C   C15       1.0  0.11940  0.00630  0.89330  1.0000
  C   C16       1.0  0.88060  0.99370  0.10670  1.0000
  C   C17       1.0  0.26600  0.00990  0.92160  1.0000
  C   C18       1.0  0.73400  0.99010  0.07840  1.0000
  H   H17       1.0  0.31120  0.04840  0.97830  1.0000
  H   H18       1.0  0.68880  0.95160  0.02170  1.0000
  C   C19       1.0  0.34640  0.95770  0.86770  1.0000
  C   C20       1.0  0.65360  0.04230  0.13230  1.0000
  H   H19       1.0  0.44570  0.96260  0.88920  1.0000
  H   H20       1.0  0.55430  0.03740  0.11080  1.0000
  C   C21       1.0  0.14970  0.89470  0.75870  1.0000
  C   C22       1.0  0.85030  0.10530  0.24130  1.0000
  H   H21       1.0  0.10820  0.85360  0.70250  1.0000
  H   H22       1.0  0.89180  0.14640  0.29750  1.0000
  C   C23       1.0  0.05840  0.94550  0.80760  1.0000
  C   C24       1.0  0.94160  0.05450  0.19240  1.0000
  H   H23       1.0  0.95960  0.93940  0.78420  1.0000
  H   H24       1.0  0.04040  0.06060  0.21580  1.0000
  N   N15       1.0  0.65650  0.72460  0.59430  1.0000
  N   N16       1.0  0.34350  0.27540  0.40570  1.0000
  C   C25       1.0  0.62400  0.66700  0.51210  1.0000
  C   C26       1.0  0.37600  0.33300  0.48790  1.0000
  H   H25       1.0  0.52760  0.65530  0.48210  1.0000
  H   H26       1.0  0.47240  0.34470  0.51790  1.0000
  C   C27       1.0  0.72440  0.62330  0.46820  1.0000
  C   C28       1.0  0.27560  0.37670  0.53180  1.0000
  H   H27       1.0  0.69540  0.58410  0.40990  1.0000
  H   H28       1.0  0.30460  0.41590  0.59010  1.0000
  C   C29       1.0  0.86830  0.63760  0.51060  1.0000
  C   C30       1.0  0.13170  0.36240  0.48940  1.0000
  C   C31       1.0  0.90080  0.69430  0.59770  1.0000
  C   C32       1.0  0.09920  0.30570  0.40230  1.0000
  H   H29       1.0  0.99440  0.70270  0.63110  1.0000
  H   H30       1.0  0.00560  0.29730  0.36890  1.0000
  C   C33       1.0  0.79410  0.73870  0.63550  1.0000
  C   C34       1.0  0.20590  0.26130  0.36450  1.0000
  H   H31       1.0  0.82050  0.78050  0.69280  1.0000
  H   H32       1.0  0.17950  0.21950  0.30720  1.0000
  C   C35       1.0  0.98540  0.59670  0.46890  1.0000
  C   C36       1.0  0.01460  0.40330  0.53110  1.0000
  H   H33       1.0  0.07710  0.60610  0.50480  1.0000
  H   H34       1.0  0.92290  0.39390  0.49520  1.0000
  C   C37       1.0  0.97030  0.54870  0.38630  1.0000
  C   C38       1.0  0.02970  0.45130  0.61370  1.0000
  H   H35       1.0  0.87710  0.53820  0.35180  1.0000
  H   H36       1.0  0.12290  0.46180  0.64820  1.0000
  C   C39       1.0  0.08380  0.50870  0.34010  1.0000
  C   C40       1.0  0.91620  0.49130  0.65990  1.0000
  C   C41       1.0  0.04620  0.45550  0.25260  1.0000
  C   C42       1.0  0.95380  0.54450  0.74740  1.0000
  H   H37       1.0  0.94940  0.44390  0.22340  1.0000
  H   H38       1.0  0.05060  0.55610  0.77660  1.0000
  C   C43       1.0  0.15020  0.41900  0.20730  1.0000
  C   C44       1.0  0.84980  0.58100  0.79270  1.0000
  H   H39       1.0  0.12160  0.38410  0.14750  1.0000
  H   H40       1.0  0.87840  0.61590  0.85250  1.0000
  C   C45       1.0  0.32560  0.48040  0.33100  1.0000
  C   C46       1.0  0.67440  0.51960  0.66900  1.0000
  H   H41       1.0  0.42290  0.48940  0.35880  1.0000
  H   H42       1.0  0.57710  0.51060  0.64120  1.0000
  C   C47       1.0  0.22830  0.51830  0.38050  1.0000
  C   C48       1.0  0.77170  0.48170  0.61950  1.0000
  H   H43       1.0  0.25910  0.55020  0.44080  1.0000
  H   H44       1.0  0.74090  0.44980  0.55920  1.0000
  N   N17       1.0  0.28820  0.43150  0.24530  1.0000
  N   N18       1.0  0.71180  0.56850  0.75470  1.0000
