data_image0
_chemical_formula_structural       Zn12O56H8O4H8C16H4C8H4C4H4C4H4C16H4C8H4C4H4C4H4C16H4C8H4C4H4C4H4
_chemical_formula_sum              "Zn12 O60 H64 C96"
_cell_length_a       20.682
_cell_length_b       10.2792
_cell_length_c       22.747
_cell_angle_alpha    90
_cell_angle_beta     116.343
_cell_angle_gamma    90

_space_group_name_H-M_alt    "P 1"
_space_group_IT_number       1

loop_
  _space_group_symop_operation_xyz
  'x, y, z'

loop_
  _atom_site_type_symbol
  _atom_site_label
  _atom_site_symmetry_multiplicity
  _atom_site_fract_x
  _atom_site_fract_y
  _atom_site_fract_z
  _atom_site_occupancy
  Zn  Zn1       1.0  0.48144  0.20564  0.70307  1.0000
  Zn  Zn2       1.0  0.01856  0.70564  0.79693  1.0000
  Zn  Zn3       1.0  0.51856  0.79436  0.29693  1.0000
  Zn  Zn4       1.0  0.98144  0.29436  0.20307  1.0000
  Zn  Zn5       1.0  0.34352  0.43271  0.65854  1.0000
  Zn  Zn6       1.0  0.15648  0.93271  0.84146  1.0000
  Zn  Zn7       1.0  0.65648  0.56729  0.34146  1.0000
  Zn  Zn8       1.0  0.84352  0.06729  0.15854  1.0000
  Zn  Zn9       1.0  0.34741  0.26145  0.54343  1.0000
  Zn  Zn10      1.0  0.15259  0.76145  0.95657  1.0000
  Zn  Zn11      1.0  0.65259  0.73855  0.45657  1.0000
  Zn  Zn12      1.0  0.84741  0.23855  0.04343  1.0000
  O   O1        1.0  0.52622  0.36520  0.68671  1.0000
  O   O2        1.0  0.97378  0.86520  0.81329  1.0000
  O   O3        1.0  0.47378  0.63480  0.31329  1.0000
  O   O4        1.0  0.02622  0.13480  0.18671  1.0000
  O   O5        1.0  0.45439  0.47480  0.71814  1.0000
  O   O6        1.0  0.04561  0.97480  0.78186  1.0000
  O   O7        1.0  0.54561  0.52520  0.28186  1.0000
  O   O8        1.0  0.95439  0.02520  0.21814  1.0000
  O   O9        1.0  0.44987  0.95660  0.70596  1.0000
  O   O10       1.0  0.05013  0.45660  0.79404  1.0000
  O   O11       1.0  0.55013  0.04340  0.29404  1.0000
  O   O12       1.0  0.94987  0.54340  0.20596  1.0000
  O   O13       1.0  0.52028  0.05920  0.67264  1.0000
  O   O14       1.0  0.97972  0.55920  0.82736  1.0000
  O   O15       1.0  0.47972  0.94080  0.32736  1.0000
  O   O16       1.0  0.02028  0.44080  0.17264  1.0000
  O   O17       1.0  0.23813  0.37910  0.59604  1.0000
  O   O18       1.0  0.26187  0.87910  0.90396  1.0000
  O   O19       1.0  0.76187  0.62090  0.40396  1.0000
  O   O20       1.0  0.73813  0.12090  0.09604  1.0000
  O   O21       1.0  0.24249  0.29610  0.50686  1.0000
  O   O22       1.0  0.25751  0.79610  0.99314  1.0000
  O   O23       1.0  0.75751  0.70390  0.49314  1.0000
  O   O24       1.0  0.74249  0.20390  0.00686  1.0000
  O   O25       1.0  0.02225  0.29880  0.29920  1.0000
  O   O26       1.0  0.47775  0.79880  0.20080  1.0000
  O   O27       1.0  0.97775  0.70120  0.70080  1.0000
  O   O28       1.0  0.52225  0.20120  0.79920  1.0000
  O   O29       1.0  0.91608  0.33800  0.29804  1.0000
  O   O30       1.0  0.58392  0.83800  0.20196  1.0000
  O   O31       1.0  0.08392  0.66200  0.70196  1.0000
  O   O32       1.0  0.41608  0.16200  0.79804  1.0000
  O   O33       1.0  0.35105  0.53300  0.58258  1.0000
  O   O34       1.0  0.14895  0.03300  0.91742  1.0000
  O   O35       1.0  0.64895  0.46700  0.41742  1.0000
  O   O36       1.0  0.85105  0.96700  0.08258  1.0000
  O   O37       1.0  0.38780  0.41650  0.52094  1.0000
  O   O38       1.0  0.11220  0.91650  0.97906  1.0000
  O   O39       1.0  0.61220  0.58350  0.47906  1.0000
  O   O40       1.0  0.88780  0.08350  0.02094  1.0000
  O   O41       1.0  0.30947  0.00310  0.54437  1.0000
  O   O42       1.0  0.19053  0.50310  0.95563  1.0000
  O   O43       1.0  0.69053  0.99690  0.45563  1.0000
  O   O44       1.0  0.80947  0.49690  0.04437  1.0000
  O   O45       1.0  0.37431  0.11200  0.50633  1.0000
  O   O46       1.0  0.12569  0.61200  0.99367  1.0000
  O   O47       1.0  0.62569  0.88800  0.49367  1.0000
  O   O48       1.0  0.87431  0.38800  0.00633  1.0000
  O   O49       1.0  0.37951  0.24790  0.63988  1.0000
  O   O50       1.0  0.12049  0.74790  0.86012  1.0000
  O   O51       1.0  0.62049  0.75210  0.36012  1.0000
  O   O52       1.0  0.87951  0.25210  0.13988  1.0000
  O   O53       1.0  0.30988  0.60880  0.68185  1.0000
  O   O54       1.0  0.19012  0.10880  0.81815  1.0000
  O   O55       1.0  0.69012  0.39120  0.31815  1.0000
  O   O56       1.0  0.80988  0.89120  0.18185  1.0000
  H   H1        1.0  0.31801  0.58308  0.72003  1.0000
  H   H2        1.0  0.18199  0.08308  0.77997  1.0000
  H   H3        1.0  0.68199  0.41692  0.27997  1.0000
  H   H4        1.0  0.81801  0.91692  0.22003  1.0000
  H   H5        1.0  0.26737  0.58517  0.65555  1.0000
  H   H6        1.0  0.23263  0.08517  0.84445  1.0000
  H   H7        1.0  0.73263  0.41483  0.34445  1.0000
  H   H8        1.0  0.76737  0.91483  0.15555  1.0000
  O   O57       1.0  0.32912  0.35810  0.73612  1.0000
  O   O58       1.0  0.17088  0.85810  0.76388  1.0000
  O   O59       1.0  0.67088  0.64190  0.26388  1.0000
  O   O60       1.0  0.82912  0.14190  0.23612  1.0000
  H   H9        1.0  0.32463  0.27639  0.72973  1.0000
  H   H10       1.0  0.17537  0.77639  0.77027  1.0000
  H   H11       1.0  0.67537  0.72361  0.27027  1.0000
  H   H12       1.0  0.82463  0.22361  0.22973  1.0000
  H   H13       1.0  0.37055  0.35831  0.76887  1.0000
  H   H14       1.0  0.12945  0.85831  0.73113  1.0000
  H   H15       1.0  0.62945  0.64169  0.23113  1.0000
  H   H16       1.0  0.87055  0.14169  0.26887  1.0000
  C   C1        1.0  0.50059  0.47010  0.69612  1.0000
  C   C2        1.0  0.99941  0.97010  0.80388  1.0000
  C   C3        1.0  0.49941  0.52990  0.30388  1.0000
  C   C4        1.0  0.00059  0.02990  0.19612  1.0000
  C   C5        1.0  0.49490  0.95560  0.68470  1.0000
  C   C6        1.0  0.00510  0.45560  0.81530  1.0000
  C   C7        1.0  0.50510  0.04440  0.31530  1.0000
  C   C8        1.0  0.99490  0.54440  0.18470  1.0000
  C   C9        1.0  0.52638  0.59420  0.67960  1.0000
  C   C10       1.0  0.97362  0.09420  0.82040  1.0000
  C   C11       1.0  0.47362  0.40580  0.32040  1.0000
  C   C12       1.0  0.02638  0.90580  0.17960  1.0000
  C   C13       1.0  0.50139  0.71210  0.69050  1.0000
  C   C14       1.0  0.99861  0.21210  0.80950  1.0000
  C   C15       1.0  0.49861  0.28790  0.30950  1.0000
  C   C16       1.0  0.00139  0.78790  0.19050  1.0000
  H   H17       1.0  0.47010  0.71379  0.70982  1.0000
  H   H18       1.0  0.02990  0.21379  0.79018  1.0000
  H   H19       1.0  0.52990  0.28621  0.29018  1.0000
  H   H20       1.0  0.97010  0.78621  0.20982  1.0000
  C   C17       1.0  0.52261  0.82810  0.67283  1.0000
  C   C18       1.0  0.97739  0.32810  0.82717  1.0000
  C   C19       1.0  0.47739  0.17190  0.32717  1.0000
  C   C20       1.0  0.02261  0.67190  0.17283  1.0000
  C   C21       1.0  0.56830  0.82380  0.64313  1.0000
  C   C22       1.0  0.93170  0.32380  0.85687  1.0000
  C   C23       1.0  0.43170  0.17620  0.35687  1.0000
  C   C24       1.0  0.06830  0.67620  0.14313  1.0000
  H   H21       1.0  0.58277  0.90084  0.63107  1.0000
  H   H22       1.0  0.91723  0.40084  0.86893  1.0000
  H   H23       1.0  0.41723  0.09916  0.36893  1.0000
  H   H24       1.0  0.08277  0.59916  0.13107  1.0000
  C   C25       1.0  0.59280  0.70550  0.63120  1.0000
  C   C26       1.0  0.90720  0.20550  0.86880  1.0000
  C   C27       1.0  0.40720  0.29450  0.36880  1.0000
  C   C28       1.0  0.09280  0.79450  0.13120  1.0000
  H   H25       1.0  0.62261  0.70324  0.61031  1.0000
  H   H26       1.0  0.87739  0.20324  0.88969  1.0000
  H   H27       1.0  0.37739  0.29676  0.38969  1.0000
  H   H28       1.0  0.12261  0.79676  0.11031  1.0000
  C   C29       1.0  0.57270  0.59160  0.65034  1.0000
  C   C30       1.0  0.92730  0.09160  0.84966  1.0000
  C   C31       1.0  0.42730  0.40840  0.34966  1.0000
  C   C32       1.0  0.07270  0.90840  0.15034  1.0000
  H   H29       1.0  0.59025  0.51253  0.64366  1.0000
  H   H30       1.0  0.90975  0.01253  0.85634  1.0000
  H   H31       1.0  0.40975  0.48747  0.35634  1.0000
  H   H32       1.0  0.09025  0.98747  0.14366  1.0000
  C   C33       1.0  0.20948  0.33900  0.53807  1.0000
  C   C34       1.0  0.29052  0.83900  0.96193  1.0000
  C   C35       1.0  0.79052  0.66100  0.46193  1.0000
  C   C36       1.0  0.70948  0.16100  0.03807  1.0000
  C   C37       1.0  0.98290  0.32390  0.32729  1.0000
  C   C38       1.0  0.51710  0.82390  0.17271  1.0000
  C   C39       1.0  0.01710  0.67610  0.67271  1.0000
  C   C40       1.0  0.48290  0.17610  0.82729  1.0000
  C   C41       1.0  0.12880  0.34070  0.50213  1.0000
  C   C42       1.0  0.37120  0.84070  0.99787  1.0000
  C   C43       1.0  0.87120  0.65930  0.49787  1.0000
  C   C44       1.0  0.62880  0.15930  0.00213  1.0000
  C   C45       1.0  0.09448  0.33240  0.43437  1.0000
  C   C46       1.0  0.40552  0.83240  0.06563  1.0000
  C   C47       1.0  0.90552  0.66760  0.56563  1.0000
  C   C48       1.0  0.59448  0.16760  0.93437  1.0000
  H   H33       1.0  0.12173  0.32634  0.41114  1.0000
  H   H34       1.0  0.37827  0.82634  0.08886  1.0000
  H   H35       1.0  0.87827  0.67366  0.58886  1.0000
  H   H36       1.0  0.62173  0.17366  0.91114  1.0000
  C   C49       1.0  0.01963  0.33320  0.40078  1.0000
  C   C50       1.0  0.48037  0.83320  0.09922  1.0000
  C   C51       1.0  0.98037  0.66680  0.59922  1.0000
  C   C52       1.0  0.51963  0.16680  0.90078  1.0000
  C   C53       1.0  0.97951  0.33780  0.43600  1.0000
  C   C54       1.0  0.52049  0.83780  0.06400  1.0000
  C   C55       1.0  0.02049  0.66220  0.56400  1.0000
  C   C56       1.0  0.47951  0.16220  0.93600  1.0000
  H   H37       1.0  0.92939  0.33599  0.41385  1.0000
  H   H38       1.0  0.57061  0.83599  0.08615  1.0000
  H   H39       1.0  0.07061  0.66401  0.58615  1.0000
  H   H40       1.0  0.42939  0.16401  0.91385  1.0000
  C   C57       1.0  0.01320  0.34490  0.50320  1.0000
  C   C58       1.0  0.48680  0.84490  0.99680  1.0000
  C   C59       1.0  0.98680  0.65510  0.49680  1.0000
  C   C60       1.0  0.51320  0.15510  0.00320  1.0000
  H   H41       1.0  0.98580  0.34764  0.52645  1.0000
  H   H42       1.0  0.51420  0.84764  0.97355  1.0000
  H   H43       1.0  0.01420  0.65236  0.47355  1.0000
  H   H44       1.0  0.48580  0.15236  0.02645  1.0000
  C   C61       1.0  0.08750  0.34800  0.53644  1.0000
  C   C62       1.0  0.41250  0.84800  0.96356  1.0000
  C   C63       1.0  0.91250  0.65200  0.46356  1.0000
  C   C64       1.0  0.58750  0.15200  0.03644  1.0000
  H   H45       1.0  0.11007  0.35490  0.58193  1.0000
  H   H46       1.0  0.38993  0.85490  0.91807  1.0000
  H   H47       1.0  0.88993  0.64510  0.41807  1.0000
  H   H48       1.0  0.61007  0.14510  0.08193  1.0000
  C   C65       1.0  0.37582  0.52350  0.54177  1.0000
  C   C66       1.0  0.12418  0.02350  0.95823  1.0000
  C   C67       1.0  0.62418  0.47650  0.45823  1.0000
  C   C68       1.0  0.87582  0.97650  0.04177  1.0000
  C   C69       1.0  0.35249  0.00620  0.52033  1.0000
  C   C70       1.0  0.14751  0.50620  0.97967  1.0000
  C   C71       1.0  0.64751  0.99380  0.47967  1.0000
  C   C72       1.0  0.85249  0.49380  0.02033  1.0000
  C   C73       1.0  0.39094  0.64730  0.51524  1.0000
  C   C74       1.0  0.10906  0.14730  0.98476  1.0000
  C   C75       1.0  0.60906  0.35270  0.48476  1.0000
  C   C76       1.0  0.89094  0.85270  0.01524  1.0000
  C   C77       1.0  0.36668  0.76460  0.52870  1.0000
  C   C78       1.0  0.13332  0.26460  0.97130  1.0000
  C   C79       1.0  0.63332  0.23540  0.47130  1.0000
  C   C80       1.0  0.86668  0.73540  0.02870  1.0000
  H   H49       1.0  0.34112  0.76468  0.55357  1.0000
  H   H50       1.0  0.15888  0.26468  0.94643  1.0000
  H   H51       1.0  0.65888  0.23532  0.44643  1.0000
  H   H52       1.0  0.84112  0.73532  0.05357  1.0000
  C   C81       1.0  0.38002  0.88130  0.50564  1.0000
  C   C82       1.0  0.11998  0.38130  0.99436  1.0000
  C   C83       1.0  0.61998  0.11870  0.49436  1.0000
  C   C84       1.0  0.88002  0.61870  0.00564  1.0000
  C   C85       1.0  0.42028  0.88070  0.47023  1.0000
  C   C86       1.0  0.07972  0.38070  0.02977  1.0000
  C   C87       1.0  0.57972  0.11930  0.52977  1.0000
  C   C88       1.0  0.92028  0.61930  0.97023  1.0000
  H   H53       1.0  0.43136  0.95868  0.45605  1.0000
  H   H54       1.0  0.06864  0.45868  0.04395  1.0000
  H   H55       1.0  0.56864  0.04132  0.54395  1.0000
  H   H56       1.0  0.93136  0.54132  0.95605  1.0000
  C   C89       1.0  0.44380  0.76400  0.45611  1.0000
  C   C90       1.0  0.05620  0.26400  0.04389  1.0000
  C   C91       1.0  0.55620  0.23600  0.54389  1.0000
  C   C92       1.0  0.94380  0.73600  0.95611  1.0000
  H   H57       1.0  0.46990  0.76369  0.43168  1.0000
  H   H58       1.0  0.03010  0.26369  0.06832  1.0000
  H   H59       1.0  0.53010  0.23631  0.56832  1.0000
  H   H60       1.0  0.96990  0.73631  0.93168  1.0000
  C   C93       1.0  0.42879  0.64850  0.47812  1.0000
  C   C94       1.0  0.07121  0.14850  0.02188  1.0000
  C   C95       1.0  0.57121  0.35150  0.52188  1.0000
  C   C96       1.0  0.92879  0.85150  0.97812  1.0000
  H   H61       1.0  0.44423  0.57051  0.46792  1.0000
  H   H62       1.0  0.05577  0.07051  0.03208  1.0000
  H   H63       1.0  0.55577  0.42949  0.53208  1.0000
  H   H64       1.0  0.94423  0.92949  0.96792  1.0000
