data_image0
_chemical_formula_structural       Cr12C72Cl3N96H24
_chemical_formula_sum              "Cr12 C72 Cl3 N96 H24"
_cell_length_a       18.7545
_cell_length_b       18.7545
_cell_length_c       18.7545
_cell_angle_alpha    90
_cell_angle_beta     90
_cell_angle_gamma    90

_space_group_name_H-M_alt    "P 1"
_space_group_IT_number       1

loop_
  _space_group_symop_operation_xyz
  'x, y, z'

loop_
  _atom_site_type_symbol
  _atom_site_label
  _atom_site_symmetry_multiplicity
  _atom_site_fract_x
  _atom_site_fract_y
  _atom_site_fract_z
  _atom_site_occupancy
  Cr  Cr1       1.0  0.13720  0.50000  0.00000  1.0000
  Cr  Cr2       1.0  0.00000  0.13720  0.50000  1.0000
  Cr  Cr3       1.0  0.50000  0.00000  0.13720  1.0000
  Cr  Cr4       1.0  0.50000  0.00000  0.86280  1.0000
  Cr  Cr5       1.0  0.86280  0.50000  0.00000  1.0000
  Cr  Cr6       1.0  0.00000  0.86280  0.50000  1.0000
  Cr  Cr7       1.0  0.50000  0.13720  0.00000  1.0000
  Cr  Cr8       1.0  0.00000  0.50000  0.13720  1.0000
  Cr  Cr9       1.0  0.13720  0.00000  0.50000  1.0000
  Cr  Cr10      1.0  0.50000  0.86280  0.00000  1.0000
  Cr  Cr11      1.0  0.00000  0.50000  0.86280  1.0000
  Cr  Cr12      1.0  0.86280  0.00000  0.50000  1.0000
  C   C1        1.0  0.14910  0.33510  0.85090  1.0000
  C   C2        1.0  0.85090  0.14910  0.33510  1.0000
  C   C3        1.0  0.33510  0.85090  0.14910  1.0000
  C   C4        1.0  0.14910  0.14910  0.66490  1.0000
  C   C5        1.0  0.66490  0.14910  0.14910  1.0000
  C   C6        1.0  0.33510  0.14910  0.85090  1.0000
  C   C7        1.0  0.85090  0.33510  0.14910  1.0000
  C   C8        1.0  0.14910  0.85090  0.33510  1.0000
  C   C9        1.0  0.14910  0.66490  0.14910  1.0000
  C   C10       1.0  0.33510  0.14910  0.14910  1.0000
  C   C11       1.0  0.14910  0.33510  0.14910  1.0000
  C   C12       1.0  0.14910  0.14910  0.33510  1.0000
  C   C13       1.0  0.85090  0.66490  0.85090  1.0000
  C   C14       1.0  0.85090  0.85090  0.66490  1.0000
  C   C15       1.0  0.66490  0.85090  0.85090  1.0000
  C   C16       1.0  0.66490  0.85090  0.14910  1.0000
  C   C17       1.0  0.14910  0.66490  0.85090  1.0000
  C   C18       1.0  0.85090  0.14910  0.66490  1.0000
  C   C19       1.0  0.85090  0.66490  0.14910  1.0000
  C   C20       1.0  0.14910  0.85090  0.66490  1.0000
  C   C21       1.0  0.85090  0.85090  0.33510  1.0000
  C   C22       1.0  0.33510  0.85090  0.85090  1.0000
  C   C23       1.0  0.85090  0.33510  0.85090  1.0000
  C   C24       1.0  0.66490  0.14910  0.85090  1.0000
  C   C25       1.0  0.18280  0.27100  0.81720  1.0000
  C   C26       1.0  0.81720  0.18280  0.27100  1.0000
  C   C27       1.0  0.27100  0.81720  0.18280  1.0000
  C   C28       1.0  0.18280  0.18280  0.72900  1.0000
  C   C29       1.0  0.72900  0.18280  0.18280  1.0000
  C   C30       1.0  0.27100  0.18280  0.81720  1.0000
  C   C31       1.0  0.81720  0.27100  0.18280  1.0000
  C   C32       1.0  0.18280  0.81720  0.27100  1.0000
  C   C33       1.0  0.18280  0.72900  0.18280  1.0000
  C   C34       1.0  0.27100  0.18280  0.18280  1.0000
  C   C35       1.0  0.18280  0.27100  0.18280  1.0000
  C   C36       1.0  0.18280  0.18280  0.27100  1.0000
  C   C37       1.0  0.81720  0.72900  0.81720  1.0000
  C   C38       1.0  0.81720  0.81720  0.72900  1.0000
  C   C39       1.0  0.72900  0.81720  0.81720  1.0000
  C   C40       1.0  0.72900  0.81720  0.18280  1.0000
  C   C41       1.0  0.18280  0.72900  0.81720  1.0000
  C   C42       1.0  0.81720  0.18280  0.72900  1.0000
  C   C43       1.0  0.81720  0.72900  0.18280  1.0000
  C   C44       1.0  0.18280  0.81720  0.72900  1.0000
  C   C45       1.0  0.81720  0.81720  0.27100  1.0000
  C   C46       1.0  0.27100  0.81720  0.81720  1.0000
  C   C47       1.0  0.81720  0.27100  0.81720  1.0000
  C   C48       1.0  0.72900  0.18280  0.81720  1.0000
  C   C49       1.0  0.24580  0.24580  0.85160  1.0000
  C   C50       1.0  0.85160  0.24580  0.24580  1.0000
  C   C51       1.0  0.24580  0.85160  0.24580  1.0000
  C   C52       1.0  0.14840  0.24580  0.75420  1.0000
  C   C53       1.0  0.75420  0.14840  0.24580  1.0000
  C   C54       1.0  0.24580  0.14840  0.75420  1.0000
  C   C55       1.0  0.75420  0.24580  0.14840  1.0000
  C   C56       1.0  0.14840  0.75420  0.24580  1.0000
  C   C57       1.0  0.24580  0.75420  0.14840  1.0000
  C   C58       1.0  0.24580  0.24580  0.14840  1.0000
  C   C59       1.0  0.14840  0.24580  0.24580  1.0000
  C   C60       1.0  0.24580  0.14840  0.24580  1.0000
  C   C61       1.0  0.75420  0.75420  0.85160  1.0000
  C   C62       1.0  0.85160  0.75420  0.75420  1.0000
  C   C63       1.0  0.75420  0.85160  0.75420  1.0000
  C   C64       1.0  0.75420  0.75420  0.14840  1.0000
  C   C65       1.0  0.14840  0.75420  0.75420  1.0000
  C   C66       1.0  0.75420  0.14840  0.75420  1.0000
  C   C67       1.0  0.85160  0.75420  0.24580  1.0000
  C   C68       1.0  0.24580  0.85160  0.75420  1.0000
  C   C69       1.0  0.75420  0.85160  0.24580  1.0000
  C   C70       1.0  0.24580  0.75420  0.85160  1.0000
  C   C71       1.0  0.85160  0.24580  0.75420  1.0000
  C   C72       1.0  0.75420  0.24580  0.85160  1.0000
  Cl  Cl1       1.0  0.00000  0.50000  0.00000  1.0000
  Cl  Cl2       1.0  0.00000  0.00000  0.50000  1.0000
  Cl  Cl3       1.0  0.50000  0.00000  0.00000  1.0000
  N   N1        1.0  0.13127  0.42290  0.92076  1.0000
  N   N2        1.0  0.92076  0.13127  0.42290  1.0000
  N   N3        1.0  0.42290  0.92076  0.13127  1.0000
  N   N4        1.0  0.07924  0.13127  0.57710  1.0000
  N   N5        1.0  0.57710  0.07924  0.13127  1.0000
  N   N6        1.0  0.42290  0.07924  0.86873  1.0000
  N   N7        1.0  0.86873  0.42290  0.07924  1.0000
  N   N8        1.0  0.07924  0.86873  0.42290  1.0000
  N   N9        1.0  0.13127  0.57710  0.07924  1.0000
  N   N10       1.0  0.42290  0.13127  0.07924  1.0000
  N   N11       1.0  0.07924  0.42290  0.13127  1.0000
  N   N12       1.0  0.13127  0.07924  0.42290  1.0000
  N   N13       1.0  0.86873  0.57710  0.92076  1.0000
  N   N14       1.0  0.92076  0.86873  0.57710  1.0000
  N   N15       1.0  0.57710  0.92076  0.86873  1.0000
  N   N16       1.0  0.57710  0.86873  0.07924  1.0000
  N   N17       1.0  0.07924  0.57710  0.86873  1.0000
  N   N18       1.0  0.86873  0.07924  0.57710  1.0000
  N   N19       1.0  0.92076  0.57710  0.13127  1.0000
  N   N20       1.0  0.13127  0.92076  0.57710  1.0000
  N   N21       1.0  0.86873  0.92076  0.42290  1.0000
  N   N22       1.0  0.42290  0.86873  0.92076  1.0000
  N   N23       1.0  0.92076  0.42290  0.86873  1.0000
  N   N24       1.0  0.57710  0.13127  0.92076  1.0000
  N   N25       1.0  0.86873  0.57710  0.07924  1.0000
  N   N26       1.0  0.07924  0.86873  0.57710  1.0000
  N   N27       1.0  0.57710  0.07924  0.86873  1.0000
  N   N28       1.0  0.92076  0.86873  0.42290  1.0000
  N   N29       1.0  0.42290  0.92076  0.86873  1.0000
  N   N30       1.0  0.57710  0.92076  0.13127  1.0000
  N   N31       1.0  0.13127  0.57710  0.92076  1.0000
  N   N32       1.0  0.92076  0.13127  0.57710  1.0000
  N   N33       1.0  0.86873  0.42290  0.92076  1.0000
  N   N34       1.0  0.57710  0.86873  0.92076  1.0000
  N   N35       1.0  0.92076  0.57710  0.86873  1.0000
  N   N36       1.0  0.86873  0.92076  0.57710  1.0000
  N   N37       1.0  0.13127  0.42290  0.07924  1.0000
  N   N38       1.0  0.07924  0.13127  0.42290  1.0000
  N   N39       1.0  0.42290  0.07924  0.13127  1.0000
  N   N40       1.0  0.42290  0.13127  0.92076  1.0000
  N   N41       1.0  0.92076  0.42290  0.13127  1.0000
  N   N42       1.0  0.13127  0.92076  0.42290  1.0000
  N   N43       1.0  0.07924  0.42290  0.86873  1.0000
  N   N44       1.0  0.86873  0.07924  0.42290  1.0000
  N   N45       1.0  0.13127  0.07924  0.57710  1.0000
  N   N46       1.0  0.57710  0.13127  0.07924  1.0000
  N   N47       1.0  0.07924  0.57710  0.13127  1.0000
  N   N48       1.0  0.42290  0.86873  0.07924  1.0000
  N   N49       1.0  0.17580  0.37014  0.90870  1.0000
  N   N50       1.0  0.90870  0.17580  0.37014  1.0000
  N   N51       1.0  0.37014  0.90870  0.17580  1.0000
  N   N52       1.0  0.09130  0.17580  0.62986  1.0000
  N   N53       1.0  0.62986  0.09130  0.17580  1.0000
  N   N54       1.0  0.37014  0.09130  0.82420  1.0000
  N   N55       1.0  0.82420  0.37014  0.09130  1.0000
  N   N56       1.0  0.09130  0.82420  0.37014  1.0000
  N   N57       1.0  0.17580  0.62986  0.09130  1.0000
  N   N58       1.0  0.37014  0.17580  0.09130  1.0000
  N   N59       1.0  0.09130  0.37014  0.17580  1.0000
  N   N60       1.0  0.17580  0.09130  0.37014  1.0000
  N   N61       1.0  0.82420  0.62986  0.90870  1.0000
  N   N62       1.0  0.90870  0.82420  0.62986  1.0000
  N   N63       1.0  0.62986  0.90870  0.82420  1.0000
  N   N64       1.0  0.62986  0.82420  0.09130  1.0000
  N   N65       1.0  0.09130  0.62986  0.82420  1.0000
  N   N66       1.0  0.82420  0.09130  0.62986  1.0000
  N   N67       1.0  0.90870  0.62986  0.17580  1.0000
  N   N68       1.0  0.17580  0.90870  0.62986  1.0000
  N   N69       1.0  0.82420  0.90870  0.37014  1.0000
  N   N70       1.0  0.37014  0.82420  0.90870  1.0000
  N   N71       1.0  0.90870  0.37014  0.82420  1.0000
  N   N72       1.0  0.62986  0.17580  0.90870  1.0000
  N   N73       1.0  0.82420  0.62986  0.09130  1.0000
  N   N74       1.0  0.09130  0.82420  0.62986  1.0000
  N   N75       1.0  0.62986  0.09130  0.82420  1.0000
  N   N76       1.0  0.90870  0.82420  0.37014  1.0000
  N   N77       1.0  0.37014  0.90870  0.82420  1.0000
  N   N78       1.0  0.62986  0.90870  0.17580  1.0000
  N   N79       1.0  0.17580  0.62986  0.90870  1.0000
  N   N80       1.0  0.90870  0.17580  0.62986  1.0000
  N   N81       1.0  0.82420  0.37014  0.90870  1.0000
  N   N82       1.0  0.62986  0.82420  0.90870  1.0000
  N   N83       1.0  0.90870  0.62986  0.82420  1.0000
  N   N84       1.0  0.82420  0.90870  0.62986  1.0000
  N   N85       1.0  0.17580  0.37014  0.09130  1.0000
  N   N86       1.0  0.09130  0.17580  0.37014  1.0000
  N   N87       1.0  0.37014  0.09130  0.17580  1.0000
  N   N88       1.0  0.37014  0.17580  0.90870  1.0000
  N   N89       1.0  0.90870  0.37014  0.17580  1.0000
  N   N90       1.0  0.17580  0.90870  0.37014  1.0000
  N   N91       1.0  0.09130  0.37014  0.82420  1.0000
  N   N92       1.0  0.82420  0.09130  0.37014  1.0000
  N   N93       1.0  0.17580  0.09130  0.62986  1.0000
  N   N94       1.0  0.62986  0.17580  0.09130  1.0000
  N   N95       1.0  0.09130  0.62986  0.17580  1.0000
  N   N96       1.0  0.37014  0.82420  0.09130  1.0000
  H   H1        1.0  0.26580  0.26580  0.89140  1.0000
  H   H2        1.0  0.89140  0.26580  0.26580  1.0000
  H   H3        1.0  0.26580  0.89140  0.26580  1.0000
  H   H4        1.0  0.10860  0.26580  0.73420  1.0000
  H   H5        1.0  0.73420  0.10860  0.26580  1.0000
  H   H6        1.0  0.26580  0.10860  0.73420  1.0000
  H   H7        1.0  0.73420  0.26580  0.10860  1.0000
  H   H8        1.0  0.10860  0.73420  0.26580  1.0000
  H   H9        1.0  0.26580  0.73420  0.10860  1.0000
  H   H10       1.0  0.26580  0.26580  0.10860  1.0000
  H   H11       1.0  0.10860  0.26580  0.26580  1.0000
  H   H12       1.0  0.26580  0.10860  0.26580  1.0000
  H   H13       1.0  0.73420  0.73420  0.89140  1.0000
  H   H14       1.0  0.89140  0.73420  0.73420  1.0000
  H   H15       1.0  0.73420  0.89140  0.73420  1.0000
  H   H16       1.0  0.73420  0.73420  0.10860  1.0000
  H   H17       1.0  0.10860  0.73420  0.73420  1.0000
  H   H18       1.0  0.73420  0.10860  0.73420  1.0000
  H   H19       1.0  0.89140  0.73420  0.26580  1.0000
  H   H20       1.0  0.26580  0.89140  0.73420  1.0000
  H   H21       1.0  0.73420  0.89140  0.26580  1.0000
  H   H22       1.0  0.26580  0.73420  0.89140  1.0000
  H   H23       1.0  0.89140  0.26580  0.73420  1.0000
  H   H24       1.0  0.73420  0.26580  0.89140  1.0000
