data_image0
_chemical_formula_structural       Ce10S4O66H4O2H4O2H4N12C4H2C2H2C2H2C10H2C2H2C2H2C10H2C2H2C4H2C8H2C2H2C2H2C10H2C2H2C2H2C10H2C2H2C2H2C6
_chemical_formula_sum              "Ce10 S4 O70 H48 N12 C84"
_cell_length_a       10.701
_cell_length_b       10.737
_cell_length_c       27.233
_cell_angle_alpha    95.068
_cell_angle_beta     101.078
_cell_angle_gamma    103.937

_space_group_name_H-M_alt    "P 1"
_space_group_IT_number       1

loop_
  _space_group_symop_operation_xyz
  'x, y, z'

loop_
  _atom_site_type_symbol
  _atom_site_label
  _atom_site_symmetry_multiplicity
  _atom_site_fract_x
  _atom_site_fract_y
  _atom_site_fract_z
  _atom_site_occupancy
  Ce  Ce1       1.0  0.74776  0.86853  0.40414  1.0000
  Ce  Ce2       1.0  0.25224  0.13147  0.59586  1.0000
  Ce  Ce3       1.0  0.57310  0.89998  0.55647  1.0000
  Ce  Ce4       1.0  0.42690  0.10002  0.44353  1.0000
  Ce  Ce5       1.0  0.46491  0.70884  0.74963  1.0000
  Ce  Ce6       1.0  0.53509  0.29116  0.25037  1.0000
  Ce  Ce7       1.0  0.84735  0.01836  0.94274  1.0000
  Ce  Ce8       1.0  0.15265  0.98164  0.05726  1.0000
  Ce  Ce9       1.0  0.04386  0.66120  0.90666  1.0000
  Ce  Ce10      1.0  0.95614  0.33880  0.09334  1.0000
  S   S1        1.0  0.73970  0.16040  0.48868  1.0000
  S   S2        1.0  0.26030  0.83960  0.51132  1.0000
  S   S3        1.0  0.82710  0.75070  0.98892  1.0000
  S   S4        1.0  0.17290  0.24930  0.01108  1.0000
  O   O1        1.0  0.67480  0.63810  0.43360  1.0000
  O   O2        1.0  0.32520  0.36190  0.56640  1.0000
  O   O3        1.0  0.62320  0.79530  0.47760  1.0000
  O   O4        1.0  0.37680  0.20470  0.52240  1.0000
  O   O5        1.0  0.57270  0.80830  0.63530  1.0000
  O   O6        1.0  0.42730  0.19170  0.36470  1.0000
  O   O7        1.0  0.57230  0.64640  0.68090  1.0000
  O   O8        1.0  0.42770  0.35360  0.31910  1.0000
  O   O9        1.0  0.63000  0.08060  0.51050  1.0000
  O   O10       1.0  0.37000  0.91940  0.48950  1.0000
  O   O11       1.0  0.66960  0.22710  0.45190  1.0000
  O   O12       1.0  0.33040  0.77290  0.54810  1.0000
  O   O13       1.0  0.84170  0.24780  0.52890  1.0000
  O   O14       1.0  0.15830  0.75220  0.47110  1.0000
  O   O15       1.0  0.79830  0.07020  0.46290  1.0000
  O   O16       1.0  0.20170  0.92980  0.53710  1.0000
  O   O17       1.0  0.17780  0.07070  0.42780  1.0000
  O   O18       1.0  0.82220  0.92930  0.57220  1.0000
  O   O19       1.0  0.97190  0.95750  0.39420  1.0000
  O   O20       1.0  0.02810  0.04250  0.60580  1.0000
  O   O21       1.0  0.52850  0.94770  0.39810  1.0000
  O   O22       1.0  0.47150  0.05230  0.60190  1.0000
  O   O23       1.0  0.51940  0.77130  0.34690  1.0000
  O   O24       1.0  0.48060  0.22870  0.65310  1.0000
  O   O25       1.0  0.61780  0.11270  0.28810  1.0000
  O   O26       1.0  0.38220  0.88730  0.71190  1.0000
  O   O27       1.0  0.74530  0.03240  0.34520  1.0000
  O   O28       1.0  0.25470  0.96760  0.65480  1.0000
  O   O29       1.0  0.63910  0.53200  0.28380  1.0000
  O   O30       1.0  0.36090  0.46800  0.71620  1.0000
  O   O31       1.0  0.76660  0.69610  0.34290  1.0000
  O   O32       1.0  0.23340  0.30390  0.65710  1.0000
  O   O33       1.0  0.26060  0.64280  0.78400  1.0000
  O   O34       1.0  0.73940  0.35720  0.21600  1.0000
  O   O35       1.0  0.15750  0.58440  0.84580  1.0000
  O   O36       1.0  0.84250  0.41560  0.15420  1.0000
  O   O37       1.0  0.68370  0.66360  0.78730  1.0000
  O   O38       1.0  0.31630  0.33640  0.21270  1.0000
  O   O39       1.0  0.82400  0.60240  0.84570  1.0000
  O   O40       1.0  0.17600  0.39760  0.15430  1.0000
  O   O41       1.0  0.47230  0.88040  0.81950  1.0000
  O   O42       1.0  0.52770  0.11960  0.18050  1.0000
  O   O43       1.0  0.68180  0.94030  0.86290  1.0000
  O   O44       1.0  0.31820  0.05970  0.13710  1.0000
  O   O45       1.0  0.81760  0.14480  0.02080  1.0000
  O   O46       1.0  0.18240  0.85520  0.97920  1.0000
  O   O47       1.0  0.69730  0.23690  0.06380  1.0000
  O   O48       1.0  0.30270  0.76310  0.93620  1.0000
  O   O49       1.0  0.86090  0.25120  0.92600  1.0000
  O   O50       1.0  0.13910  0.74880  0.07400  1.0000
  O   O51       1.0  0.95100  0.42800  0.89680  1.0000
  O   O52       1.0  0.04900  0.57200  0.10320  1.0000
  O   O53       1.0  0.96220  0.87430  0.89890  1.0000
  O   O54       1.0  0.03780  0.12570  0.10110  1.0000
  O   O55       1.0  0.08120  0.82960  0.84440  1.0000
  O   O56       1.0  0.91880  0.17040  0.15560  1.0000
  O   O57       1.0  0.92680  0.88040  0.01080  1.0000
  O   O58       1.0  0.07320  0.11960  0.98920  1.0000
  O   O59       1.0  0.72680  0.78500  0.95040  1.0000
  O   O60       1.0  0.27320  0.21500  0.04960  1.0000
  O   O61       1.0  0.89650  0.66650  0.96470  1.0000
  O   O62       1.0  0.10350  0.33350  0.03530  1.0000
  O   O63       1.0  0.77370  0.69200  0.02860  1.0000
  O   O64       1.0  0.22630  0.30800  0.97140  1.0000
  O   O65       1.0  0.91210  0.84480  0.48420  1.0000
  O   O66       1.0  0.08790  0.15520  0.51580  1.0000
  H   H1        1.0  0.86650  0.85110  0.50620  1.0000
  H   H2        1.0  0.13350  0.14890  0.49380  1.0000
  H   H3        1.0  0.90180  0.76460  0.47490  1.0000
  H   H4        1.0  0.09820  0.23540  0.52510  1.0000
  O   O67       1.0  0.67360  0.91170  0.74950  1.0000
  O   O68       1.0  0.32640  0.08830  0.25050  1.0000
  H   H5        1.0  0.63580  0.95820  0.73130  1.0000
  H   H6        1.0  0.36420  0.04180  0.26870  1.0000
  H   H7        1.0  0.68650  0.94460  0.78020  1.0000
  H   H8        1.0  0.31350  0.05540  0.21980  1.0000
  O   O69       1.0  0.14260  0.57670  0.98780  1.0000
  O   O70       1.0  0.85740  0.42330  0.01220  1.0000
  H   H9        1.0  0.13850  0.63240  0.01120  1.0000
  H   H10       1.0  0.86150  0.36760  0.98880  1.0000
  H   H11       1.0  0.16000  0.61630  0.96320  1.0000
  H   H12       1.0  0.84000  0.38370  0.03680  1.0000
  N   N1        1.0  0.61530  0.67380  0.55770  1.0000
  N   N2        1.0  0.38470  0.32620  0.44230  1.0000
  N   N3        1.0  0.26970  0.91130  0.37360  1.0000
  N   N4        1.0  0.73030  0.08870  0.62640  1.0000
  N   N5        1.0  0.73250  0.35670  0.33120  1.0000
  N   N6        1.0  0.26750  0.64330  0.66880  1.0000
  N   N7        1.0  0.48420  0.59850  0.83150  1.0000
  N   N8        1.0  0.51580  0.40150  0.16850  1.0000
  N   N9        1.0  0.61700  0.05560  0.94150  1.0000
  N   N10       1.0  0.38300  0.94440  0.05850  1.0000
  N   N11       1.0  0.97610  0.11040  0.87470  1.0000
  N   N12       1.0  0.02390  0.88960  0.12530  1.0000
  C   C1        1.0  0.64650  0.61440  0.51800  1.0000
  C   C2        1.0  0.35350  0.38560  0.48200  1.0000
  C   C3        1.0  0.68180  0.49460  0.51960  1.0000
  C   C4        1.0  0.31820  0.50540  0.48040  1.0000
  H   H13       1.0  0.70600  0.45580  0.49230  1.0000
  H   H14       1.0  0.29400  0.54420  0.50770  1.0000
  C   C5        1.0  0.67880  0.43790  0.56350  1.0000
  C   C6        1.0  0.32120  0.56210  0.43650  1.0000
  H   H15       1.0  0.69960  0.35910  0.56590  1.0000
  H   H16       1.0  0.30040  0.64090  0.43410  1.0000
  C   C7        1.0  0.64450  0.49970  0.60360  1.0000
  C   C8        1.0  0.35550  0.50030  0.39640  1.0000
  H   H17       1.0  0.64110  0.46230  0.63300  1.0000
  H   H18       1.0  0.35890  0.53770  0.36700  1.0000
  C   C9        1.0  0.61520  0.61870  0.59960  1.0000
  C   C10       1.0  0.38480  0.38130  0.40040  1.0000
  C   C11       1.0  0.64890  0.68540  0.47260  1.0000
  C   C12       1.0  0.35110  0.31460  0.52740  1.0000
  C   C13       1.0  0.58180  0.69630  0.64160  1.0000
  C   C14       1.0  0.41820  0.30370  0.35840  1.0000
  C   C15       1.0  0.14020  0.89750  0.36310  1.0000
  C   C16       1.0  0.85980  0.10250  0.63690  1.0000
  C   C17       1.0  0.05570  0.80450  0.32480  1.0000
  C   C18       1.0  0.94430  0.19550  0.67520  1.0000
  H   H19       1.0  0.96520  0.79550  0.31840  1.0000
  H   H20       1.0  0.03480  0.20450  0.68160  1.0000
  C   C19       1.0  0.10620  0.72690  0.29680  1.0000
  C   C20       1.0  0.89380  0.27310  0.70320  1.0000
  H   H21       1.0  0.05100  0.66650  0.27010  1.0000
  H   H22       1.0  0.94900  0.33350  0.72990  1.0000
  C   C21       1.0  0.24540  0.73850  0.30850  1.0000
  C   C22       1.0  0.75460  0.26150  0.69150  1.0000
  H   H23       1.0  0.28310  0.68490  0.29070  1.0000
  H   H24       1.0  0.71690  0.31510  0.70930  1.0000
  C   C23       1.0  0.31850  0.83110  0.34670  1.0000
  C   C24       1.0  0.68150  0.16890  0.65330  1.0000
  C   C25       1.0  0.09220  0.98130  0.39720  1.0000
  C   C26       1.0  0.90780  0.01870  0.60280  1.0000
  C   C27       1.0  0.46490  0.85030  0.36450  1.0000
  C   C28       1.0  0.53510  0.14970  0.63550  1.0000
  C   C29       1.0  0.78270  0.26220  0.35200  1.0000
  C   C30       1.0  0.21730  0.73780  0.64800  1.0000
  C   C31       1.0  0.89460  0.29050  0.39210  1.0000
  C   C32       1.0  0.10540  0.70950  0.60790  1.0000
  H   H25       1.0  0.93080  0.22580  0.40440  1.0000
  H   H26       1.0  0.06920  0.77420  0.59560  1.0000
  C   C33       1.0  0.94950  0.42340  0.41280  1.0000
  C   C34       1.0  0.05050  0.57660  0.58720  1.0000
  H   H27       1.0  0.02180  0.44650  0.44000  1.0000
  H   H28       1.0  0.97820  0.55350  0.56000  1.0000
  C   C35       1.0  0.78880  0.48080  0.35040  1.0000
  C   C36       1.0  0.21120  0.51920  0.64960  1.0000
  C   C37       1.0  0.89640  0.51960  0.39280  1.0000
  C   C38       1.0  0.10360  0.48040  0.60720  1.0000
  H   H29       1.0  0.93060  0.60620  0.40690  1.0000
  H   H30       1.0  0.06940  0.39380  0.59310  1.0000
  C   C39       1.0  0.71110  0.12770  0.32690  1.0000
  C   C40       1.0  0.28890  0.87230  0.67310  1.0000
  C   C41       1.0  0.72670  0.57830  0.32390  1.0000
  C   C42       1.0  0.27330  0.42170  0.67610  1.0000
  C   C43       1.0  0.37650  0.56490  0.85210  1.0000
  C   C44       1.0  0.62350  0.43510  0.14790  1.0000
  C   C45       1.0  0.37780  0.50250  0.89550  1.0000
  C   C46       1.0  0.62220  0.49750  0.10450  1.0000
  H   H31       1.0  0.30540  0.48560  0.91040  1.0000
  H   H32       1.0  0.69460  0.51440  0.08960  1.0000
  C   C47       1.0  0.49280  0.46740  0.91500  1.0000
  C   C48       1.0  0.50720  0.53260  0.08500  1.0000
  H   H33       1.0  0.49570  0.42300  0.94290  1.0000
  H   H34       1.0  0.50430  0.57700  0.05710  1.0000
  C   C49       1.0  0.60540  0.49740  0.89360  1.0000
  C   C50       1.0  0.39460  0.50260  0.10640  1.0000
  H   H35       1.0  0.68060  0.47100  0.90600  1.0000
  H   H36       1.0  0.31940  0.52900  0.09400  1.0000
  C   C51       1.0  0.59800  0.57030  0.85190  1.0000
  C   C52       1.0  0.40200  0.42970  0.14810  1.0000
  C   C53       1.0  0.25680  0.60390  0.82600  1.0000
  C   C54       1.0  0.74320  0.39610  0.17400  1.0000
  C   C55       1.0  0.71320  0.61860  0.82790  1.0000
  C   C56       1.0  0.28680  0.38140  0.17210  1.0000
  C   C57       1.0  0.52360  0.01110  0.89870  1.0000
  C   C58       1.0  0.47640  0.98890  0.10130  1.0000
  C   C59       1.0  0.39900  0.03650  0.89220  1.0000
  C   C60       1.0  0.60100  0.96350  0.10780  1.0000
  H   H37       1.0  0.33470  0.00340  0.86260  1.0000
  H   H38       1.0  0.66530  0.99660  0.13740  1.0000
  C   C61       1.0  0.37540  0.11430  0.93210  1.0000
  C   C62       1.0  0.62460  0.88570  0.06790  1.0000
  H   H39       1.0  0.29510  0.13530  0.92900  1.0000
  H   H40       1.0  0.70490  0.86470  0.07100  1.0000
  C   C63       1.0  0.47580  0.16050  0.97730  1.0000
  C   C64       1.0  0.52420  0.83950  0.02270  1.0000
  H   H41       1.0  0.46150  0.21030  0.00430  1.0000
  H   H42       1.0  0.53850  0.78970  0.99570  1.0000
  C   C65       1.0  0.59610  0.12900  0.97980  1.0000
  C   C66       1.0  0.40390  0.87100  0.02020  1.0000
  C   C67       1.0  0.55840  0.93510  0.85690  1.0000
  C   C68       1.0  0.44160  0.06490  0.14310  1.0000
  C   C69       1.0  0.70940  0.17210  0.02540  1.0000
  C   C70       1.0  0.29060  0.82790  0.97460  1.0000
  C   C71       1.0  0.99100  0.23240  0.86660  1.0000
  C   C72       1.0  0.00900  0.76760  0.13340  1.0000
  C   C73       1.0  0.05840  0.28460  0.83220  1.0000
  C   C74       1.0  0.94160  0.71540  0.16780  1.0000
  H   H43       1.0  0.06380  0.36980  0.82670  1.0000
  H   H44       1.0  0.93620  0.63020  0.17330  1.0000
  C   C75       1.0  0.11980  0.20730  0.80520  1.0000
  C   C76       1.0  0.88020  0.79270  0.19480  1.0000
  H   H45       1.0  0.16900  0.24090  0.78240  1.0000
  H   H46       1.0  0.83100  0.75910  0.21760  1.0000
  C   C77       1.0  0.10420  0.08200  0.81360  1.0000
  C   C78       1.0  0.89580  0.91800  0.18640  1.0000
  H   H47       1.0  0.14030  0.02730  0.79570  1.0000
  H   H48       1.0  0.85970  0.97270  0.20430  1.0000
  C   C79       1.0  0.03440  0.03600  0.84900  1.0000
  C   C80       1.0  0.96560  0.96400  0.15100  1.0000
  C   C81       1.0  0.92700  0.31020  0.89860  1.0000
  C   C82       1.0  0.07300  0.68980  0.10140  1.0000
  C   C83       1.0  0.02730  0.90310  0.86410  1.0000
  C   C84       1.0  0.97270  0.09690  0.13590  1.0000
