data_image0
_chemical_formula_structural       Zn2O6H2O12H4C8H2C2H2C4H2C6H2C2H2C4H2C2H2C4H2C2H2C4H2C2H2C4H2C2H2C4H2C6
_chemical_formula_sum              "Zn2 O18 H34 C56"
_cell_length_a       10.4126
_cell_length_b       12.4538
_cell_length_c       13.3546
_cell_angle_alpha    62.231
_cell_angle_beta     89.242
_cell_angle_gamma    82.883

_space_group_name_H-M_alt    "P 1"
_space_group_IT_number       1

loop_
  _space_group_symop_operation_xyz
  'x, y, z'

loop_
  _atom_site_type_symbol
  _atom_site_label
  _atom_site_symmetry_multiplicity
  _atom_site_fract_x
  _atom_site_fract_y
  _atom_site_fract_z
  _atom_site_occupancy
  Zn  Zn1       1.0  0.20532  0.65652  0.34285  1.0000
  Zn  Zn2       1.0  0.79468  0.34348  0.65715  1.0000
  O   O1        1.0  0.29750  0.86210  0.31570  1.0000
  O   O2        1.0  0.70250  0.13790  0.68430  1.0000
  O   O3        1.0  0.10850  0.81850  0.28360  1.0000
  O   O4        1.0  0.89150  0.18150  0.71640  1.0000
  O   O5        1.0  0.87270  0.18330  0.97080  1.0000
  O   O6        1.0  0.12730  0.81670  0.02920  1.0000
  H   H1        1.0  0.80770  0.21650  0.92840  1.0000
  H   H2        1.0  0.19230  0.78350  0.07160  1.0000
  O   O7        1.0  0.89390  0.37370  0.94110  1.0000
  O   O8        1.0  0.10610  0.62630  0.05890  1.0000
  O   O9        1.0  0.36170  0.75880  0.11650  1.0000
  O   O10       1.0  0.63830  0.24120  0.88350  1.0000
  O   O11       1.0  0.36690  0.60930  0.29010  1.0000
  O   O12       1.0  0.63310  0.39070  0.70990  1.0000
  O   O13       1.0  0.94500  0.41040  0.42100  1.0000
  O   O14       1.0  0.05500  0.58960  0.57900  1.0000
  O   O15       1.0  0.75660  0.42780  0.49560  1.0000
  O   O16       1.0  0.24340  0.57220  0.50440  1.0000
  O   O17       1.0  0.10260  0.56120  0.29780  1.0000
  O   O18       1.0  0.89740  0.43880  0.70220  1.0000
  H   H3        1.0  0.11160  0.58180  0.22810  1.0000
  H   H4        1.0  0.88840  0.41820  0.77190  1.0000
  H   H5        1.0  0.04350  0.51690  0.32970  1.0000
  H   H6        1.0  0.95650  0.48310  0.67030  1.0000
  C   C1        1.0  0.18220  0.89140  0.28850  1.0000
  C   C2        1.0  0.81780  0.10860  0.71150  1.0000
  C   C3        1.0  0.11840  0.01920  0.25340  1.0000
  C   C4        1.0  0.88160  0.98080  0.74660  1.0000
  C   C5        1.0  0.13530  0.08090  0.31660  1.0000
  C   C6        1.0  0.86470  0.91910  0.68340  1.0000
  C   C7        1.0  0.08770  0.20500  0.26840  1.0000
  C   C8        1.0  0.91230  0.79500  0.73160  1.0000
  H   H7        1.0  0.09890  0.24810  0.30810  1.0000
  H   H8        1.0  0.90110  0.75190  0.69190  1.0000
  C   C9        1.0  0.02380  0.26550  0.16200  1.0000
  C   C10       1.0  0.97620  0.73450  0.83800  1.0000
  H   H9        1.0  0.99710  0.34930  0.12960  1.0000
  H   H10       1.0  0.00290  0.65070  0.87040  1.0000
  C   C11       1.0  0.99970  0.20210  0.10380  1.0000
  C   C12       1.0  0.00030  0.79790  0.89620  1.0000
  C   C13       1.0  0.04660  0.07960  0.15110  1.0000
  C   C14       1.0  0.95340  0.92040  0.84890  1.0000
  H   H11       1.0  0.02970  0.03600  0.11320  1.0000
  H   H12       1.0  0.97030  0.96400  0.88680  1.0000
  C   C15       1.0  0.91890  0.26420  0.99590  1.0000
  C   C16       1.0  0.08110  0.73580  0.00410  1.0000
  C   C17       1.0  0.20010  0.01510  0.43260  1.0000
  C   C18       1.0  0.79990  0.98490  0.56740  1.0000
  C   C19       1.0  0.17090  0.90080  0.51080  1.0000
  C   C20       1.0  0.82910  0.09920  0.48920  1.0000
  H   H13       1.0  0.10660  0.86650  0.49250  1.0000
  H   H14       1.0  0.89340  0.13350  0.50750  1.0000
  C   C21       1.0  0.23640  0.83700  0.61620  1.0000
  C   C22       1.0  0.76360  0.16300  0.38380  1.0000
  H   H15       1.0  0.21530  0.76020  0.66680  1.0000
  H   H16       1.0  0.78470  0.23980  0.33320  1.0000
  C   C23       1.0  0.33290  0.88480  0.64830  1.0000
  C   C24       1.0  0.66710  0.11520  0.35170  1.0000
  C   C25       1.0  0.35900  0.00100  0.56880  1.0000
  C   C26       1.0  0.64100  0.99900  0.43120  1.0000
  H   H17       1.0  0.42280  0.03600  0.58690  1.0000
  H   H18       1.0  0.57720  0.96400  0.41310  1.0000
  C   C27       1.0  0.29310  0.06570  0.46390  1.0000
  C   C28       1.0  0.70690  0.93430  0.53610  1.0000
  H   H19       1.0  0.31140  0.14390  0.41420  1.0000
  H   H20       1.0  0.68860  0.85610  0.58580  1.0000
  C   C29       1.0  0.40660  0.81620  0.76010  1.0000
  C   C30       1.0  0.59340  0.18380  0.23990  1.0000
  C   C31       1.0  0.36050  0.71860  0.85090  1.0000
  C   C32       1.0  0.63950  0.28140  0.14910  1.0000
  H   H21       1.0  0.28360  0.69330  0.84070  1.0000
  H   H22       1.0  0.71640  0.30670  0.15930  1.0000
  C   C33       1.0  0.42580  0.65810  0.95590  1.0000
  C   C34       1.0  0.57420  0.34190  0.04410  1.0000
  H   H23       1.0  0.39190  0.59320  0.01450  1.0000
  H   H24       1.0  0.60810  0.40680  0.98550  1.0000
  C   C35       1.0  0.54020  0.69200  0.97530  1.0000
  C   C36       1.0  0.45980  0.30800  0.02470  1.0000
  C   C37       1.0  0.58990  0.78810  0.88420  1.0000
  C   C38       1.0  0.41010  0.21190  0.11580  1.0000
  H   H25       1.0  0.66800  0.81180  0.89420  1.0000
  H   H26       1.0  0.33200  0.18820  0.10580  1.0000
  C   C39       1.0  0.52390  0.84790  0.77980  1.0000
  C   C40       1.0  0.47610  0.15210  0.22020  1.0000
  H   H27       1.0  0.55880  0.91150  0.72060  1.0000
  H   H28       1.0  0.44120  0.08850  0.27940  1.0000
  C   C41       1.0  0.61140  0.62980  0.08900  1.0000
  C   C42       1.0  0.38860  0.37020  0.91100  1.0000
  C   C43       1.0  0.74210  0.58430  0.09610  1.0000
  C   C44       1.0  0.25790  0.41570  0.90390  1.0000
  H   H29       1.0  0.78240  0.59360  0.03050  1.0000
  H   H30       1.0  0.21760  0.40640  0.96950  1.0000
  C   C45       1.0  0.81330  0.52550  0.19860  1.0000
  C   C46       1.0  0.18670  0.47450  0.80140  1.0000
  H   H31       1.0  0.90070  0.49740  0.20060  1.0000
  H   H32       1.0  0.09930  0.50260  0.79940  1.0000
  C   C47       1.0  0.75570  0.50800  0.29840  1.0000
  C   C48       1.0  0.24430  0.49200  0.70160  1.0000
  C   C49       1.0  0.62550  0.55300  0.29100  1.0000
  C   C50       1.0  0.37450  0.44700  0.70900  1.0000
  H   H33       1.0  0.58510  0.54140  0.35720  1.0000
  H   H34       1.0  0.41490  0.45860  0.64280  1.0000
  C   C51       1.0  0.55370  0.61420  0.18950  1.0000
  C   C52       1.0  0.44630  0.38580  0.81050  1.0000
  C   C53       1.0  0.41550  0.66640  0.19630  1.0000
  C   C54       1.0  0.58450  0.33360  0.80370  1.0000
  C   C55       1.0  0.82690  0.44370  0.41350  1.0000
  C   C56       1.0  0.17310  0.55630  0.58650  1.0000
