data_image0
_chemical_formula_structural       Mo10Cu3P4Na2O30H4O12H2O8H4N30C2H2C2H2C2H4C14H6C2H6C2H6C2H6C2H4C2H2C2H2C2H2C2H2C2H4C6H6C4H6C2H2C2H2C2H4C14H6C2H6C2H6C2H6C2H4C2H2C2H2
_chemical_formula_sum              "Mo10 Cu3 P4 Na2 O50 H110 N30 C80"
_cell_length_a       14.9258
_cell_length_b       15.4856
_cell_length_c       16.6813
_cell_angle_alpha    81.704
_cell_angle_beta     79.625
_cell_angle_gamma    63.053

_space_group_name_H-M_alt    "P 1"
_space_group_IT_number       1

loop_
  _space_group_symop_operation_xyz
  'x, y, z'

loop_
  _atom_site_type_symbol
  _atom_site_label
  _atom_site_symmetry_multiplicity
  _atom_site_fract_x
  _atom_site_fract_y
  _atom_site_fract_z
  _atom_site_occupancy
  Mo  Mo1       1.0  0.91827  0.47950  0.22247  1.0000
  Mo  Mo2       1.0  0.08173  0.52050  0.77753  1.0000
  Mo  Mo3       1.0  0.17148  0.36368  0.23246  1.0000
  Mo  Mo4       1.0  0.82852  0.63632  0.76754  1.0000
  Mo  Mo5       1.0  0.27195  0.51983  0.17575  1.0000
  Mo  Mo6       1.0  0.72805  0.48017  0.82425  1.0000
  Mo  Mo7       1.0  0.08422  0.74569  0.14008  1.0000
  Mo  Mo8       1.0  0.91578  0.25431  0.85992  1.0000
  Mo  Mo9       1.0  0.86470  0.70236  0.12691  1.0000
  Mo  Mo10      1.0  0.13530  0.29764  0.87309  1.0000
  Cu  Cu1       1.0  0.50000  0.50000  0.00000  1.0000
  Cu  Cu2       1.0  0.09578  0.51142  0.44393  1.0000
  Cu  Cu3       1.0  0.90422  0.48858  0.55607  1.0000
  P   P1        1.0  0.02713  0.60414  0.28386  1.0000
  P   P2        1.0  0.97287  0.39586  0.71614  1.0000
  P   P3        1.0  0.09373  0.52880  0.06635  1.0000
  P   P4        1.0  0.90627  0.47120  0.93365  1.0000
  Na  Na1       1.0  0.07357  0.31154  0.08030  1.0000
  Na  Na2       1.0  0.92643  0.68846  0.91970  1.0000
  O   O1        1.0  0.20862  0.65895  0.18257  1.0000
  O   O2        1.0  0.79138  0.34105  0.81743  1.0000
  O   O3        1.0  0.99348  0.59275  0.37475  1.0000
  O   O4        1.0  0.00652  0.40725  0.62525  1.0000
  O   O5        1.0  0.18542  0.26600  0.18584  1.0000
  O   O6        1.0  0.81458  0.73400  0.81416  1.0000
  O   O7        1.0  0.13238  0.76390  0.04094  1.0000
  O   O8        1.0  0.86762  0.23610  0.95906  1.0000
  O   O9        1.0  0.07341  0.45484  0.13005  1.0000
  O   O10       1.0  0.92659  0.54516  0.86995  1.0000
  O   O11       1.0  0.05670  0.85277  0.17807  1.0000
  O   O12       1.0  0.94330  0.14723  0.82193  1.0000
  O   O13       1.0  0.26771  0.40014  0.16409  1.0000
  O   O14       1.0  0.73229  0.59986  0.83591  1.0000
  O   O15       1.0  0.77280  0.77009  0.19928  1.0000
  O   O16       1.0  0.22720  0.22991  0.80072  1.0000
  O   O17       1.0  0.02891  0.70165  0.26104  1.0000
  O   O18       1.0  0.97109  0.29835  0.73896  1.0000
  O   O19       1.0  0.81023  0.75123  0.03896  1.0000
  O   O20       1.0  0.18977  0.24877  0.96104  1.0000
  O   O21       1.0  0.36280  0.51305  0.09451  1.0000
  O   O22       1.0  0.63720  0.48695  0.90549  1.0000
  O   O23       1.0  0.95729  0.75767  0.11916  1.0000
  O   O24       1.0  0.04271  0.24233  0.88084  1.0000
  O   O25       1.0  0.22943  0.31482  0.31753  1.0000
  O   O26       1.0  0.77057  0.68518  0.68247  1.0000
  O   O27       1.0  0.99613  0.60266  0.03588  1.0000
  O   O28       1.0  0.00387  0.39734  0.96412  1.0000
  O   O29       1.0  0.03303  0.41981  0.44468  1.0000
  O   O30       1.0  0.96697  0.58019  0.55532  1.0000
  H   H1        1.0  0.07286  0.36014  0.45335  1.0000
  H   H2        1.0  0.92714  0.63986  0.54665  1.0000
  H   H3        1.0  0.01080  0.42252  0.40049  1.0000
  H   H4        1.0  0.98920  0.57748  0.59951  1.0000
  O   O31       1.0  0.95110  0.60059  0.23359  1.0000
  O   O32       1.0  0.04890  0.39941  0.76641  1.0000
  O   O33       1.0  0.14328  0.58003  0.10263  1.0000
  O   O34       1.0  0.85672  0.41997  0.89737  1.0000
  O   O35       1.0  0.84848  0.58307  0.14307  1.0000
  O   O36       1.0  0.15152  0.41693  0.85693  1.0000
  O   O37       1.0  0.13452  0.52026  0.26340  1.0000
  O   O38       1.0  0.86548  0.47974  0.73660  1.0000
  O   O39       1.0  0.82695  0.49617  0.30369  1.0000
  O   O40       1.0  0.17305  0.50383  0.69631  1.0000
  O   O41       1.0  0.17458  0.47221  0.99540  1.0000
  O   O42       1.0  0.82542  0.52779  0.00460  1.0000
  H   H5        1.0  0.14553  0.46561  0.96108  1.0000
  H   H6        1.0  0.85447  0.53439  0.03892  1.0000
  O   O43       1.0  0.92461  0.38592  0.17561  1.0000
  O   O44       1.0  0.07539  0.61408  0.82439  1.0000
  O   O45       1.0  0.33639  0.48672  0.25832  1.0000
  O   O46       1.0  0.66361  0.51328  0.74168  1.0000
  O   O47       1.0  0.03230  0.40995  0.28394  1.0000
  O   O48       1.0  0.96770  0.59005  0.71606  1.0000
  O   O49       1.0  0.98720  0.21300  0.08720  1.0000
  O   O50       1.0  0.01280  0.78700  0.91280  1.0000
  H   H7        1.0  0.95627  0.22754  0.04560  1.0000
  H   H8        1.0  0.04373  0.77246  0.95440  1.0000
  H   H9        1.0  0.94040  0.22784  0.12749  1.0000
  H   H10       1.0  0.05960  0.77216  0.87251  1.0000
  N   N1        1.0  0.59560  0.43467  0.08575  1.0000
  N   N2        1.0  0.40440  0.56533  0.91425  1.0000
  N   N3        1.0  0.65260  0.36814  0.20086  1.0000
  N   N4        1.0  0.34740  0.63186  0.79914  1.0000
  N   N5        1.0  0.73660  0.34340  0.14400  1.0000
  N   N6        1.0  0.26340  0.65660  0.85600  1.0000
  N   N7        1.0  0.81990  0.86580  0.39691  1.0000
  N   N8        1.0  0.18010  0.13420  0.60309  1.0000
  N   N9        1.0  0.73320  0.88420  0.44930  1.0000
  N   N10       1.0  0.26680  0.11580  0.55070  1.0000
  N   N11       1.0  0.86740  0.76770  0.50410  1.0000
  N   N12       1.0  0.13260  0.23230  0.49590  1.0000
  N   N13       1.0  0.48660  0.62984  0.02241  1.0000
  N   N14       1.0  0.51340  0.37016  0.97759  1.0000
  N   N15       1.0  0.42730  0.78000  0.06160  1.0000
  N   N16       1.0  0.57270  0.22000  0.93840  1.0000
  N   N17       1.0  0.52820  0.74280  0.03750  1.0000
  N   N18       1.0  0.47180  0.25720  0.96250  1.0000
  N   N19       1.0  0.15140  0.60850  0.44256  1.0000
  N   N20       1.0  0.84860  0.39150  0.55744  1.0000
  N   N21       1.0  0.20090  0.70700  0.48720  1.0000
  N   N22       1.0  0.79910  0.29300  0.51280  1.0000
  N   N23       1.0  0.20170  0.72090  0.40540  1.0000
  N   N24       1.0  0.79830  0.27910  0.59460  1.0000
  N   N25       1.0  0.67280  0.69440  0.43502  1.0000
  N   N26       1.0  0.32720  0.30560  0.56498  1.0000
  N   N27       1.0  0.61980  0.68350  0.50790  1.0000
  N   N28       1.0  0.38020  0.31650  0.49210  1.0000
  N   N29       1.0  0.78530  0.58810  0.50796  1.0000
  N   N30       1.0  0.21470  0.41190  0.49204  1.0000
  C   C1        1.0  0.57050  0.42140  0.16560  1.0000
  C   C2        1.0  0.42950  0.57860  0.83440  1.0000
  H   H11       1.0  0.50463  0.44618  0.19252  1.0000
  H   H12       1.0  0.49537  0.55382  0.80748  1.0000
  C   C3        1.0  0.69850  0.38560  0.07620  1.0000
  C   C4        1.0  0.30150  0.61440  0.92380  1.0000
  H   H13       1.0  0.73824  0.38244  0.02590  1.0000
  H   H14       1.0  0.26176  0.61756  0.97410  1.0000
  C   C5        1.0  0.66270  0.33460  0.28710  1.0000
  C   C6        1.0  0.33730  0.66540  0.71290  1.0000
  H   H15       1.0  0.59706  0.36502  0.31970  1.0000
  H   H16       1.0  0.40294  0.63498  0.68030  1.0000
  H   H17       1.0  0.70844  0.35404  0.30547  1.0000
  H   H18       1.0  0.29156  0.64596  0.69453  1.0000
  C   C7        1.0  0.70300  0.22450  0.29990  1.0000
  C   C8        1.0  0.29700  0.77550  0.70010  1.0000
  C   C9        1.0  0.80440  0.16740  0.30990  1.0000
  C   C10       1.0  0.19560  0.83260  0.69010  1.0000
  C   C11       1.0  0.84090  0.06540  0.32000  1.0000
  C   C12       1.0  0.15910  0.93460  0.68000  1.0000
  C   C13       1.0  0.77680  0.02430  0.31440  1.0000
  C   C14       1.0  0.22320  0.97570  0.68560  1.0000
  C   C15       1.0  0.67500  0.08170  0.30540  1.0000
  C   C16       1.0  0.32500  0.91830  0.69460  1.0000
  C   C17       1.0  0.63720  0.18370  0.29930  1.0000
  C   C18       1.0  0.36280  0.81630  0.70070  1.0000
  C   C19       1.0  0.52550  0.24590  0.29200  1.0000
  C   C20       1.0  0.47450  0.75410  0.70800  1.0000
  H   H19       1.0  0.51366  0.24773  0.23697  1.0000
  H   H20       1.0  0.48634  0.75227  0.76303  1.0000
  H   H21       1.0  0.50627  0.31064  0.30576  1.0000
  H   H22       1.0  0.49373  0.68936  0.69424  1.0000
  H   H23       1.0  0.48595  0.21871  0.32872  1.0000
  H   H24       1.0  0.51405  0.78129  0.67128  1.0000
  C   C21       1.0  0.87660  0.21120  0.31000  1.0000
  C   C22       1.0  0.12340  0.78880  0.69000  1.0000
  H   H25       1.0  0.84996  0.27554  0.28370  1.0000
  H   H26       1.0  0.15004  0.72446  0.71630  1.0000
  H   H27       1.0  0.94130  0.17172  0.28099  1.0000
  H   H28       1.0  0.05870  0.82828  0.71901  1.0000
  H   H29       1.0  0.88445  0.21402  0.36526  1.0000
  H   H30       1.0  0.11555  0.78598  0.63474  1.0000
  C   C23       1.0  0.94870  0.00260  0.33740  1.0000
  C   C24       1.0  0.05130  0.99740  0.66260  1.0000
  H   H31       1.0  0.95141  0.94711  0.37297  1.0000
  H   H32       1.0  0.04859  0.05289  0.62703  1.0000
  H   H33       1.0  0.97112  0.03951  0.36333  1.0000
  H   H34       1.0  0.02888  0.96049  0.63667  1.0000
  H   H35       1.0  0.99192  0.98138  0.28712  1.0000
  H   H36       1.0  0.00808  0.01862  0.71288  1.0000
  C   C25       1.0  0.60440  0.03690  0.30280  1.0000
  C   C26       1.0  0.39560  0.96310  0.69720  1.0000
  H   H37       1.0  0.63797  0.96832  0.31687  1.0000
  H   H38       1.0  0.36203  0.03168  0.68313  1.0000
  H   H39       1.0  0.58579  0.04781  0.24880  1.0000
  H   H40       1.0  0.41421  0.95219  0.75120  1.0000
  H   H41       1.0  0.54464  0.06603  0.34115  1.0000
  H   H42       1.0  0.45536  0.93397  0.65885  1.0000
  C   C27       1.0  0.82000  0.91420  0.31460  1.0000
  C   C28       1.0  0.18000  0.08580  0.68540  1.0000
  H   H43       1.0  0.78048  0.89864  0.28386  1.0000
  H   H44       1.0  0.21952  0.10136  0.71614  1.0000
  H   H45       1.0  0.88897  0.88890  0.28707  1.0000
  H   H46       1.0  0.11103  0.11110  0.71293  1.0000
  C   C29       1.0  0.89760  0.79650  0.43060  1.0000
  C   C30       1.0  0.10240  0.20350  0.56940  1.0000
  H   H47       1.0  0.96443  0.77151  0.40580  1.0000
  H   H48       1.0  0.03557  0.22849  0.59420  1.0000
  C   C31       1.0  0.76660  0.82360  0.51220  1.0000
  C   C32       1.0  0.23340  0.17640  0.48780  1.0000
  H   H49       1.0  0.72385  0.81958  0.55910  1.0000
  H   H50       1.0  0.27615  0.18042  0.44090  1.0000
  C   C33       1.0  0.40610  0.70930  0.05120  1.0000
  C   C34       1.0  0.59390  0.29070  0.94880  1.0000
  H   H51       1.0  0.34095  0.71371  0.06275  1.0000
  H   H52       1.0  0.65905  0.28629  0.93725  1.0000
  C   C35       1.0  0.56210  0.65390  0.01420  1.0000
  C   C36       1.0  0.43790  0.34610  0.98580  1.0000
  H   H53       1.0  0.62916  0.61444  0.99491  1.0000
  H   H54       1.0  0.37084  0.38556  0.00509  1.0000
  C   C37       1.0  0.59000  0.79270  0.04330  1.0000
  C   C38       1.0  0.41000  0.20730  0.95670  1.0000
  H   H55       1.0  0.65339  0.76386  0.00764  1.0000
  H   H56       1.0  0.34661  0.23614  0.99236  1.0000
  H   H57       1.0  0.60585  0.78237  0.09885  1.0000
  H   H58       1.0  0.39415  0.21763  0.90115  1.0000
  C   C39       1.0  0.53890  0.90120  0.02070  1.0000
  C   C40       1.0  0.46110  0.09880  0.97930  1.0000
  C   C41       1.0  0.53440  0.93440  0.93910  1.0000
  C   C42       1.0  0.46560  0.06560  0.06090  1.0000
  C   C43       1.0  0.56910  0.86270  0.87450  1.0000
  C   C44       1.0  0.43090  0.13730  0.12550  1.0000
  H   H59       1.0  0.62295  0.80271  0.89174  1.0000
  H   H60       1.0  0.37705  0.19729  0.10826  1.0000
  H   H61       1.0  0.59305  0.88872  0.82404  1.0000
  H   H62       1.0  0.40695  0.11128  0.17596  1.0000
  H   H63       1.0  0.51340  0.85119  0.86655  1.0000
  H   H64       1.0  0.48660  0.14881  0.13345  1.0000
  C   C45       1.0  0.50440  0.96500  0.08310  1.0000
  C   C46       1.0  0.49560  0.03500  0.91690  1.0000
  C   C47       1.0  0.50700  0.92670  0.17130  1.0000
  C   C48       1.0  0.49300  0.07330  0.82870  1.0000
  H   H65       1.0  0.48650  0.87526  0.18005  1.0000
  H   H66       1.0  0.51350  0.12474  0.81995  1.0000
  H   H67       1.0  0.46164  0.97810  0.20553  1.0000
  H   H68       1.0  0.53836  0.02190  0.79447  1.0000
  H   H69       1.0  0.57468  0.90229  0.18458  1.0000
  H   H70       1.0  0.42532  0.09771  0.81542  1.0000
  C   C49       1.0  0.17340  0.66150  0.37990  1.0000
  C   C50       1.0  0.82660  0.33850  0.62010  1.0000
  H   H71       1.0  0.16934  0.65752  0.32572  1.0000
  H   H72       1.0  0.83066  0.34248  0.67428  1.0000
  C   C51       1.0  0.16980  0.63920  0.50640  1.0000
  C   C52       1.0  0.83020  0.36080  0.49360  1.0000
  H   H73       1.0  0.16118  0.61423  0.55983  1.0000
  H   H74       1.0  0.83882  0.38577  0.44017  1.0000
  C   C53       1.0  0.22420  0.79720  0.35640  1.0000
  C   C54       1.0  0.77580  0.20280  0.64360  1.0000
  H   H75       1.0  0.17372  0.85982  0.37457  1.0000
  H   H76       1.0  0.82628  0.14018  0.62543  1.0000
  H   H77       1.0  0.21824  0.79549  0.29977  1.0000
  H   H78       1.0  0.78176  0.20451  0.70023  1.0000
  C   C55       1.0  0.32800  0.78850  0.36110  1.0000
  C   C56       1.0  0.67200  0.21150  0.63890  1.0000
  C   C57       1.0  0.33800  0.84970  0.40960  1.0000
  C   C58       1.0  0.66200  0.15030  0.59040  1.0000
  C   C59       1.0  0.43390  0.84350  0.41210  1.0000
  C   C60       1.0  0.56610  0.15650  0.58790  1.0000
  C   C61       1.0  0.51900  0.77490  0.36660  1.0000
  C   C62       1.0  0.48100  0.22510  0.63340  1.0000
  C   C63       1.0  0.50920  0.71280  0.31950  1.0000
  C   C64       1.0  0.49080  0.28720  0.68050  1.0000
  C   C65       1.0  0.41260  0.71990  0.31670  1.0000
  C   C66       1.0  0.58740  0.28010  0.68330  1.0000
  C   C67       1.0  0.24670  0.92070  0.46040  1.0000
  C   C68       1.0  0.75330  0.07930  0.53960  1.0000
  H   H79       1.0  0.22291  0.98395  0.43205  1.0000
  H   H80       1.0  0.77709  0.01605  0.56795  1.0000
  H   H81       1.0  0.26510  0.92341  0.51192  1.0000
  H   H82       1.0  0.73490  0.07659  0.48808  1.0000
  H   H83       1.0  0.19388  0.89980  0.46966  1.0000
  H   H84       1.0  0.80612  0.10020  0.53034  1.0000
  C   C69       1.0  0.44610  0.90770  0.46480  1.0000
  C   C70       1.0  0.55390  0.09230  0.53520  1.0000
  H   H85       1.0  0.51539  0.89774  0.45631  1.0000
  H   H86       1.0  0.48461  0.10226  0.54369  1.0000
  H   H87       1.0  0.42786  0.89188  0.52124  1.0000
  H   H88       1.0  0.57214  0.10812  0.47876  1.0000
  H   H89       1.0  0.40290  0.97448  0.45051  1.0000
  H   H90       1.0  0.59710  0.02552  0.54949  1.0000
  C   C71       1.0  0.60190  0.63690  0.27430  1.0000
  C   C72       1.0  0.39810  0.36310  0.72570  1.0000
  H   H91       1.0  0.62292  0.57602  0.30654  1.0000
  H   H92       1.0  0.37708  0.42398  0.69346  1.0000
  H   H93       1.0  0.65555  0.65654  0.26459  1.0000
  H   H94       1.0  0.34445  0.34346  0.73541  1.0000
  H   H95       1.0  0.58618  0.62965  0.22307  1.0000
  H   H96       1.0  0.41382  0.37035  0.77693  1.0000
  C   C73       1.0  0.40240  0.65130  0.26820  1.0000
  C   C74       1.0  0.59760  0.34870  0.73180  1.0000
  H   H97       1.0  0.41930  0.58985  0.29915  1.0000
  H   H98       1.0  0.58070  0.41015  0.70085  1.0000
  H   H99       1.0  0.44745  0.64226  0.21793  1.0000
  H   H100      1.0  0.55255  0.35774  0.78207  1.0000
  H   H101      1.0  0.33383  0.67771  0.25657  1.0000
  H   H102      1.0  0.66617  0.32229  0.74343  1.0000
  C   C75       1.0  0.62290  0.76700  0.36990  1.0000
  C   C76       1.0  0.37710  0.23300  0.63010  1.0000
  H   H103      1.0  0.66435  0.74854  0.31765  1.0000
  H   H104      1.0  0.33565  0.25146  0.68235  1.0000
  H   H105      1.0  0.61679  0.82974  0.37986  1.0000
  H   H106      1.0  0.38321  0.17026  0.62014  1.0000
  C   C77       1.0  0.69030  0.61870  0.54920  1.0000
  C   C78       1.0  0.30970  0.38130  0.45080  1.0000
  H   H107      1.0  0.67685  0.59530  0.60225  1.0000
  H   H108      1.0  0.32315  0.40470  0.39775  1.0000
  C   C79       1.0  0.77050  0.63850  0.43670  1.0000
  C   C80       1.0  0.22950  0.36150  0.56330  1.0000
  H   H109      1.0  0.82132  0.63521  0.39404  1.0000
  H   H110      1.0  0.17868  0.36479  0.60596  1.0000
