data_image0
_chemical_formula_structural       Zn8O40N16H4N4H4N4H4C20H4C8H4C4H4C24H4C4H4C8H4C16H4C4H4C8H4C4H4C4
_chemical_formula_sum              "Zn8 O40 N24 H52 C104"
_cell_length_a       16.7533
_cell_length_b       17.1585
_cell_length_c       21.5052
_cell_angle_alpha    90
_cell_angle_beta     90
_cell_angle_gamma    90

_space_group_name_H-M_alt    "P 1"
_space_group_IT_number       1

loop_
  _space_group_symop_operation_xyz
  'x, y, z'

loop_
  _atom_site_type_symbol
  _atom_site_label
  _atom_site_symmetry_multiplicity
  _atom_site_fract_x
  _atom_site_fract_y
  _atom_site_fract_z
  _atom_site_occupancy
  Zn  Zn1       1.0  0.33739  0.07217  0.82089  1.0000
  Zn  Zn2       1.0  0.16261  0.92783  0.32089  1.0000
  Zn  Zn3       1.0  0.66261  0.57217  0.67911  1.0000
  Zn  Zn4       1.0  0.83739  0.42783  0.17911  1.0000
  Zn  Zn5       1.0  0.17874  0.19311  0.80152  1.0000
  Zn  Zn6       1.0  0.32126  0.80689  0.30152  1.0000
  Zn  Zn7       1.0  0.82126  0.69311  0.69848  1.0000
  Zn  Zn8       1.0  0.67874  0.30689  0.19848  1.0000
  O   O1        1.0  0.38670  0.15304  0.76838  1.0000
  O   O2        1.0  0.11330  0.84696  0.26838  1.0000
  O   O3        1.0  0.61330  0.65304  0.73162  1.0000
  O   O4        1.0  0.88670  0.34696  0.23162  1.0000
  O   O5        1.0  0.27477  0.22270  0.75986  1.0000
  O   O6        1.0  0.22523  0.77730  0.25986  1.0000
  O   O7        1.0  0.72523  0.72270  0.74014  1.0000
  O   O8        1.0  0.77477  0.27730  0.24014  1.0000
  O   O9        1.0  0.59512  0.48150  0.67707  1.0000
  O   O10       1.0  0.90488  0.51850  0.17707  1.0000
  O   O11       1.0  0.40488  0.98150  0.82293  1.0000
  O   O12       1.0  0.09512  0.01850  0.32293  1.0000
  O   O13       1.0  0.48843  0.54194  0.64291  1.0000
  O   O14       1.0  0.01157  0.45806  0.14291  1.0000
  O   O15       1.0  0.51157  0.04194  0.85709  1.0000
  O   O16       1.0  0.98843  0.95806  0.35709  1.0000
  O   O17       1.0  0.11455  0.28341  0.78799  1.0000
  O   O18       1.0  0.38545  0.71659  0.28799  1.0000
  O   O19       1.0  0.88545  0.78341  0.71201  1.0000
  O   O20       1.0  0.61455  0.21659  0.21201  1.0000
  O   O21       1.0  0.00607  0.21966  0.81957  1.0000
  O   O22       1.0  0.49393  0.78034  0.31957  1.0000
  O   O23       1.0  0.99393  0.71966  0.68043  1.0000
  O   O24       1.0  0.50607  0.28034  0.18043  1.0000
  O   O25       1.0  0.85980  0.59100  0.70190  1.0000
  O   O26       1.0  0.64020  0.40900  0.20190  1.0000
  O   O27       1.0  0.14020  0.09100  0.79810  1.0000
  O   O28       1.0  0.35980  0.90900  0.29810  1.0000
  O   O29       1.0  0.75504  0.51604  0.71369  1.0000
  O   O30       1.0  0.74496  0.48396  0.21369  1.0000
  O   O31       1.0  0.24496  0.01604  0.78631  1.0000
  O   O32       1.0  0.25504  0.98396  0.28631  1.0000
  O   O33       1.0  0.28742  0.79950  0.38805  1.0000
  O   O34       1.0  0.21258  0.20050  0.88805  1.0000
  O   O35       1.0  0.71258  0.29950  0.11195  1.0000
  O   O36       1.0  0.78742  0.70050  0.61195  1.0000
  O   O37       1.0  0.18189  0.87935  0.40135  1.0000
  O   O38       1.0  0.31811  0.12065  0.90135  1.0000
  O   O39       1.0  0.81811  0.37935  0.09865  1.0000
  O   O40       1.0  0.68189  0.62065  0.59865  1.0000
  N   N1        1.0  0.11713  0.54237  0.69023  1.0000
  N   N2        1.0  0.38287  0.45763  0.19023  1.0000
  N   N3        1.0  0.88287  0.04237  0.80977  1.0000
  N   N4        1.0  0.61713  0.95763  0.30977  1.0000
  N   N5        1.0  0.22178  0.45310  0.70800  1.0000
  N   N6        1.0  0.27822  0.54690  0.20800  1.0000
  N   N7        1.0  0.77822  0.95310  0.79200  1.0000
  N   N8        1.0  0.72178  0.04690  0.29200  1.0000
  N   N9        1.0  0.24715  0.56498  0.64812  1.0000
  N   N10       1.0  0.25285  0.43502  0.14812  1.0000
  N   N11       1.0  0.75285  0.06498  0.85188  1.0000
  N   N12       1.0  0.74715  0.93502  0.35188  1.0000
  N   N13       1.0  0.14052  0.65102  0.63375  1.0000
  N   N14       1.0  0.35948  0.34898  0.13375  1.0000
  N   N15       1.0  0.85948  0.15102  0.86625  1.0000
  N   N16       1.0  0.64052  0.84898  0.36625  1.0000
  H   H1        1.0  0.09920  0.66960  0.65230  1.0000
  H   H2        1.0  0.40080  0.33040  0.15230  1.0000
  H   H3        1.0  0.90080  0.16960  0.84770  1.0000
  H   H4        1.0  0.59920  0.83040  0.34770  1.0000
  N   N17       1.0  0.10067  0.42490  0.74579  1.0000
  N   N18       1.0  0.39933  0.57510  0.24579  1.0000
  N   N19       1.0  0.89933  0.92490  0.75421  1.0000
  N   N20       1.0  0.60067  0.07510  0.25421  1.0000
  H   H5        1.0  0.12770  0.39260  0.76790  1.0000
  H   H6        1.0  0.37230  0.60740  0.26790  1.0000
  H   H7        1.0  0.87230  0.89260  0.73210  1.0000
  H   H8        1.0  0.62770  0.10740  0.23210  1.0000
  N   N21       1.0  0.34777  0.48016  0.66804  1.0000
  N   N22       1.0  0.15223  0.51984  0.16804  1.0000
  N   N23       1.0  0.65223  0.98016  0.83196  1.0000
  N   N24       1.0  0.84777  0.01984  0.33196  1.0000
  H   H9        1.0  0.37560  0.51470  0.64890  1.0000
  H   H10       1.0  0.12440  0.48530  0.14890  1.0000
  H   H11       1.0  0.62440  0.01470  0.85110  1.0000
  H   H12       1.0  0.87560  0.98530  0.35110  1.0000
  C   C1        1.0  0.16950  0.58340  0.65753  1.0000
  C   C2        1.0  0.33050  0.41660  0.15753  1.0000
  C   C3        1.0  0.83050  0.08340  0.84247  1.0000
  C   C4        1.0  0.66950  0.91660  0.34247  1.0000
  C   C5        1.0  0.14590  0.47590  0.71250  1.0000
  C   C6        1.0  0.35410  0.52410  0.21250  1.0000
  C   C7        1.0  0.85410  0.97590  0.78750  1.0000
  C   C8        1.0  0.64590  0.02410  0.28750  1.0000
  C   C9        1.0  0.26880  0.49760  0.67540  1.0000
  C   C10       1.0  0.23120  0.50240  0.17540  1.0000
  C   C11       1.0  0.73120  0.99760  0.82460  1.0000
  C   C12       1.0  0.76880  0.00240  0.32460  1.0000
  C   C13       1.0  0.38970  0.41350  0.68750  1.0000
  C   C14       1.0  0.11030  0.58650  0.18750  1.0000
  C   C15       1.0  0.61030  0.91350  0.81250  1.0000
  C   C16       1.0  0.88970  0.08650  0.31250  1.0000
  C   C17       1.0  0.35190  0.34580  0.70857  1.0000
  C   C18       1.0  0.14810  0.65420  0.20857  1.0000
  C   C19       1.0  0.64810  0.84580  0.79143  1.0000
  C   C20       1.0  0.85190  0.15420  0.29143  1.0000
  H   H13       1.0  0.29650  0.34470  0.71090  1.0000
  H   H14       1.0  0.20350  0.65530  0.21090  1.0000
  H   H15       1.0  0.70350  0.84470  0.78910  1.0000
  H   H16       1.0  0.79650  0.15530  0.28910  1.0000
  C   C21       1.0  0.39450  0.28080  0.72590  1.0000
  C   C22       1.0  0.10550  0.71920  0.22590  1.0000
  C   C23       1.0  0.60550  0.78080  0.77410  1.0000
  C   C24       1.0  0.89450  0.21920  0.27410  1.0000
  C   C25       1.0  0.47700  0.27990  0.72260  1.0000
  C   C26       1.0  0.02300  0.72010  0.22260  1.0000
  C   C27       1.0  0.52300  0.77990  0.77740  1.0000
  C   C28       1.0  0.97700  0.22010  0.27740  1.0000
  H   H17       1.0  0.50600  0.23570  0.73320  1.0000
  H   H18       1.0  0.99400  0.76430  0.23320  1.0000
  H   H19       1.0  0.49400  0.73570  0.76680  1.0000
  H   H20       1.0  0.00600  0.26430  0.26680  1.0000
  C   C29       1.0  0.51540  0.34820  0.70250  1.0000
  C   C30       1.0  0.98460  0.65180  0.20250  1.0000
  C   C31       1.0  0.48460  0.84820  0.79750  1.0000
  C   C32       1.0  0.01540  0.15180  0.29750  1.0000
  H   H21       1.0  0.57080  0.34920  0.70150  1.0000
  H   H22       1.0  0.92920  0.65080  0.20150  1.0000
  H   H23       1.0  0.42920  0.84920  0.79850  1.0000
  H   H24       1.0  0.07080  0.15080  0.29850  1.0000
  C   C33       1.0  0.47470  0.41310  0.68444  1.0000
  C   C34       1.0  0.02530  0.58690  0.18444  1.0000
  C   C35       1.0  0.52530  0.91310  0.81556  1.0000
  C   C36       1.0  0.97470  0.08690  0.31556  1.0000
  C   C37       1.0  0.35130  0.21270  0.75300  1.0000
  C   C38       1.0  0.14870  0.78730  0.25300  1.0000
  C   C39       1.0  0.64870  0.71270  0.74700  1.0000
  C   C40       1.0  0.85130  0.28730  0.24700  1.0000
  C   C41       1.0  0.52170  0.48610  0.66557  1.0000
  C   C42       1.0  0.97830  0.51390  0.16557  1.0000
  C   C43       1.0  0.47830  0.98610  0.83443  1.0000
  C   C44       1.0  0.02170  0.01390  0.33443  1.0000
  C   C45       1.0  0.01770  0.41590  0.75050  1.0000
  C   C46       1.0  0.48230  0.58410  0.25050  1.0000
  C   C47       1.0  0.98230  0.91590  0.74950  1.0000
  C   C48       1.0  0.51770  0.08410  0.24950  1.0000
  C   C49       1.0  0.98620  0.34560  0.77432  1.0000
  C   C50       1.0  0.51380  0.65440  0.27432  1.0000
  C   C51       1.0  0.01380  0.84560  0.72568  1.0000
  C   C52       1.0  0.48620  0.15440  0.22568  1.0000
  C   C53       1.0  0.90380  0.33570  0.77700  1.0000
  C   C54       1.0  0.59620  0.66430  0.27700  1.0000
  C   C55       1.0  0.09620  0.83570  0.72300  1.0000
  C   C56       1.0  0.40380  0.16430  0.22300  1.0000
  H   H25       1.0  0.88360  0.28930  0.79290  1.0000
  H   H26       1.0  0.61640  0.71070  0.29290  1.0000
  H   H27       1.0  0.11640  0.78930  0.70710  1.0000
  H   H28       1.0  0.38360  0.21070  0.20710  1.0000
  C   C57       1.0  0.85140  0.39170  0.75707  1.0000
  C   C58       1.0  0.64860  0.60830  0.25707  1.0000
  C   C59       1.0  0.14860  0.89170  0.74293  1.0000
  C   C60       1.0  0.35140  0.10830  0.24293  1.0000
  H   H29       1.0  0.79670  0.38260  0.75670  1.0000
  H   H30       1.0  0.70330  0.61740  0.25670  1.0000
  H   H31       1.0  0.20330  0.88260  0.74330  1.0000
  H   H32       1.0  0.29670  0.11740  0.24330  1.0000
  C   C61       1.0  0.88350  0.46450  0.73680  1.0000
  C   C62       1.0  0.61650  0.53550  0.23680  1.0000
  C   C63       1.0  0.11650  0.96450  0.76320  1.0000
  C   C64       1.0  0.38350  0.03550  0.26320  1.0000
  C   C65       1.0  0.96490  0.47560  0.73390  1.0000
  C   C66       1.0  0.53510  0.52440  0.23390  1.0000
  C   C67       1.0  0.03510  0.97560  0.76610  1.0000
  C   C68       1.0  0.46490  0.02440  0.26610  1.0000
  H   H33       1.0  0.98500  0.52330  0.72060  1.0000
  H   H34       1.0  0.51500  0.47670  0.22060  1.0000
  H   H35       1.0  0.01500  0.02330  0.77940  1.0000
  H   H36       1.0  0.48500  0.97670  0.27940  1.0000
  C   C69       1.0  0.03650  0.27740  0.79560  1.0000
  C   C70       1.0  0.46350  0.72260  0.29560  1.0000
  C   C71       1.0  0.96350  0.77740  0.70440  1.0000
  C   C72       1.0  0.53650  0.22260  0.20440  1.0000
  C   C73       1.0  0.83000  0.52770  0.71659  1.0000
  C   C74       1.0  0.67000  0.47230  0.21659  1.0000
  C   C75       1.0  0.17000  0.02770  0.78341  1.0000
  C   C76       1.0  0.33000  0.97230  0.28341  1.0000
  C   C77       1.0  0.16880  0.69550  0.58250  1.0000
  C   C78       1.0  0.33120  0.30450  0.08250  1.0000
  C   C79       1.0  0.83120  0.19550  0.91750  1.0000
  C   C80       1.0  0.66880  0.80450  0.41750  1.0000
  C   C81       1.0  0.12370  0.75920  0.56410  1.0000
  C   C82       1.0  0.37630  0.24080  0.06410  1.0000
  C   C83       1.0  0.87630  0.25920  0.93590  1.0000
  C   C84       1.0  0.62370  0.74080  0.43590  1.0000
  H   H37       1.0  0.07990  0.77340  0.58810  1.0000
  H   H38       1.0  0.42010  0.22660  0.08810  1.0000
  H   H39       1.0  0.92010  0.27340  0.91190  1.0000
  H   H40       1.0  0.57990  0.72660  0.41190  1.0000
  C   C85       1.0  0.14100  0.80210  0.51218  1.0000
  C   C86       1.0  0.35900  0.19790  0.01218  1.0000
  C   C87       1.0  0.85900  0.30210  0.98782  1.0000
  C   C88       1.0  0.64100  0.69790  0.48782  1.0000
  H   H41       1.0  0.10760  0.84270  0.50000  1.0000
  H   H42       1.0  0.39240  0.15730  0.00000  1.0000
  H   H43       1.0  0.89240  0.34270  0.00000  1.0000
  H   H44       1.0  0.60760  0.65730  0.50000  1.0000
  C   C89       1.0  0.20880  0.78450  0.47777  1.0000
  C   C90       1.0  0.29120  0.21550  0.97777  1.0000
  C   C91       1.0  0.79120  0.28450  0.02223  1.0000
  C   C92       1.0  0.70880  0.71550  0.52223  1.0000
  C   C93       1.0  0.25700  0.72460  0.49840  1.0000
  C   C94       1.0  0.24300  0.27540  0.99840  1.0000
  C   C95       1.0  0.74300  0.22460  0.00160  1.0000
  C   C96       1.0  0.75700  0.77540  0.50160  1.0000
  H   H45       1.0  0.30400  0.71380  0.47710  1.0000
  H   H46       1.0  0.19600  0.28620  0.97710  1.0000
  H   H47       1.0  0.69600  0.21380  0.02290  1.0000
  H   H48       1.0  0.80400  0.78620  0.52290  1.0000
  C   C97       1.0  0.23720  0.68030  0.54990  1.0000
  C   C98       1.0  0.26280  0.31970  0.04990  1.0000
  C   C99       1.0  0.76280  0.18030  0.95010  1.0000
  C   C100      1.0  0.73720  0.81970  0.45010  1.0000
  H   H49       1.0  0.27070  0.64000  0.56240  1.0000
  H   H50       1.0  0.22930  0.36000  0.06240  1.0000
  H   H51       1.0  0.72930  0.14000  0.93760  1.0000
  H   H52       1.0  0.77070  0.86000  0.43760  1.0000
  C   C101      1.0  0.22730  0.82500  0.41900  1.0000
  C   C102      1.0  0.27270  0.17500  0.91900  1.0000
  C   C103      1.0  0.77270  0.32500  0.08100  1.0000
  C   C104      1.0  0.72730  0.67500  0.58100  1.0000
