data_image0
_chemical_formula_structural       Sr4Cu16O68H8O4H8O4H8O4H8N48C4H4N4H4N4H4N4H4C8H4C16H4N4H4C4H4C8H4C16H4C4H4C4H4C8H4C16H4C4H4C4H4C8H4C16H4C4H4C4H4
_chemical_formula_sum              "Sr4 Cu16 O80 H112 N64 C128"
_cell_length_a       11.5093
_cell_length_b       11.5093
_cell_length_c       41.8662
_cell_angle_alpha    90
_cell_angle_beta     90
_cell_angle_gamma    90

_space_group_name_H-M_alt    "P 1"
_space_group_IT_number       1

loop_
  _space_group_symop_operation_xyz
  'x, y, z'

loop_
  _atom_site_type_symbol
  _atom_site_label
  _atom_site_symmetry_multiplicity
  _atom_site_fract_x
  _atom_site_fract_y
  _atom_site_fract_z
  _atom_site_occupancy
  Sr  Sr1       1.0  0.71482  0.74946  0.84537  1.0000
  Sr  Sr2       1.0  0.25054  0.71482  0.59537  1.0000
  Sr  Sr3       1.0  0.28518  0.25054  0.34537  1.0000
  Sr  Sr4       1.0  0.74946  0.28518  0.09537  1.0000
  Cu  Cu1       1.0  0.12993  0.10288  0.88112  1.0000
  Cu  Cu2       1.0  0.89712  0.12993  0.63112  1.0000
  Cu  Cu3       1.0  0.87007  0.89712  0.38112  1.0000
  Cu  Cu4       1.0  0.10288  0.87007  0.13112  1.0000
  Cu  Cu5       1.0  0.37138  0.16593  0.80833  1.0000
  Cu  Cu6       1.0  0.83407  0.37138  0.55833  1.0000
  Cu  Cu7       1.0  0.62862  0.83407  0.30833  1.0000
  Cu  Cu8       1.0  0.16593  0.62862  0.05833  1.0000
  Cu  Cu9       1.0  0.29859  0.40453  0.88138  1.0000
  Cu  Cu10      1.0  0.59547  0.29859  0.63138  1.0000
  Cu  Cu11      1.0  0.70141  0.59547  0.38138  1.0000
  Cu  Cu12      1.0  0.40453  0.70141  0.13138  1.0000
  Cu  Cu13      1.0  0.06954  0.33321  0.80577  1.0000
  Cu  Cu14      1.0  0.66679  0.06954  0.55577  1.0000
  Cu  Cu15      1.0  0.93046  0.66679  0.30577  1.0000
  Cu  Cu16      1.0  0.33321  0.93046  0.05577  1.0000
  O   O1        1.0  0.96240  0.98570  0.87126  1.0000
  O   O2        1.0  0.01430  0.96240  0.62126  1.0000
  O   O3        1.0  0.03760  0.01430  0.37126  1.0000
  O   O4        1.0  0.98570  0.03760  0.12126  1.0000
  O   O5        1.0  0.90170  0.87000  0.83170  1.0000
  O   O6        1.0  0.13000  0.90170  0.58170  1.0000
  O   O7        1.0  0.09830  0.13000  0.33170  1.0000
  O   O8        1.0  0.87000  0.09830  0.08170  1.0000
  O   O9        1.0  0.34110  0.13120  0.76252  1.0000
  O   O10       1.0  0.86880  0.34110  0.51252  1.0000
  O   O11       1.0  0.65890  0.86880  0.26252  1.0000
  O   O12       1.0  0.13120  0.65890  0.01252  1.0000
  O   O13       1.0  0.21840  0.05030  0.72874  1.0000
  O   O14       1.0  0.94970  0.21840  0.47874  1.0000
  O   O15       1.0  0.78160  0.94970  0.22874  1.0000
  O   O16       1.0  0.05030  0.78160  0.97874  1.0000
  O   O17       1.0  0.49230  0.99980  0.81877  1.0000
  O   O18       1.0  0.00020  0.49230  0.56877  1.0000
  O   O19       1.0  0.50770  0.00020  0.31877  1.0000
  O   O20       1.0  0.99980  0.50770  0.06877  1.0000
  O   O21       1.0  0.60320  0.93760  0.85920  1.0000
  O   O22       1.0  0.06240  0.60320  0.60920  1.0000
  O   O23       1.0  0.39680  0.06240  0.35920  1.0000
  O   O24       1.0  0.93760  0.39680  0.10920  1.0000
  O   O25       1.0  0.32910  0.37690  0.92793  1.0000
  O   O26       1.0  0.62310  0.32910  0.67793  1.0000
  O   O27       1.0  0.67090  0.62310  0.42793  1.0000
  O   O28       1.0  0.37690  0.67090  0.17793  1.0000
  O   O29       1.0  0.41200  0.24870  0.96040  1.0000
  O   O30       1.0  0.75130  0.41200  0.71040  1.0000
  O   O31       1.0  0.58800  0.75130  0.46040  1.0000
  O   O32       1.0  0.24870  0.58800  0.21040  1.0000
  O   O33       1.0  0.46470  0.52560  0.87272  1.0000
  O   O34       1.0  0.47440  0.46470  0.62272  1.0000
  O   O35       1.0  0.53530  0.47440  0.37272  1.0000
  O   O36       1.0  0.52560  0.53530  0.12272  1.0000
  O   O37       1.0  0.52510  0.64360  0.83360  1.0000
  O   O38       1.0  0.35640  0.52510  0.58360  1.0000
  O   O39       1.0  0.47490  0.35640  0.33360  1.0000
  O   O40       1.0  0.64360  0.47490  0.08360  1.0000
  O   O41       1.0  0.10920  0.36100  0.75932  1.0000
  O   O42       1.0  0.63900  0.10920  0.50932  1.0000
  O   O43       1.0  0.89080  0.63900  0.25932  1.0000
  O   O44       1.0  0.36100  0.89080  0.00932  1.0000
  O   O45       1.0  0.23800  0.44210  0.72808  1.0000
  O   O46       1.0  0.55790  0.23800  0.47808  1.0000
  O   O47       1.0  0.76200  0.55790  0.22808  1.0000
  O   O48       1.0  0.44210  0.76200  0.97808  1.0000
  O   O49       1.0  0.09710  0.13950  0.92681  1.0000
  O   O50       1.0  0.86050  0.09710  0.67681  1.0000
  O   O51       1.0  0.90290  0.86050  0.42681  1.0000
  O   O52       1.0  0.13950  0.90290  0.17681  1.0000
  O   O53       1.0  0.01590  0.27430  0.95909  1.0000
  O   O54       1.0  0.72570  0.01590  0.70909  1.0000
  O   O55       1.0  0.98410  0.72570  0.45909  1.0000
  O   O56       1.0  0.27430  0.98410  0.20909  1.0000
  O   O57       1.0  0.95020  0.50190  0.81341  1.0000
  O   O58       1.0  0.49810  0.95020  0.56341  1.0000
  O   O59       1.0  0.04980  0.49810  0.31341  1.0000
  O   O60       1.0  0.50190  0.04980  0.06341  1.0000
  O   O61       1.0  0.83520  0.56930  0.85150  1.0000
  O   O62       1.0  0.43070  0.83520  0.60150  1.0000
  O   O63       1.0  0.16480  0.43070  0.35150  1.0000
  O   O64       1.0  0.56930  0.16480  0.10150  1.0000
  O   O65       1.0  0.82520  0.81460  0.89780  1.0000
  O   O66       1.0  0.18540  0.82520  0.64780  1.0000
  O   O67       1.0  0.17480  0.18540  0.39780  1.0000
  O   O68       1.0  0.81460  0.17480  0.14780  1.0000
  H   H1        1.0  0.89760  0.80200  0.89970  1.0000
  H   H2        1.0  0.19800  0.89760  0.64970  1.0000
  H   H3        1.0  0.10240  0.19800  0.39970  1.0000
  H   H4        1.0  0.80200  0.10240  0.14970  1.0000
  H   H5        1.0  0.78780  0.84740  0.91280  1.0000
  H   H6        1.0  0.15260  0.78780  0.66280  1.0000
  H   H7        1.0  0.21220  0.15260  0.41280  1.0000
  H   H8        1.0  0.84740  0.21220  0.16280  1.0000
  O   O69       1.0  0.62840  0.66940  0.89900  1.0000
  O   O70       1.0  0.33060  0.62840  0.64900  1.0000
  O   O71       1.0  0.37160  0.33060  0.39900  1.0000
  O   O72       1.0  0.66940  0.37160  0.14900  1.0000
  H   H9        1.0  0.60990  0.59810  0.90070  1.0000
  H   H10       1.0  0.40190  0.60990  0.65070  1.0000
  H   H11       1.0  0.39010  0.40190  0.40070  1.0000
  H   H12       1.0  0.59810  0.39010  0.15070  1.0000
  H   H13       1.0  0.61820  0.71520  0.91470  1.0000
  H   H14       1.0  0.28480  0.61820  0.66470  1.0000
  H   H15       1.0  0.38180  0.28480  0.41470  1.0000
  H   H16       1.0  0.71520  0.38180  0.16470  1.0000
  O   O73       1.0  0.76170  0.64630  0.78810  1.0000
  O   O74       1.0  0.35370  0.76170  0.53810  1.0000
  O   O75       1.0  0.23830  0.35370  0.28810  1.0000
  O   O76       1.0  0.64630  0.23830  0.03810  1.0000
  H   H17       1.0  0.83080  0.62470  0.78410  1.0000
  H   H18       1.0  0.37530  0.83080  0.53410  1.0000
  H   H19       1.0  0.16920  0.37530  0.28410  1.0000
  H   H20       1.0  0.62470  0.16920  0.03410  1.0000
  H   H21       1.0  0.70850  0.63520  0.77430  1.0000
  H   H22       1.0  0.36480  0.70850  0.52430  1.0000
  H   H23       1.0  0.29150  0.36480  0.27430  1.0000
  H   H24       1.0  0.63520  0.29150  0.02430  1.0000
  O   O77       1.0  0.64010  0.84180  0.79130  1.0000
  O   O78       1.0  0.15820  0.64010  0.54130  1.0000
  O   O79       1.0  0.35990  0.15820  0.29130  1.0000
  O   O80       1.0  0.84180  0.35990  0.04130  1.0000
  H   H25       1.0  0.65540  0.80990  0.77350  1.0000
  H   H26       1.0  0.19010  0.65540  0.52350  1.0000
  H   H27       1.0  0.34460  0.19010  0.27350  1.0000
  H   H28       1.0  0.80990  0.34460  0.02350  1.0000
  H   H29       1.0  0.59990  0.90370  0.79190  1.0000
  H   H30       1.0  0.09630  0.59990  0.54190  1.0000
  H   H31       1.0  0.40010  0.09630  0.29190  1.0000
  H   H32       1.0  0.90370  0.40010  0.04190  1.0000
  N   N1        1.0  0.14090  0.06360  0.83558  1.0000
  N   N2        1.0  0.93640  0.14090  0.58558  1.0000
  N   N3        1.0  0.85910  0.93640  0.33558  1.0000
  N   N4        1.0  0.06360  0.85910  0.08558  1.0000
  N   N5        1.0  0.21340  0.09660  0.81244  1.0000
  N   N6        1.0  0.90340  0.21340  0.56244  1.0000
  N   N7        1.0  0.78660  0.90340  0.31244  1.0000
  N   N8        1.0  0.09660  0.78660  0.06244  1.0000
  N   N9        1.0  0.22700  0.97210  0.89464  1.0000
  N   N10       1.0  0.02790  0.22700  0.64464  1.0000
  N   N11       1.0  0.77300  0.02790  0.39464  1.0000
  N   N12       1.0  0.97210  0.77300  0.14464  1.0000
  N   N13       1.0  0.40490  0.17490  0.85480  1.0000
  N   N14       1.0  0.82510  0.40490  0.60480  1.0000
  N   N15       1.0  0.59510  0.82510  0.35480  1.0000
  N   N16       1.0  0.17490  0.59510  0.10480  1.0000
  N   N17       1.0  0.36830  0.24900  0.87820  1.0000
  N   N18       1.0  0.75100  0.36830  0.62820  1.0000
  N   N19       1.0  0.63170  0.75100  0.37820  1.0000
  N   N20       1.0  0.24900  0.63170  0.12820  1.0000
  N   N21       1.0  0.50330  0.26450  0.79630  1.0000
  N   N22       1.0  0.73550  0.50330  0.54630  1.0000
  N   N23       1.0  0.49670  0.73550  0.29630  1.0000
  N   N24       1.0  0.26450  0.49670  0.04630  1.0000
  N   N25       1.0  0.29150  0.43970  0.83550  1.0000
  N   N26       1.0  0.56030  0.29150  0.58550  1.0000
  N   N27       1.0  0.70850  0.56030  0.33550  1.0000
  N   N28       1.0  0.43970  0.70850  0.08550  1.0000
  N   N29       1.0  0.22340  0.40030  0.81133  1.0000
  N   N30       1.0  0.59970  0.22340  0.56133  1.0000
  N   N31       1.0  0.77660  0.59970  0.31133  1.0000
  N   N32       1.0  0.40030  0.77660  0.06133  1.0000
  N   N33       1.0  0.19930  0.53870  0.89270  1.0000
  N   N34       1.0  0.46130  0.19930  0.64270  1.0000
  N   N35       1.0  0.80070  0.46130  0.39270  1.0000
  N   N36       1.0  0.53870  0.80070  0.14270  1.0000
  N   N37       1.0  0.06000  0.25910  0.87590  1.0000
  N   N38       1.0  0.74090  0.06000  0.62590  1.0000
  N   N39       1.0  0.94000  0.74090  0.37590  1.0000
  N   N40       1.0  0.25910  0.94000  0.12590  1.0000
  N   N41       1.0  0.02830  0.32940  0.85171  1.0000
  N   N42       1.0  0.67060  0.02830  0.60171  1.0000
  N   N43       1.0  0.97170  0.67060  0.35171  1.0000
  N   N44       1.0  0.32940  0.97170  0.10171  1.0000
  N   N45       1.0  0.93780  0.23780  0.79280  1.0000
  N   N46       1.0  0.76220  0.93780  0.54280  1.0000
  N   N47       1.0  0.06220  0.76220  0.29280  1.0000
  N   N48       1.0  0.23780  0.06220  0.04280  1.0000
  C   C1        1.0  0.35120  0.81960  0.89480  1.0000
  C   C2        1.0  0.18040  0.35120  0.64480  1.0000
  C   C3        1.0  0.64880  0.18040  0.39480  1.0000
  C   C4        1.0  0.81960  0.64880  0.14480  1.0000
  H   H33       1.0  0.40010  0.75950  0.88850  1.0000
  H   H34       1.0  0.24050  0.40010  0.63850  1.0000
  H   H35       1.0  0.59990  0.24050  0.38850  1.0000
  H   H36       1.0  0.75950  0.59990  0.13850  1.0000
  N   N49       1.0  0.62890  0.35890  0.76680  1.0000
  N   N50       1.0  0.64110  0.62890  0.51680  1.0000
  N   N51       1.0  0.37110  0.64110  0.26680  1.0000
  N   N52       1.0  0.35890  0.37110  0.01680  1.0000
  H   H37       1.0  0.66420  0.38640  0.75040  1.0000
  H   H38       1.0  0.61360  0.66420  0.50040  1.0000
  H   H39       1.0  0.33580  0.61360  0.25040  1.0000
  H   H40       1.0  0.38640  0.33580  0.00040  1.0000
  N   N53       1.0  0.08100  0.69090  0.89260  1.0000
  N   N54       1.0  0.30910  0.08100  0.64260  1.0000
  N   N55       1.0  0.91900  0.30910  0.39260  1.0000
  N   N56       1.0  0.69090  0.91900  0.14260  1.0000
  H   H41       1.0  0.03790  0.74810  0.88680  1.0000
  H   H42       1.0  0.25190  0.03790  0.63680  1.0000
  H   H43       1.0  0.96210  0.25190  0.38680  1.0000
  H   H44       1.0  0.74810  0.96210  0.13680  1.0000
  N   N57       1.0  0.81890  0.13660  0.76310  1.0000
  N   N58       1.0  0.86340  0.81890  0.51310  1.0000
  N   N59       1.0  0.18110  0.86340  0.26310  1.0000
  N   N60       1.0  0.13660  0.18110  0.01310  1.0000
  H   H45       1.0  0.78910  0.10740  0.74600  1.0000
  H   H46       1.0  0.89260  0.78910  0.49600  1.0000
  H   H47       1.0  0.21090  0.89260  0.24600  1.0000
  H   H48       1.0  0.10740  0.21090  0.99600  1.0000
  C   C5        1.0  0.05850  0.99500  0.82250  1.0000
  C   C6        1.0  0.00500  0.05850  0.57250  1.0000
  C   C7        1.0  0.94150  0.00500  0.32250  1.0000
  C   C8        1.0  0.99500  0.94150  0.07250  1.0000
  C   C9        1.0  0.07900  0.98370  0.79010  1.0000
  C   C10       1.0  0.01630  0.07900  0.54010  1.0000
  C   C11       1.0  0.92100  0.01630  0.29010  1.0000
  C   C12       1.0  0.98370  0.92100  0.04010  1.0000
  H   H49       1.0  0.03580  0.94120  0.77540  1.0000
  H   H50       1.0  0.05880  0.03580  0.52540  1.0000
  H   H51       1.0  0.96420  0.05880  0.27540  1.0000
  H   H52       1.0  0.94120  0.96420  0.02540  1.0000
  C   C13       1.0  0.17770  0.04920  0.78420  1.0000
  C   C14       1.0  0.95080  0.17770  0.53420  1.0000
  C   C15       1.0  0.82230  0.95080  0.28420  1.0000
  C   C16       1.0  0.04920  0.82230  0.03420  1.0000
  C   C17       1.0  0.96540  0.94570  0.84320  1.0000
  C   C18       1.0  0.05430  0.96540  0.59320  1.0000
  C   C19       1.0  0.03460  0.05430  0.34320  1.0000
  C   C20       1.0  0.94570  0.03460  0.09320  1.0000
  C   C21       1.0  0.24800  0.07740  0.75650  1.0000
  C   C22       1.0  0.92260  0.24800  0.50650  1.0000
  C   C23       1.0  0.75200  0.92260  0.25650  1.0000
  C   C24       1.0  0.07740  0.75200  0.00650  1.0000
  C   C25       1.0  0.28300  0.89100  0.87600  1.0000
  C   C26       1.0  0.10900  0.28300  0.62600  1.0000
  C   C27       1.0  0.71700  0.10900  0.37600  1.0000
  C   C28       1.0  0.89100  0.71700  0.12600  1.0000
  H   H53       1.0  0.27590  0.88500  0.85400  1.0000
  H   H54       1.0  0.11500  0.27590  0.60400  1.0000
  H   H55       1.0  0.72410  0.11500  0.35400  1.0000
  H   H56       1.0  0.88500  0.72410  0.10400  1.0000
  N   N61       1.0  0.32860  0.86000  0.92550  1.0000
  N   N62       1.0  0.14000  0.32860  0.67550  1.0000
  N   N63       1.0  0.67140  0.14000  0.42550  1.0000
  N   N64       1.0  0.86000  0.67140  0.17550  1.0000
  H   H57       1.0  0.35730  0.83090  0.94270  1.0000
  H   H58       1.0  0.16910  0.35730  0.69270  1.0000
  H   H59       1.0  0.64270  0.16910  0.44270  1.0000
  H   H60       1.0  0.83090  0.64270  0.19270  1.0000
  C   C29       1.0  0.25980  0.94560  0.92450  1.0000
  C   C30       1.0  0.05440  0.25980  0.67450  1.0000
  C   C31       1.0  0.74020  0.05440  0.42450  1.0000
  C   C32       1.0  0.94560  0.74020  0.17450  1.0000
  H   H61       1.0  0.23470  0.98570  0.94250  1.0000
  H   H62       1.0  0.01430  0.23470  0.69250  1.0000
  H   H63       1.0  0.76530  0.01430  0.44250  1.0000
  H   H64       1.0  0.98570  0.76530  0.19250  1.0000
  C   C33       1.0  0.47380  0.09320  0.86820  1.0000
  C   C34       1.0  0.90680  0.47380  0.61820  1.0000
  C   C35       1.0  0.52620  0.90680  0.36820  1.0000
  C   C36       1.0  0.09320  0.52620  0.11820  1.0000
  C   C37       1.0  0.47770  0.11280  0.90050  1.0000
  C   C38       1.0  0.88720  0.47770  0.65050  1.0000
  C   C39       1.0  0.52230  0.88720  0.40050  1.0000
  C   C40       1.0  0.11280  0.52230  0.15050  1.0000
  H   H65       1.0  0.51700  0.06930  0.91580  1.0000
  H   H66       1.0  0.93070  0.51700  0.66580  1.0000
  H   H67       1.0  0.48300  0.93070  0.41580  1.0000
  H   H68       1.0  0.06930  0.48300  0.16580  1.0000
  C   C41       1.0  0.41030  0.21140  0.90560  1.0000
  C   C42       1.0  0.78860  0.41030  0.65560  1.0000
  C   C43       1.0  0.58970  0.78860  0.40560  1.0000
  C   C44       1.0  0.21140  0.58970  0.15560  1.0000
  C   C45       1.0  0.52700  0.00450  0.84760  1.0000
  C   C46       1.0  0.99550  0.52700  0.59760  1.0000
  C   C47       1.0  0.47300  0.99550  0.34760  1.0000
  C   C48       1.0  0.00450  0.47300  0.09760  1.0000
  C   C49       1.0  0.38290  0.28320  0.93400  1.0000
  C   C50       1.0  0.71680  0.38290  0.68400  1.0000
  C   C51       1.0  0.61710  0.71680  0.43400  1.0000
  C   C52       1.0  0.28320  0.61710  0.18400  1.0000
  C   C53       1.0  0.53840  0.28780  0.76740  1.0000
  C   C54       1.0  0.71220  0.53840  0.51740  1.0000
  C   C55       1.0  0.46160  0.71220  0.26740  1.0000
  C   C56       1.0  0.28780  0.46160  0.01740  1.0000
  H   H69       1.0  0.50350  0.25780  0.74910  1.0000
  H   H70       1.0  0.74220  0.50350  0.49910  1.0000
  H   H71       1.0  0.49650  0.74220  0.24910  1.0000
  H   H72       1.0  0.25780  0.49650  0.99910  1.0000
  C   C57       1.0  0.65510  0.37820  0.79770  1.0000
  C   C58       1.0  0.62180  0.65510  0.54770  1.0000
  C   C59       1.0  0.34490  0.62180  0.29770  1.0000
  C   C60       1.0  0.37820  0.34490  0.04770  1.0000
  H   H73       1.0  0.71690  0.42260  0.80520  1.0000
  H   H74       1.0  0.57740  0.71690  0.55520  1.0000
  H   H75       1.0  0.28310  0.57740  0.30520  1.0000
  H   H76       1.0  0.42260  0.28310  0.05520  1.0000
  C   C61       1.0  0.57620  0.32210  0.81600  1.0000
  C   C62       1.0  0.67790  0.57620  0.56600  1.0000
  C   C63       1.0  0.42380  0.67790  0.31600  1.0000
  C   C64       1.0  0.32210  0.42380  0.06600  1.0000
  H   H77       1.0  0.57280  0.32310  0.83820  1.0000
  H   H78       1.0  0.67690  0.57280  0.58820  1.0000
  H   H79       1.0  0.42720  0.67690  0.33820  1.0000
  H   H80       1.0  0.32310  0.42720  0.08820  1.0000
  C   C65       1.0  0.37400  0.51210  0.82280  1.0000
  C   C66       1.0  0.48790  0.37400  0.57280  1.0000
  C   C67       1.0  0.62600  0.48790  0.32280  1.0000
  C   C68       1.0  0.51210  0.62600  0.07280  1.0000
  C   C69       1.0  0.36140  0.51930  0.79040  1.0000
  C   C70       1.0  0.48070  0.36140  0.54040  1.0000
  C   C71       1.0  0.63860  0.48070  0.29040  1.0000
  C   C72       1.0  0.51930  0.63860  0.04040  1.0000
  H   H81       1.0  0.40640  0.56140  0.77610  1.0000
  H   H82       1.0  0.43860  0.40640  0.52610  1.0000
  H   H83       1.0  0.59360  0.43860  0.27610  1.0000
  H   H84       1.0  0.56140  0.59360  0.02610  1.0000
  C   C73       1.0  0.26870  0.45130  0.78410  1.0000
  C   C74       1.0  0.54870  0.26870  0.53410  1.0000
  C   C75       1.0  0.73130  0.54870  0.28410  1.0000
  C   C76       1.0  0.45130  0.73130  0.03410  1.0000
  C   C77       1.0  0.46120  0.56280  0.84670  1.0000
  C   C78       1.0  0.43720  0.46120  0.59670  1.0000
  C   C79       1.0  0.53880  0.43720  0.34670  1.0000
  C   C80       1.0  0.56280  0.53880  0.09670  1.0000
  C   C81       1.0  0.20610  0.41850  0.75470  1.0000
  C   C82       1.0  0.58150  0.20610  0.50470  1.0000
  C   C83       1.0  0.79390  0.58150  0.25470  1.0000
  C   C84       1.0  0.41850  0.79390  0.00470  1.0000
  C   C85       1.0  0.14500  0.61650  0.87370  1.0000
  C   C86       1.0  0.38350  0.14500  0.62370  1.0000
  C   C87       1.0  0.85500  0.38350  0.37370  1.0000
  C   C88       1.0  0.61650  0.85500  0.12370  1.0000
  H   H85       1.0  0.15000  0.61940  0.85160  1.0000
  H   H86       1.0  0.38060  0.15000  0.60160  1.0000
  H   H87       1.0  0.85000  0.38060  0.35160  1.0000
  H   H88       1.0  0.61940  0.85000  0.10160  1.0000
  C   C89       1.0  0.10410  0.65930  0.92320  1.0000
  C   C90       1.0  0.34070  0.10410  0.67320  1.0000
  C   C91       1.0  0.89590  0.34070  0.42320  1.0000
  C   C92       1.0  0.65930  0.89590  0.17320  1.0000
  H   H89       1.0  0.07390  0.69490  0.94130  1.0000
  H   H90       1.0  0.30510  0.07390  0.69130  1.0000
  H   H91       1.0  0.92610  0.30510  0.44130  1.0000
  H   H92       1.0  0.69490  0.92610  0.19130  1.0000
  C   C93       1.0  0.17350  0.57350  0.92310  1.0000
  C   C94       1.0  0.42650  0.17350  0.67310  1.0000
  C   C95       1.0  0.82650  0.42650  0.42310  1.0000
  C   C96       1.0  0.57350  0.82650  0.17310  1.0000
  H   H93       1.0  0.20310  0.53880  0.94140  1.0000
  H   H94       1.0  0.46120  0.20310  0.69140  1.0000
  H   H95       1.0  0.79690  0.46120  0.44140  1.0000
  H   H96       1.0  0.53880  0.79690  0.19140  1.0000
  C   C97       1.0  0.01490  0.30490  0.90250  1.0000
  C   C98       1.0  0.69510  0.01490  0.65250  1.0000
  C   C99       1.0  0.98510  0.69510  0.40250  1.0000
  C   C100      1.0  0.30490  0.98510  0.15250  1.0000
  C   C101      1.0  0.94740  0.39690  0.89580  1.0000
  C   C102      1.0  0.60310  0.94740  0.64580  1.0000
  C   C103      1.0  0.05260  0.60310  0.39580  1.0000
  C   C104      1.0  0.39690  0.05260  0.14580  1.0000
  H   H97       1.0  0.90340  0.44080  0.91000  1.0000
  H   H98       1.0  0.55920  0.90340  0.66000  1.0000
  H   H99       1.0  0.09660  0.55920  0.41000  1.0000
  H   H100      1.0  0.44080  0.09660  0.16000  1.0000
  C   C105      1.0  0.95740  0.41200  0.86340  1.0000
  C   C106      1.0  0.58800  0.95740  0.61340  1.0000
  C   C107      1.0  0.04260  0.58800  0.36340  1.0000
  C   C108      1.0  0.41200  0.04260  0.11340  1.0000
  C   C109      1.0  0.04430  0.23360  0.93260  1.0000
  C   C110      1.0  0.76640  0.04430  0.68260  1.0000
  C   C111      1.0  0.95570  0.76640  0.43260  1.0000
  C   C112      1.0  0.23360  0.95570  0.18260  1.0000
  C   C113      1.0  0.91140  0.50030  0.84210  1.0000
  C   C114      1.0  0.49970  0.91140  0.59210  1.0000
  C   C115      1.0  0.08860  0.49970  0.34210  1.0000
  C   C116      1.0  0.50030  0.08860  0.09210  1.0000
  C   C117      1.0  0.91560  0.20410  0.76420  1.0000
  C   C118      1.0  0.79590  0.91560  0.51420  1.0000
  C   C119      1.0  0.08440  0.79590  0.26420  1.0000
  C   C120      1.0  0.20410  0.08440  0.01420  1.0000
  H   H101      1.0  0.96020  0.22360  0.74650  1.0000
  H   H102      1.0  0.77640  0.96020  0.49650  1.0000
  H   H103      1.0  0.03980  0.77640  0.24650  1.0000
  H   H104      1.0  0.22360  0.03980  0.99650  1.0000
  C   C121      1.0  0.78400  0.12120  0.79210  1.0000
  C   C122      1.0  0.87880  0.78400  0.54210  1.0000
  C   C123      1.0  0.21600  0.87880  0.29210  1.0000
  C   C124      1.0  0.12120  0.21600  0.04210  1.0000
  H   H105      1.0  0.72050  0.07700  0.79850  1.0000
  H   H106      1.0  0.92300  0.72050  0.54850  1.0000
  H   H107      1.0  0.27950  0.92300  0.29850  1.0000
  H   H108      1.0  0.07700  0.27950  0.04850  1.0000
  C   C125      1.0  0.85690  0.18130  0.81170  1.0000
  C   C126      1.0  0.81870  0.85690  0.56170  1.0000
  C   C127      1.0  0.14310  0.81870  0.31170  1.0000
  C   C128      1.0  0.18130  0.14310  0.06170  1.0000
  H   H109      1.0  0.85300  0.18400  0.83390  1.0000
  H   H110      1.0  0.81600  0.85300  0.58390  1.0000
  H   H111      1.0  0.14700  0.81600  0.33390  1.0000
  H   H112      1.0  0.18400  0.14700  0.08390  1.0000
