data_image0
_chemical_formula_structural       Bi4O32C16
_chemical_formula_sum              "Bi4 O32 C16"
_cell_length_a       10.2853
_cell_length_b       11.5971
_cell_length_c       11.6588
_cell_angle_alpha    90
_cell_angle_beta     90
_cell_angle_gamma    90

_space_group_name_H-M_alt    "P 1"
_space_group_IT_number       1

loop_
  _space_group_symop_operation_xyz
  'x, y, z'

loop_
  _atom_site_type_symbol
  _atom_site_label
  _atom_site_symmetry_multiplicity
  _atom_site_fract_x
  _atom_site_fract_y
  _atom_site_fract_z
  _atom_site_occupancy
  Bi  Bi1       1.0  0.37412  0.02716  0.23879  1.0000
  Bi  Bi2       1.0  0.12588  0.97284  0.73879  1.0000
  Bi  Bi3       1.0  0.62588  0.52716  0.26121  1.0000
  Bi  Bi4       1.0  0.87412  0.47284  0.76121  1.0000
  O   O1        1.0  0.33070  0.82830  0.26300  1.0000
  O   O2        1.0  0.16930  0.17170  0.76300  1.0000
  O   O3        1.0  0.66930  0.32830  0.23700  1.0000
  O   O4        1.0  0.83070  0.67170  0.73700  1.0000
  O   O5        1.0  0.42020  0.65270  0.26080  1.0000
  O   O6        1.0  0.07980  0.34730  0.76080  1.0000
  O   O7        1.0  0.57980  0.15270  0.23920  1.0000
  O   O8        1.0  0.92020  0.84730  0.73920  1.0000
  O   O9        1.0  0.56710  0.91890  0.22140  1.0000
  O   O10       1.0  0.93290  0.08110  0.72140  1.0000
  O   O11       1.0  0.43290  0.41890  0.27860  1.0000
  O   O12       1.0  0.06710  0.58110  0.77860  1.0000
  O   O13       1.0  0.65160  0.74200  0.19190  1.0000
  O   O14       1.0  0.84840  0.25800  0.69190  1.0000
  O   O15       1.0  0.34840  0.24200  0.30810  1.0000
  O   O16       1.0  0.15160  0.75800  0.80810  1.0000
  O   O17       1.0  0.18410  0.03000  0.35260  1.0000
  O   O18       1.0  0.31590  0.97000  0.85260  1.0000
  O   O19       1.0  0.81590  0.53000  0.14740  1.0000
  O   O20       1.0  0.68410  0.47000  0.64740  1.0000
  O   O21       1.0  0.10990  0.04890  0.53140  1.0000
  O   O22       1.0  0.39010  0.95110  0.03140  1.0000
  O   O23       1.0  0.89010  0.54890  0.96860  1.0000
  O   O24       1.0  0.60990  0.45110  0.46860  1.0000
  O   O25       1.0  0.42410  0.00140  0.42870  1.0000
  O   O26       1.0  0.07590  0.99860  0.92870  1.0000
  O   O27       1.0  0.57590  0.50140  0.07130  1.0000
  O   O28       1.0  0.92410  0.49860  0.57130  1.0000
  O   O29       1.0  0.34510  0.97570  0.60660  1.0000
  O   O30       1.0  0.15490  0.02430  0.10660  1.0000
  O   O31       1.0  0.65490  0.47570  0.89340  1.0000
  O   O32       1.0  0.84510  0.52430  0.39340  1.0000
  C   C1        1.0  0.42840  0.75920  0.25100  1.0000
  C   C2        1.0  0.07160  0.24080  0.75100  1.0000
  C   C3        1.0  0.57160  0.25920  0.24900  1.0000
  C   C4        1.0  0.92840  0.74080  0.74900  1.0000
  C   C5        1.0  0.56370  0.81150  0.21640  1.0000
  C   C6        1.0  0.93630  0.18850  0.71640  1.0000
  C   C7        1.0  0.43630  0.31150  0.28360  1.0000
  C   C8        1.0  0.06370  0.68850  0.78360  1.0000
  C   C9        1.0  0.19600  0.02760  0.45910  1.0000
  C   C10       1.0  0.30400  0.97240  0.95910  1.0000
  C   C11       1.0  0.80400  0.52760  0.04090  1.0000
  C   C12       1.0  0.69600  0.47240  0.54090  1.0000
  C   C13       1.0  0.33390  0.99950  0.50510  1.0000
  C   C14       1.0  0.16610  0.00050  0.00510  1.0000
  C   C15       1.0  0.66610  0.49950  0.99490  1.0000
  C   C16       1.0  0.83390  0.50050  0.49490  1.0000
