data_image0
_chemical_formula_structural       Eu8O72H8C36H8C4H4C4H8C4H8C4H8N4H12
_chemical_formula_sum              "Eu8 O72 H56 C52 N4"
_cell_length_a       9.88728
_cell_length_b       14.7768
_cell_length_c       19.2254
_cell_angle_alpha    90
_cell_angle_beta     97.9768
_cell_angle_gamma    90

_space_group_name_H-M_alt    "P 1"
_space_group_IT_number       1

loop_
  _space_group_symop_operation_xyz
  'x, y, z'

loop_
  _atom_site_type_symbol
  _atom_site_label
  _atom_site_symmetry_multiplicity
  _atom_site_fract_x
  _atom_site_fract_y
  _atom_site_fract_z
  _atom_site_occupancy
  Eu  Eu1       1.0  0.40568  0.07387  0.63765  1.0000
  Eu  Eu2       1.0  0.09432  0.57387  0.86235  1.0000
  Eu  Eu3       1.0  0.59432  0.92613  0.36235  1.0000
  Eu  Eu4       1.0  0.90568  0.42613  0.13765  1.0000
  Eu  Eu5       1.0  0.54303  0.48478  0.66615  1.0000
  Eu  Eu6       1.0  0.95697  0.98478  0.83385  1.0000
  Eu  Eu7       1.0  0.45697  0.51522  0.33385  1.0000
  Eu  Eu8       1.0  0.04303  0.01522  0.16615  1.0000
  O   O1        1.0  0.47410  0.11130  0.52500  1.0000
  O   O2        1.0  0.02590  0.61130  0.97500  1.0000
  O   O3        1.0  0.52590  0.88870  0.47500  1.0000
  O   O4        1.0  0.97410  0.38870  0.02500  1.0000
  O   O5        1.0  0.56920  0.05900  0.43440  1.0000
  O   O6        1.0  0.93080  0.55900  0.06560  1.0000
  O   O7        1.0  0.43080  0.94100  0.56560  1.0000
  O   O8        1.0  0.06920  0.44100  0.93440  1.0000
  O   O9        1.0  0.54900  0.19080  0.69880  1.0000
  O   O10       1.0  0.95100  0.69080  0.80120  1.0000
  O   O11       1.0  0.45100  0.80920  0.30120  1.0000
  O   O12       1.0  0.04900  0.30920  0.19880  1.0000
  O   O13       1.0  0.61310  0.33580  0.69820  1.0000
  O   O14       1.0  0.88690  0.83580  0.80180  1.0000
  O   O15       1.0  0.38690  0.66420  0.30180  1.0000
  O   O16       1.0  0.11310  0.16420  0.19820  1.0000
  O   O17       1.0  0.33200  0.22780  0.60450  1.0000
  O   O18       1.0  0.16800  0.72780  0.89550  1.0000
  O   O19       1.0  0.66800  0.77220  0.39550  1.0000
  O   O20       1.0  0.83200  0.27220  0.10450  1.0000
  O   O21       1.0  0.39060  0.37350  0.60710  1.0000
  O   O22       1.0  0.10940  0.87350  0.89290  1.0000
  O   O23       1.0  0.60940  0.62650  0.39290  1.0000
  O   O24       1.0  0.89060  0.12650  0.10710  1.0000
  O   O25       1.0  0.63280  0.45130  0.55670  1.0000
  O   O26       1.0  0.86720  0.95130  0.94330  1.0000
  O   O27       1.0  0.36720  0.54870  0.44330  1.0000
  O   O28       1.0  0.13280  0.04870  0.05670  1.0000
  O   O29       1.0  0.58870  0.44560  0.43930  1.0000
  O   O30       1.0  0.91130  0.94560  0.06070  1.0000
  O   O31       1.0  0.41130  0.55440  0.56070  1.0000
  O   O32       1.0  0.08870  0.05440  0.93930  1.0000
  O   O33       1.0  0.79260  0.48290  0.68040  1.0000
  O   O34       1.0  0.70740  0.98290  0.81960  1.0000
  O   O35       1.0  0.20740  0.51710  0.31960  1.0000
  O   O36       1.0  0.29260  0.01710  0.18040  1.0000
  O   O37       1.0  0.98770  0.50570  0.75200  1.0000
  O   O38       1.0  0.51230  0.00570  0.74800  1.0000
  O   O39       1.0  0.01230  0.49430  0.24800  1.0000
  O   O40       1.0  0.48770  0.99430  0.25200  1.0000
  O   O41       1.0  0.64950  0.52800  0.78270  1.0000
  O   O42       1.0  0.85050  0.02800  0.71730  1.0000
  O   O43       1.0  0.35050  0.47200  0.21730  1.0000
  O   O44       1.0  0.14950  0.97200  0.28270  1.0000
  O   O45       1.0  0.84340  0.53800  0.85800  1.0000
  O   O46       1.0  0.65660  0.03800  0.64200  1.0000
  O   O47       1.0  0.15660  0.46200  0.14200  1.0000
  O   O48       1.0  0.34340  0.96200  0.35800  1.0000
  O   O49       1.0  0.37340  0.58510  0.69900  1.0000
  O   O50       1.0  0.12660  0.08510  0.80100  1.0000
  O   O51       1.0  0.62660  0.41490  0.30100  1.0000
  O   O52       1.0  0.87340  0.91490  0.19900  1.0000
  O   O53       1.0  0.23380  0.62430  0.77540  1.0000
  O   O54       1.0  0.26620  0.12430  0.72460  1.0000
  O   O55       1.0  0.76620  0.37570  0.22460  1.0000
  O   O56       1.0  0.73380  0.87570  0.27540  1.0000
  O   O57       1.0  0.39590  0.41940  0.75380  1.0000
  O   O58       1.0  0.10410  0.91940  0.74620  1.0000
  O   O59       1.0  0.60410  0.58060  0.24620  1.0000
  O   O60       1.0  0.89590  0.08060  0.25380  1.0000
  O   O61       1.0  0.24050  0.45460  0.82440  1.0000
  O   O62       1.0  0.25950  0.95460  0.67560  1.0000
  O   O63       1.0  0.75950  0.54540  0.17560  1.0000
  O   O64       1.0  0.74050  0.04540  0.32440  1.0000
  O   O65       1.0  0.63560  0.65080  0.63850  1.0000
  O   O66       1.0  0.86440  0.15080  0.86150  1.0000
  O   O67       1.0  0.36440  0.34920  0.36150  1.0000
  O   O68       1.0  0.13560  0.84920  0.13850  1.0000
  O   O69       1.0  0.18180  0.07530  0.55830  1.0000
  O   O70       1.0  0.31820  0.57530  0.94170  1.0000
  O   O71       1.0  0.81820  0.92470  0.44170  1.0000
  O   O72       1.0  0.68180  0.42470  0.05830  1.0000
  H   H1        1.0  0.12040  0.03910  0.57450  1.0000
  H   H2        1.0  0.37960  0.53910  0.92550  1.0000
  H   H3        1.0  0.87960  0.96090  0.42550  1.0000
  H   H4        1.0  0.62040  0.46090  0.07450  1.0000
  H   H5        1.0  0.19090  0.05630  0.51490  1.0000
  H   H6        1.0  0.30910  0.55630  0.98510  1.0000
  H   H7        1.0  0.80910  0.94370  0.48510  1.0000
  H   H8        1.0  0.69090  0.44370  0.01490  1.0000
  C   C1        1.0  0.51180  0.04960  0.48790  1.0000
  C   C2        1.0  0.98820  0.54960  0.01210  1.0000
  C   C3        1.0  0.48820  0.95040  0.51210  1.0000
  C   C4        1.0  0.01180  0.45040  0.98790  1.0000
  C   C5        1.0  0.53380  0.27100  0.67880  1.0000
  C   C6        1.0  0.96620  0.77100  0.82120  1.0000
  C   C7        1.0  0.46620  0.72900  0.32120  1.0000
  C   C8        1.0  0.03380  0.22900  0.17880  1.0000
  C   C9        1.0  0.40640  0.29300  0.62490  1.0000
  C   C10       1.0  0.09360  0.79300  0.87510  1.0000
  C   C11       1.0  0.59360  0.70700  0.37510  1.0000
  C   C12       1.0  0.90640  0.20700  0.12490  1.0000
  C   C13       1.0  0.56400  0.47000  0.49870  1.0000
  C   C14       1.0  0.93600  0.97000  0.00130  1.0000
  C   C15       1.0  0.43600  0.53000  0.50130  1.0000
  C   C16       1.0  0.06400  0.03000  0.99870  1.0000
  C   C17       1.0  0.85960  0.50360  0.73840  1.0000
  C   C18       1.0  0.64040  0.00360  0.76160  1.0000
  C   C19       1.0  0.14040  0.49640  0.26160  1.0000
  C   C20       1.0  0.35960  0.99640  0.23840  1.0000
  C   C21       1.0  0.77620  0.52670  0.79890  1.0000
  C   C22       1.0  0.72380  0.02670  0.70110  1.0000
  C   C23       1.0  0.22380  0.47330  0.20110  1.0000
  C   C24       1.0  0.27620  0.97330  0.29890  1.0000
  C   C25       1.0  0.30620  0.56950  0.74830  1.0000
  C   C26       1.0  0.19380  0.06950  0.75170  1.0000
  C   C27       1.0  0.69380  0.43050  0.25170  1.0000
  C   C28       1.0  0.80620  0.93050  0.24830  1.0000
  C   C29       1.0  0.31450  0.47150  0.77820  1.0000
  C   C30       1.0  0.18550  0.97150  0.72180  1.0000
  C   C31       1.0  0.68550  0.52850  0.22180  1.0000
  C   C32       1.0  0.81450  0.02850  0.27820  1.0000
  C   C33       1.0  0.51540  0.76780  0.69260  1.0000
  C   C34       1.0  0.98460  0.26780  0.80740  1.0000
  C   C35       1.0  0.48460  0.23220  0.30740  1.0000
  C   C36       1.0  0.01540  0.73220  0.19260  1.0000
  H   H9        1.0  0.48190  0.72930  0.72730  1.0000
  H   H10       1.0  0.01810  0.22930  0.77270  1.0000
  H   H11       1.0  0.51810  0.27070  0.27270  1.0000
  H   H12       1.0  0.98190  0.77070  0.22730  1.0000
  H   H13       1.0  0.52430  0.82880  0.71140  1.0000
  H   H14       1.0  0.97570  0.32880  0.78860  1.0000
  H   H15       1.0  0.47570  0.17120  0.28860  1.0000
  H   H16       1.0  0.02430  0.67120  0.21140  1.0000
  C   C37       1.0  0.65430  0.73420  0.67890  1.0000
  C   C38       1.0  0.84570  0.23420  0.82110  1.0000
  C   C39       1.0  0.34570  0.26580  0.32110  1.0000
  C   C40       1.0  0.15430  0.76580  0.17890  1.0000
  H   H17       1.0  0.71010  0.72130  0.72400  1.0000
  H   H18       1.0  0.78990  0.22130  0.77600  1.0000
  H   H19       1.0  0.28990  0.27870  0.27600  1.0000
  H   H20       1.0  0.21010  0.77870  0.22400  1.0000
  C   C41       1.0  0.73280  0.79750  0.63740  1.0000
  C   C42       1.0  0.76720  0.29750  0.86260  1.0000
  C   C43       1.0  0.26720  0.20250  0.36260  1.0000
  C   C44       1.0  0.23280  0.70250  0.13740  1.0000
  H   H21       1.0  0.67130  0.83540  0.60630  1.0000
  H   H22       1.0  0.82870  0.33540  0.89370  1.0000
  H   H23       1.0  0.32870  0.16460  0.39370  1.0000
  H   H24       1.0  0.17130  0.66460  0.10630  1.0000
  H   H25       1.0  0.79400  0.83580  0.66840  1.0000
  H   H26       1.0  0.70600  0.33580  0.83160  1.0000
  H   H27       1.0  0.20600  0.16420  0.33160  1.0000
  H   H28       1.0  0.29400  0.66420  0.16840  1.0000
  C   C45       1.0  0.81110  0.73470  0.59660  1.0000
  C   C46       1.0  0.68890  0.23470  0.90340  1.0000
  C   C47       1.0  0.18890  0.26530  0.40340  1.0000
  C   C48       1.0  0.31110  0.76530  0.09660  1.0000
  H   H29       1.0  0.83140  0.76290  0.55370  1.0000
  H   H30       1.0  0.66860  0.26290  0.94630  1.0000
  H   H31       1.0  0.16860  0.23710  0.44630  1.0000
  H   H32       1.0  0.33140  0.73710  0.05370  1.0000
  H   H33       1.0  0.89580  0.71560  0.62440  1.0000
  H   H34       1.0  0.60420  0.21560  0.87560  1.0000
  H   H35       1.0  0.10420  0.28440  0.37560  1.0000
  H   H36       1.0  0.39580  0.78440  0.12440  1.0000
  C   C49       1.0  0.71520  0.65660  0.58110  1.0000
  C   C50       1.0  0.78480  0.15660  0.91890  1.0000
  C   C51       1.0  0.28480  0.34340  0.41890  1.0000
  C   C52       1.0  0.21520  0.84340  0.08110  1.0000
  H   H37       1.0  0.65600  0.66630  0.53710  1.0000
  H   H38       1.0  0.84400  0.16630  0.96290  1.0000
  H   H39       1.0  0.34400  0.33370  0.46290  1.0000
  H   H40       1.0  0.15600  0.83370  0.03710  1.0000
  H   H41       1.0  0.76580  0.60100  0.57750  1.0000
  H   H42       1.0  0.73420  0.10100  0.92250  1.0000
  H   H43       1.0  0.23420  0.39900  0.42250  1.0000
  H   H44       1.0  0.26580  0.89900  0.07750  1.0000
  N   N1        1.0  0.41630  0.76780  0.62770  1.0000
  N   N2        1.0  0.08370  0.26780  0.87230  1.0000
  N   N3        1.0  0.58370  0.23220  0.37230  1.0000
  N   N4        1.0  0.91630  0.73220  0.12770  1.0000
  H   H45       1.0  0.43150  0.81540  0.60150  1.0000
  H   H46       1.0  0.06850  0.31540  0.89850  1.0000
  H   H47       1.0  0.56850  0.18460  0.39850  1.0000
  H   H48       1.0  0.93150  0.68460  0.10150  1.0000
  H   H49       1.0  0.33190  0.77070  0.63870  1.0000
  H   H50       1.0  0.16810  0.27070  0.86130  1.0000
  H   H51       1.0  0.66810  0.22930  0.36130  1.0000
  H   H52       1.0  0.83190  0.72930  0.13870  1.0000
  H   H53       1.0  0.42580  0.71720  0.60370  1.0000
  H   H54       1.0  0.07420  0.21720  0.89630  1.0000
  H   H55       1.0  0.57420  0.28280  0.39630  1.0000
  H   H56       1.0  0.92580  0.78280  0.10370  1.0000
