data_image0
_chemical_formula_structural       Zn2O12H4O4C8H2O2H4O2H4C2O2C8H2C2
_chemical_formula_sum              "Zn2 O22 H16 C20"
_cell_length_a       11.4884
_cell_length_b       11.6205
_cell_length_c       16.3405
_cell_angle_alpha    100.896
_cell_angle_beta     94.996
_cell_angle_gamma    106.96

_space_group_name_H-M_alt    "P 1"
_space_group_IT_number       1

loop_
  _space_group_symop_operation_xyz
  'x, y, z'

loop_
  _atom_site_type_symbol
  _atom_site_label
  _atom_site_symmetry_multiplicity
  _atom_site_fract_x
  _atom_site_fract_y
  _atom_site_fract_z
  _atom_site_occupancy
  Zn  Zn1       1.0  0.33842  0.02852  0.28986  1.0000
  Zn  Zn2       1.0  0.66158  0.97148  0.71014  1.0000
  O   O1        1.0  0.19520  0.99998  0.19240  1.0000
  O   O2        1.0  0.80480  0.00002  0.80760  1.0000
  O   O3        1.0  0.78347  0.05708  0.63947  1.0000
  O   O4        1.0  0.21653  0.94292  0.36053  1.0000
  O   O5        1.0  0.24025  0.85967  0.98953  1.0000
  O   O6        1.0  0.75975  0.14033  0.01047  1.0000
  O   O7        1.0  0.66917  0.95876  0.45897  1.0000
  O   O8        1.0  0.33083  0.04124  0.54103  1.0000
  O   O9        1.0  0.27091  0.97959  0.89746  1.0000
  O   O10       1.0  0.72909  0.02041  0.10254  1.0000
  O   O11       1.0  0.45413  0.17259  0.25641  1.0000
  O   O12       1.0  0.54587  0.82741  0.74359  1.0000
  H   H1        1.0  0.44800  0.24410  0.28290  1.0000
  H   H2        1.0  0.55200  0.75590  0.71710  1.0000
  H   H3        1.0  0.43410  0.17250  0.20300  1.0000
  H   H4        1.0  0.56590  0.82750  0.79700  1.0000
  O   O13       1.0  0.30987  0.10718  0.11254  1.0000
  O   O14       1.0  0.69013  0.89282  0.88746  1.0000
  O   O15       1.0  0.77154  0.86289  0.62919  1.0000
  O   O16       1.0  0.22846  0.13711  0.37081  1.0000
  C   C1        1.0  0.09848  0.01493  0.06153  1.0000
  C   C2        1.0  0.90152  0.98507  0.93847  1.0000
  C   C3        1.0  0.81500  0.96379  0.60996  1.0000
  C   C4        1.0  0.18500  0.03621  0.39004  1.0000
  C   C5        1.0  0.10552  0.97473  0.97643  1.0000
  C   C6        1.0  0.89448  0.02527  0.02357  1.0000
  C   C7        1.0  0.97980  0.04050  0.42700  1.0000
  C   C8        1.0  0.02020  0.95950  0.57300  1.0000
  H   H5        1.0  0.96670  0.06760  0.37800  1.0000
  H   H6        1.0  0.03330  0.93240  0.62200  1.0000
  O   O17       1.0  0.39212  0.88487  0.23193  1.0000
  O   O18       1.0  0.60788  0.11513  0.76807  1.0000
  H   H7        1.0  0.46030  0.88420  0.25940  1.0000
  H   H8        1.0  0.53970  0.11580  0.74060  1.0000
  H   H9        1.0  0.41220  0.89520  0.18300  1.0000
  H   H10       1.0  0.58780  0.10480  0.81700  1.0000
  O   O19       1.0  0.47286  0.06643  0.40654  1.0000
  O   O20       1.0  0.52714  0.93357  0.59346  1.0000
  H   H11       1.0  0.52000  0.01660  0.40160  1.0000
  H   H12       1.0  0.48000  0.98340  0.59840  1.0000
  H   H13       1.0  0.43510  0.04770  0.45040  1.0000
  H   H14       1.0  0.56490  0.95230  0.54960  1.0000
  C   C9        1.0  0.90923  0.97991  0.55149  1.0000
  C   C10       1.0  0.09077  0.02009  0.44851  1.0000
  O   O21       1.0  0.76789  0.12760  0.41865  1.0000
  O   O22       1.0  0.23211  0.87240  0.58135  1.0000
  C   C11       1.0  0.21004  0.04234  0.12703  1.0000
  C   C12       1.0  0.78996  0.95766  0.87297  1.0000
  C   C13       1.0  0.21464  0.93624  0.95235  1.0000
  C   C14       1.0  0.78536  0.06376  0.04765  1.0000
  C   C15       1.0  0.76615  0.03786  0.45093  1.0000
  C   C16       1.0  0.23385  0.96214  0.54907  1.0000
  C   C17       1.0  0.00737  0.96098  0.91517  1.0000
  C   C18       1.0  0.99263  0.03902  0.08483  1.0000
  H   H15       1.0  0.01250  0.93560  0.85850  1.0000
  H   H16       1.0  0.98750  0.06440  0.14150  1.0000
  C   C19       1.0  0.88795  0.02083  0.47809  1.0000
  C   C20       1.0  0.11205  0.97917  0.52191  1.0000
