data_image0
_chemical_formula_structural       Na2O2H4O2N6H2N12C6O2H4Na2O2H4O2H4O2N6H2N12C6
_chemical_formula_sum              "Na4 O12 H20 N36 C12"
_cell_length_a       14.431
_cell_length_b       3.567
_cell_length_c       22.642
_cell_angle_alpha    90
_cell_angle_beta     111.56
_cell_angle_gamma    90

_space_group_name_H-M_alt    "P 1"
_space_group_IT_number       1

loop_
  _space_group_symop_operation_xyz
  'x, y, z'

loop_
  _atom_site_type_symbol
  _atom_site_label
  _atom_site_symmetry_multiplicity
  _atom_site_fract_x
  _atom_site_fract_y
  _atom_site_fract_z
  _atom_site_occupancy
  Na  Na1       1.0  0.19990  0.41970  0.02254  1.0000
  Na  Na2       1.0  0.19990  0.58030  0.52254  1.0000
  O   O1        1.0  0.31150  0.91330  0.06980  1.0000
  O   O2        1.0  0.31150  0.08670  0.56980  1.0000
  H   H1        1.0  0.33470  0.97870  0.10710  1.0000
  H   H2        1.0  0.33470  0.02130  0.60710  1.0000
  H   H3        1.0  0.35070  0.82380  0.05500  1.0000
  H   H4        1.0  0.35070  0.17620  0.55500  1.0000
  O   O3        1.0  0.21360  0.01760  0.93580  1.0000
  O   O4        1.0  0.21360  0.98240  0.43580  1.0000
  N   N1        1.0  0.05320  0.78850  0.95670  1.0000
  N   N2        1.0  0.05320  0.21150  0.45670  1.0000
  N   N3        1.0  0.97800  0.76890  0.97840  1.0000
  N   N4        1.0  0.97800  0.23110  0.47840  1.0000
  N   N5        1.0  0.89850  0.92080  0.93630  1.0000
  N   N6        1.0  0.89850  0.07920  0.43630  1.0000
  H   H5        1.0  0.84170  0.93930  0.94050  1.0000
  H   H6        1.0  0.84170  0.06070  0.44050  1.0000
  N   N7        1.0  0.91690  0.04250  0.88590  1.0000
  N   N8        1.0  0.91690  0.95750  0.38590  1.0000
  N   N9        1.0  0.90950  0.00450  0.75890  1.0000
  N   N10       1.0  0.90950  0.99550  0.25890  1.0000
  N   N11       1.0  0.88610  0.11240  0.69780  1.0000
  N   N12       1.0  0.88610  0.88760  0.19780  1.0000
  N   N13       1.0  0.96360  0.27360  0.69090  1.0000
  N   N14       1.0  0.96360  0.72640  0.19090  1.0000
  N   N15       1.0  0.03960  0.27270  0.74710  1.0000
  N   N16       1.0  0.03960  0.72730  0.24710  1.0000
  N   N17       1.0  0.16060  0.06990  0.87090  1.0000
  N   N18       1.0  0.16060  0.93010  0.37090  1.0000
  C   C1        1.0  0.01380  0.95910  0.89990  1.0000
  C   C2        1.0  0.01380  0.04090  0.39990  1.0000
  C   C3        1.0  0.06530  0.04380  0.85550  1.0000
  C   C4        1.0  0.06530  0.95620  0.35550  1.0000
  C   C5        1.0  0.00600  0.10910  0.78810  1.0000
  C   C6        1.0  0.00600  0.89090  0.28810  1.0000
  O   O5        1.0  0.14140  0.27000  0.10510  1.0000
  O   O6        1.0  0.14140  0.73000  0.60510  1.0000
  H   H7        1.0  0.09430  0.11610  0.09150  1.0000
  H   H8        1.0  0.09430  0.88390  0.59150  1.0000
  H   H9        1.0  0.12100  0.46670  0.11690  1.0000
  H   H10       1.0  0.12100  0.53330  0.61690  1.0000
  Na  Na3       1.0  0.71820  0.37680  0.02696  1.0000
  Na  Na4       1.0  0.71820  0.62320  0.52696  1.0000
  O   O7        1.0  0.89180  0.40200  0.06320  1.0000
  O   O8        1.0  0.89180  0.59800  0.56320  1.0000
  H   H11       1.0  0.91610  0.50660  0.03890  1.0000
  H   H12       1.0  0.91610  0.49340  0.53890  1.0000
  H   H13       1.0  0.91220  0.49560  0.09980  1.0000
  H   H14       1.0  0.91220  0.50440  0.59980  1.0000
  O   O9        1.0  0.70100  0.87480  0.09156  1.0000
  O   O10       1.0  0.70100  0.12520  0.59156  1.0000
  H   H15       1.0  0.75530  0.87870  0.12270  1.0000
  H   H16       1.0  0.75530  0.12130  0.62270  1.0000
  H   H17       1.0  0.64460  0.81110  0.09100  1.0000
  H   H18       1.0  0.64460  0.18890  0.59100  1.0000
  O   O11       1.0  0.71640  0.92200  0.94113  1.0000
  O   O12       1.0  0.71640  0.07800  0.44113  1.0000
  N   N19       1.0  0.55150  0.18810  0.95700  1.0000
  N   N20       1.0  0.55150  0.81190  0.45700  1.0000
  N   N21       1.0  0.47630  0.22210  0.97830  1.0000
  N   N22       1.0  0.47630  0.77790  0.47830  1.0000
  N   N23       1.0  0.39700  0.05820  0.93680  1.0000
  N   N24       1.0  0.39700  0.94180  0.43680  1.0000
  H   H19       1.0  0.34020  0.04290  0.94090  1.0000
  H   H20       1.0  0.34020  0.95710  0.44090  1.0000
  N   N25       1.0  0.41610  0.92200  0.88700  1.0000
  N   N26       1.0  0.41610  0.07800  0.38700  1.0000
  N   N27       1.0  0.41400  0.95880  0.76050  1.0000
  N   N28       1.0  0.41400  0.04120  0.26050  1.0000
  N   N29       1.0  0.39300  0.86040  0.70000  1.0000
  N   N30       1.0  0.39300  0.13960  0.20000  1.0000
  N   N31       1.0  0.47170  0.69630  0.69470  1.0000
  N   N32       1.0  0.47170  0.30370  0.19470  1.0000
  N   N33       1.0  0.54560  0.68510  0.75180  1.0000
  N   N34       1.0  0.54560  0.31490  0.25180  1.0000
  N   N35       1.0  0.66290  0.87220  0.87620  1.0000
  N   N36       1.0  0.66290  0.12780  0.37620  1.0000
  C   C7        1.0  0.51260  0.00650  0.90110  1.0000
  C   C8        1.0  0.51260  0.99350  0.40110  1.0000
  C   C9        1.0  0.56710  0.90720  0.85930  1.0000
  C   C10       1.0  0.56710  0.09280  0.35930  1.0000
  C   C11       1.0  0.50870  0.84920  0.79140  1.0000
  C   C12       1.0  0.50870  0.15080  0.29140  1.0000
