data_image0
_chemical_formula_structural       Na4O4H4O4H8O4H8N36C12
_chemical_formula_sum              "Na4 O12 H20 N36 C12"
_cell_length_a       14.507
_cell_length_b       3.5938
_cell_length_c       20.191
_cell_angle_alpha    90
_cell_angle_beta     90
_cell_angle_gamma    90

_space_group_name_H-M_alt    "P 1"
_space_group_IT_number       1

loop_
  _space_group_symop_operation_xyz
  'x, y, z'

loop_
  _atom_site_type_symbol
  _atom_site_label
  _atom_site_symmetry_multiplicity
  _atom_site_fract_x
  _atom_site_fract_y
  _atom_site_fract_z
  _atom_site_occupancy
  Na  Na1       1.0  0.59606  0.05970  0.64975  1.0000
  Na  Na2       1.0  0.40394  0.94030  0.14975  1.0000
  Na  Na3       1.0  0.90394  0.05970  0.14975  1.0000
  Na  Na4       1.0  0.09606  0.94030  0.64975  1.0000
  O   O1        1.0  0.54272  0.54290  0.56415  1.0000
  O   O2        1.0  0.45728  0.45710  0.06415  1.0000
  O   O3        1.0  0.95728  0.54290  0.06415  1.0000
  O   O4        1.0  0.04272  0.45710  0.56415  1.0000
  H   H1        1.0  0.48520  0.51530  0.56330  1.0000
  H   H2        1.0  0.51480  0.48470  0.06330  1.0000
  H   H3        1.0  0.01480  0.51530  0.06330  1.0000
  H   H4        1.0  0.98520  0.48470  0.56330  1.0000
  O   O5        1.0  0.44884  0.00650  0.68817  1.0000
  O   O6        1.0  0.55116  0.99350  0.18817  1.0000
  O   O7        1.0  0.05116  0.00650  0.18817  1.0000
  O   O8        1.0  0.94884  0.99350  0.68817  1.0000
  H   H5        1.0  0.42490  0.12550  0.71950  1.0000
  H   H6        1.0  0.57510  0.87450  0.21950  1.0000
  H   H7        1.0  0.07510  0.12550  0.21950  1.0000
  H   H8        1.0  0.92490  0.87450  0.71950  1.0000
  H   H9        1.0  0.40180  0.92550  0.66860  1.0000
  H   H10       1.0  0.59820  0.07450  0.16860  1.0000
  H   H11       1.0  0.09820  0.92550  0.16860  1.0000
  H   H12       1.0  0.90180  0.07450  0.66860  1.0000
  O   O9        1.0  0.62521  0.55830  0.72409  1.0000
  O   O10       1.0  0.37479  0.44170  0.22409  1.0000
  O   O11       1.0  0.87479  0.55830  0.22409  1.0000
  O   O12       1.0  0.12521  0.44170  0.72409  1.0000
  H   H13       1.0  0.67450  0.52800  0.74520  1.0000
  H   H14       1.0  0.32550  0.47200  0.24520  1.0000
  H   H15       1.0  0.82550  0.52800  0.24520  1.0000
  H   H16       1.0  0.17450  0.47200  0.74520  1.0000
  H   H17       1.0  0.58330  0.64750  0.74800  1.0000
  H   H18       1.0  0.41670  0.35250  0.24800  1.0000
  H   H19       1.0  0.91670  0.64750  0.24800  1.0000
  H   H20       1.0  0.08330  0.35250  0.74800  1.0000
  N   N1        1.0  0.71821  0.31700  0.58267  1.0000
  N   N2        1.0  0.28179  0.68300  0.08267  1.0000
  N   N3        1.0  0.78179  0.31700  0.08267  1.0000
  N   N4        1.0  0.21821  0.68300  0.58267  1.0000
  N   N5        1.0  0.80567  0.30550  0.60377  1.0000
  N   N6        1.0  0.19433  0.69450  0.10377  1.0000
  N   N7        1.0  0.69433  0.30550  0.10377  1.0000
  N   N8        1.0  0.30567  0.69450  0.60377  1.0000
  N   N9        1.0  0.85937  0.46270  0.55952  1.0000
  N   N10       1.0  0.14063  0.53730  0.05952  1.0000
  N   N11       1.0  0.64063  0.46270  0.05952  1.0000
  N   N12       1.0  0.35937  0.53730  0.55952  1.0000
  N   N13       1.0  0.80985  0.58100  0.50767  1.0000
  N   N14       1.0  0.19015  0.41900  0.00767  1.0000
  N   N15       1.0  0.69015  0.58100  0.00767  1.0000
  N   N16       1.0  0.30985  0.41900  0.50767  1.0000
  N   N17       1.0  0.73777  0.49980  0.37641  1.0000
  N   N18       1.0  0.26223  0.50020  0.87641  1.0000
  N   N19       1.0  0.76223  0.49980  0.87641  1.0000
  N   N20       1.0  0.23777  0.50020  0.37641  1.0000
  N   N21       1.0  0.72231  0.58120  0.31180  1.0000
  N   N22       1.0  0.27769  0.41880  0.81180  1.0000
  N   N23       1.0  0.77769  0.58120  0.81180  1.0000
  N   N24       1.0  0.22231  0.41880  0.31180  1.0000
  N   N25       1.0  0.64029  0.73300  0.30539  1.0000
  N   N26       1.0  0.35971  0.26700  0.80539  1.0000
  N   N27       1.0  0.85971  0.73300  0.80539  1.0000
  N   N28       1.0  0.14029  0.26700  0.30539  1.0000
  N   N29       1.0  0.60036  0.75650  0.36537  1.0000
  N   N30       1.0  0.39964  0.24350  0.86537  1.0000
  N   N31       1.0  0.89964  0.75650  0.86537  1.0000
  N   N32       1.0  0.10036  0.24350  0.36537  1.0000
  N   N33       1.0  0.55822  0.58280  0.49647  1.0000
  N   N34       1.0  0.44178  0.41720  0.99647  1.0000
  N   N35       1.0  0.94178  0.58280  0.99647  1.0000
  N   N36       1.0  0.05822  0.41720  0.49647  1.0000
  C   C1        1.0  0.72240  0.48760  0.52315  1.0000
  C   C2        1.0  0.27760  0.51240  0.02315  1.0000
  C   C3        1.0  0.77760  0.48760  0.02315  1.0000
  C   C4        1.0  0.22240  0.51240  0.52315  1.0000
  C   C5        1.0  0.64385  0.56120  0.47957  1.0000
  C   C6        1.0  0.35615  0.43880  0.97957  1.0000
  C   C7        1.0  0.85615  0.56120  0.97957  1.0000
  C   C8        1.0  0.14385  0.43880  0.47957  1.0000
  C   C9        1.0  0.66124  0.61030  0.40758  1.0000
  C   C10       1.0  0.33876  0.38970  0.90758  1.0000
  C   C11       1.0  0.83876  0.61030  0.90758  1.0000
  C   C12       1.0  0.16124  0.38970  0.40758  1.0000
