data_image0
_chemical_formula_structural       B4H4Cu4Re4C12H4C4H4C4H4C4H4C4H4C4H4C4H4C4H4C4H4N32Cl16
_chemical_formula_sum              "B4 H40 Cu4 Re4 C44 N32 Cl16"
_cell_length_a       11.4534
_cell_length_b       16.2945
_cell_length_c       22.1655
_cell_angle_alpha    90
_cell_angle_beta     90.677
_cell_angle_gamma    90

_space_group_name_H-M_alt    "P 1"
_space_group_IT_number       1

loop_
  _space_group_symop_operation_xyz
  'x, y, z'

loop_
  _atom_site_type_symbol
  _atom_site_label
  _atom_site_symmetry_multiplicity
  _atom_site_fract_x
  _atom_site_fract_y
  _atom_site_fract_z
  _atom_site_occupancy
  B   B1        1.0  0.95150  0.80730  0.53670  1.0000
  B   B2        1.0  0.04850  0.30730  0.96330  1.0000
  B   B3        1.0  0.04850  0.19270  0.46330  1.0000
  B   B4        1.0  0.95150  0.69270  0.03670  1.0000
  H   H1        1.0  0.94540  0.81180  0.58150  1.0000
  H   H2        1.0  0.05460  0.31180  0.91850  1.0000
  H   H3        1.0  0.05460  0.18820  0.41850  1.0000
  H   H4        1.0  0.94540  0.68820  0.08150  1.0000
  Cu  Cu1       1.0  0.97907  0.79328  0.39662  1.0000
  Cu  Cu2       1.0  0.02093  0.29328  0.10338  1.0000
  Cu  Cu3       1.0  0.02093  0.20672  0.60338  1.0000
  Cu  Cu4       1.0  0.97907  0.70672  0.89662  1.0000
  Re  Re1       1.0  0.99535  0.03993  0.24600  1.0000
  Re  Re2       1.0  0.00465  0.53993  0.25400  1.0000
  Re  Re3       1.0  0.00465  0.96007  0.75400  1.0000
  Re  Re4       1.0  0.99535  0.46007  0.74600  1.0000
  C   C1        1.0  0.97050  0.93640  0.30250  1.0000
  C   C2        1.0  0.02950  0.43640  0.19750  1.0000
  C   C3        1.0  0.02950  0.06360  0.69750  1.0000
  C   C4        1.0  0.97050  0.56360  0.80250  1.0000
  C   C5        1.0  0.02710  0.14490  0.19280  1.0000
  C   C6        1.0  0.97290  0.64490  0.30720  1.0000
  C   C7        1.0  0.97290  0.85510  0.80720  1.0000
  C   C8        1.0  0.02710  0.35510  0.69280  1.0000
  C   C9        1.0  0.06270  0.63000  0.45620  1.0000
  C   C10       1.0  0.93730  0.13000  0.04380  1.0000
  C   C11       1.0  0.93730  0.37000  0.54380  1.0000
  C   C12       1.0  0.06270  0.87000  0.95620  1.0000
  H   H5        1.0  0.08020  0.60140  0.42010  1.0000
  H   H6        1.0  0.91980  0.10140  0.07990  1.0000
  H   H7        1.0  0.91980  0.39860  0.57990  1.0000
  H   H8        1.0  0.08020  0.89860  0.92010  1.0000
  C   C13       1.0  0.07720  0.59750  0.51320  1.0000
  C   C14       1.0  0.92280  0.09750  0.98680  1.0000
  C   C15       1.0  0.92280  0.40250  0.48680  1.0000
  C   C16       1.0  0.07720  0.90250  0.01320  1.0000
  H   H9        1.0  0.10980  0.54580  0.52400  1.0000
  H   H10       1.0  0.89020  0.04580  0.97600  1.0000
  H   H11       1.0  0.89020  0.45420  0.47600  1.0000
  H   H12       1.0  0.10980  0.95420  0.02400  1.0000
  C   C17       1.0  0.03200  0.65920  0.55210  1.0000
  C   C18       1.0  0.96800  0.15920  0.94790  1.0000
  C   C19       1.0  0.96800  0.34080  0.44790  1.0000
  C   C20       1.0  0.03200  0.84080  0.05210  1.0000
  H   H13       1.0  0.02340  0.65540  0.59460  1.0000
  H   H14       1.0  0.97660  0.15540  0.90540  1.0000
  H   H15       1.0  0.97660  0.34460  0.40540  1.0000
  H   H16       1.0  0.02340  0.84460  0.09460  1.0000
  C   C21       1.0  0.72800  0.82870  0.53180  1.0000
  C   C22       1.0  0.27200  0.32870  0.96820  1.0000
  C   C23       1.0  0.27200  0.17130  0.46820  1.0000
  C   C24       1.0  0.72800  0.67130  0.03180  1.0000
  H   H17       1.0  0.71570  0.83260  0.57400  1.0000
  H   H18       1.0  0.28430  0.33260  0.92600  1.0000
  H   H19       1.0  0.28430  0.16740  0.42600  1.0000
  H   H20       1.0  0.71570  0.66740  0.07400  1.0000
  C   C25       1.0  0.63720  0.83510  0.48560  1.0000
  C   C26       1.0  0.36280  0.33510  0.01440  1.0000
  C   C27       1.0  0.36280  0.16490  0.51440  1.0000
  C   C28       1.0  0.63720  0.66490  0.98560  1.0000
  H   H21       1.0  0.55540  0.84280  0.48940  1.0000
  H   H22       1.0  0.44460  0.34280  0.01060  1.0000
  H   H23       1.0  0.44460  0.15720  0.51060  1.0000
  H   H24       1.0  0.55540  0.65720  0.98940  1.0000
  C   C29       1.0  0.70640  0.82670  0.43250  1.0000
  C   C30       1.0  0.29360  0.32670  0.06750  1.0000
  C   C31       1.0  0.29360  0.17330  0.56750  1.0000
  C   C32       1.0  0.70640  0.67330  0.93250  1.0000
  H   H25       1.0  0.67530  0.82930  0.39270  1.0000
  H   H26       1.0  0.32470  0.32930  0.10730  1.0000
  H   H27       1.0  0.32470  0.17070  0.60730  1.0000
  H   H28       1.0  0.67530  0.67070  0.89270  1.0000
  C   C33       1.0  0.13150  0.93650  0.44470  1.0000
  C   C34       1.0  0.86850  0.43650  0.05530  1.0000
  C   C35       1.0  0.86850  0.06350  0.55530  1.0000
  C   C36       1.0  0.13150  0.56350  0.94470  1.0000
  H   H29       1.0  0.16200  0.95310  0.40700  1.0000
  H   H30       1.0  0.83800  0.45310  0.09300  1.0000
  H   H31       1.0  0.83800  0.04690  0.59300  1.0000
  H   H32       1.0  0.16200  0.54690  0.90700  1.0000
  C   C37       1.0  0.16120  0.97410  0.50000  1.0000
  C   C38       1.0  0.83880  0.47410  0.00000  1.0000
  C   C39       1.0  0.83880  0.02590  0.50000  1.0000
  C   C40       1.0  0.16120  0.52590  0.00000  1.0000
  H   H33       1.0  0.21410  0.01780  0.50760  1.0000
  H   H34       1.0  0.78590  0.51780  0.99240  1.0000
  H   H35       1.0  0.78590  0.98220  0.49240  1.0000
  H   H36       1.0  0.21410  0.48220  0.00760  1.0000
  C   C41       1.0  0.09520  0.93210  0.53930  1.0000
  C   C42       1.0  0.90480  0.43210  0.96070  1.0000
  C   C43       1.0  0.90480  0.06790  0.46070  1.0000
  C   C44       1.0  0.09520  0.56790  0.03930  1.0000
  H   H37       1.0  0.09450  0.94280  0.58150  1.0000
  H   H38       1.0  0.90550  0.44280  0.91850  1.0000
  H   H39       1.0  0.90550  0.05720  0.41850  1.0000
  H   H40       1.0  0.09450  0.55720  0.08150  1.0000
  N   N1        1.0  0.96600  0.88030  0.33410  1.0000
  N   N2        1.0  0.03400  0.38030  0.16590  1.0000
  N   N3        1.0  0.03400  0.11970  0.66590  1.0000
  N   N4        1.0  0.96600  0.61970  0.83410  1.0000
  N   N5        1.0  0.03590  0.20320  0.16330  1.0000
  N   N6        1.0  0.96410  0.70320  0.33670  1.0000
  N   N7        1.0  0.96410  0.79680  0.83670  1.0000
  N   N8        1.0  0.03590  0.29680  0.66330  1.0000
  N   N9        1.0  0.02100  0.70670  0.45770  1.0000
  N   N10       1.0  0.97900  0.20670  0.04230  1.0000
  N   N11       1.0  0.97900  0.29330  0.54230  1.0000
  N   N12       1.0  0.02100  0.79330  0.95770  1.0000
  N   N13       1.0  0.81620  0.81500  0.44480  1.0000
  N   N14       1.0  0.18380  0.31500  0.05520  1.0000
  N   N15       1.0  0.18380  0.18500  0.55520  1.0000
  N   N16       1.0  0.81620  0.68500  0.94480  1.0000
  N   N17       1.0  0.05700  0.87570  0.45120  1.0000
  N   N18       1.0  0.94300  0.37570  0.04880  1.0000
  N   N19       1.0  0.94300  0.12430  0.54880  1.0000
  N   N20       1.0  0.05700  0.62430  0.95120  1.0000
  N   N21       1.0  0.00410  0.72300  0.51760  1.0000
  N   N22       1.0  0.99590  0.22300  0.98240  1.0000
  N   N23       1.0  0.99590  0.27700  0.48240  1.0000
  N   N24       1.0  0.00410  0.77700  0.01760  1.0000
  N   N25       1.0  0.83200  0.81640  0.50570  1.0000
  N   N26       1.0  0.16800  0.31640  0.99430  1.0000
  N   N27       1.0  0.16800  0.18360  0.49430  1.0000
  N   N28       1.0  0.83200  0.68360  0.00570  1.0000
  N   N29       1.0  0.02860  0.87200  0.51180  1.0000
  N   N30       1.0  0.97140  0.37200  0.98820  1.0000
  N   N31       1.0  0.97140  0.12800  0.48820  1.0000
  N   N32       1.0  0.02860  0.62800  0.01180  1.0000
  Cl  Cl1       1.0  0.83653  0.00509  0.18411  1.0000
  Cl  Cl2       1.0  0.16347  0.50509  0.31589  1.0000
  Cl  Cl3       1.0  0.16347  0.99491  0.81589  1.0000
  Cl  Cl4       1.0  0.83653  0.49491  0.68411  1.0000
  Cl  Cl5       1.0  0.11269  0.95957  0.18428  1.0000
  Cl  Cl6       1.0  0.88731  0.45957  0.31572  1.0000
  Cl  Cl7       1.0  0.88731  0.04043  0.81572  1.0000
  Cl  Cl8       1.0  0.11269  0.54043  0.68428  1.0000
  Cl  Cl9       1.0  0.87422  0.12139  0.30403  1.0000
  Cl  Cl10      1.0  0.12578  0.62139  0.19597  1.0000
  Cl  Cl11      1.0  0.12578  0.87861  0.69597  1.0000
  Cl  Cl12      1.0  0.87422  0.37861  0.80403  1.0000
  Cl  Cl13      1.0  0.15724  0.07135  0.30689  1.0000
  Cl  Cl14      1.0  0.84276  0.57135  0.19311  1.0000
  Cl  Cl15      1.0  0.84276  0.92865  0.69311  1.0000
  Cl  Cl16      1.0  0.15724  0.42865  0.80689  1.0000
