data_image0
_chemical_formula_structural       Zn20O24H8O80H8C16H8C8H8C24H8C8H8C8H8C8H8C40H8C8H8C24H8C8H8C8H8C8H8C40H8C8H8C24H8C8H8C8H8C8H8C24
_chemical_formula_sum              "Zn20 O104 H160 C288"
_cell_length_a       18.5855
_cell_length_b       18.3704
_cell_length_c       22.872
_cell_angle_alpha    90
_cell_angle_beta     90
_cell_angle_gamma    90

_space_group_name_H-M_alt    "P 1"
_space_group_IT_number       1

loop_
  _space_group_symop_operation_xyz
  'x, y, z'

loop_
  _atom_site_type_symbol
  _atom_site_label
  _atom_site_symmetry_multiplicity
  _atom_site_fract_x
  _atom_site_fract_y
  _atom_site_fract_z
  _atom_site_occupancy
  Zn  Zn1       1.0  0.50000  0.50000  0.50000  1.0000
  Zn  Zn2       1.0  0.00000  0.50000  0.00000  1.0000
  Zn  Zn3       1.0  0.50000  0.00000  0.00000  1.0000
  Zn  Zn4       1.0  0.00000  0.00000  0.50000  1.0000
  Zn  Zn5       1.0  0.58445  0.60391  0.39893  1.0000
  Zn  Zn6       1.0  0.91555  0.39609  0.89893  1.0000
  Zn  Zn7       1.0  0.41555  0.10391  0.10107  1.0000
  Zn  Zn8       1.0  0.08445  0.89609  0.60107  1.0000
  Zn  Zn9       1.0  0.41555  0.39609  0.60107  1.0000
  Zn  Zn10      1.0  0.08445  0.60391  0.10107  1.0000
  Zn  Zn11      1.0  0.58445  0.89609  0.89893  1.0000
  Zn  Zn12      1.0  0.91555  0.10391  0.39893  1.0000
  Zn  Zn13      1.0  0.41167  0.61706  0.40792  1.0000
  Zn  Zn14      1.0  0.08833  0.38294  0.90792  1.0000
  Zn  Zn15      1.0  0.58833  0.11706  0.09208  1.0000
  Zn  Zn16      1.0  0.91167  0.88294  0.59208  1.0000
  Zn  Zn17      1.0  0.58833  0.38294  0.59208  1.0000
  Zn  Zn18      1.0  0.91167  0.61706  0.09208  1.0000
  Zn  Zn19      1.0  0.41167  0.88294  0.90792  1.0000
  Zn  Zn20      1.0  0.08833  0.11706  0.40792  1.0000
  O   O1        1.0  0.55017  0.61106  0.31774  1.0000
  O   O2        1.0  0.94983  0.38894  0.81774  1.0000
  O   O3        1.0  0.44983  0.11106  0.18226  1.0000
  O   O4        1.0  0.05017  0.88894  0.68226  1.0000
  O   O5        1.0  0.44983  0.38894  0.68226  1.0000
  O   O6        1.0  0.05017  0.61106  0.18226  1.0000
  O   O7        1.0  0.55017  0.88894  0.81774  1.0000
  O   O8        1.0  0.94983  0.11106  0.31774  1.0000
  O   O9        1.0  0.43474  0.63929  0.32431  1.0000
  O   O10       1.0  0.06526  0.36071  0.82431  1.0000
  O   O11       1.0  0.56526  0.13929  0.17569  1.0000
  O   O12       1.0  0.93474  0.86071  0.67569  1.0000
  O   O13       1.0  0.56526  0.36071  0.67569  1.0000
  O   O14       1.0  0.93474  0.63929  0.17569  1.0000
  O   O15       1.0  0.43474  0.86071  0.82431  1.0000
  O   O16       1.0  0.06526  0.13929  0.32431  1.0000
  O   O17       1.0  0.54946  0.69404  0.02666  1.0000
  O   O18       1.0  0.95054  0.30596  0.52666  1.0000
  O   O19       1.0  0.45054  0.19404  0.47334  1.0000
  O   O20       1.0  0.04946  0.80596  0.97334  1.0000
  O   O21       1.0  0.45054  0.30596  0.97334  1.0000
  O   O22       1.0  0.04946  0.69404  0.47334  1.0000
  O   O23       1.0  0.54946  0.80596  0.52666  1.0000
  O   O24       1.0  0.95054  0.19404  0.02666  1.0000
  H   H1        1.0  0.55730  0.71180  0.99440  1.0000
  H   H2        1.0  0.94270  0.28820  0.49440  1.0000
  H   H3        1.0  0.44270  0.21180  0.50560  1.0000
  H   H4        1.0  0.05730  0.78820  0.00560  1.0000
  H   H5        1.0  0.44270  0.28820  0.00560  1.0000
  H   H6        1.0  0.05730  0.71180  0.50560  1.0000
  H   H7        1.0  0.55730  0.78820  0.49440  1.0000
  H   H8        1.0  0.94270  0.21180  0.99440  1.0000
  O   O25       1.0  0.49209  0.79827  0.04021  1.0000
  O   O26       1.0  0.00791  0.20173  0.54021  1.0000
  O   O27       1.0  0.50791  0.29827  0.45979  1.0000
  O   O28       1.0  0.99209  0.70173  0.95979  1.0000
  O   O29       1.0  0.50791  0.20173  0.95979  1.0000
  O   O30       1.0  0.99209  0.79827  0.45979  1.0000
  O   O31       1.0  0.49209  0.70173  0.54021  1.0000
  O   O32       1.0  0.00791  0.29827  0.04021  1.0000
  O   O33       1.0  0.42956  0.44891  0.44386  1.0000
  O   O34       1.0  0.07044  0.55109  0.94386  1.0000
  O   O35       1.0  0.57044  0.94891  0.05614  1.0000
  O   O36       1.0  0.92956  0.05109  0.55614  1.0000
  O   O37       1.0  0.57044  0.55109  0.55614  1.0000
  O   O38       1.0  0.92956  0.44891  0.05614  1.0000
  O   O39       1.0  0.42956  0.05109  0.94386  1.0000
  O   O40       1.0  0.07044  0.94891  0.44386  1.0000
  O   O41       1.0  0.35483  0.52737  0.40100  1.0000
  O   O42       1.0  0.14517  0.47263  0.90100  1.0000
  O   O43       1.0  0.64517  0.02737  0.09900  1.0000
  O   O44       1.0  0.85483  0.97263  0.59900  1.0000
  O   O45       1.0  0.64517  0.47263  0.59900  1.0000
  O   O46       1.0  0.85483  0.52737  0.09900  1.0000
  O   O47       1.0  0.35483  0.97263  0.90100  1.0000
  O   O48       1.0  0.14517  0.02737  0.40100  1.0000
  O   O49       1.0  0.18549  0.17339  0.40837  1.0000
  O   O50       1.0  0.31451  0.82661  0.90837  1.0000
  O   O51       1.0  0.81451  0.67339  0.09163  1.0000
  O   O52       1.0  0.68549  0.32661  0.59163  1.0000
  O   O53       1.0  0.81451  0.82661  0.59163  1.0000
  O   O54       1.0  0.68549  0.17339  0.09163  1.0000
  O   O55       1.0  0.18549  0.32661  0.90837  1.0000
  O   O56       1.0  0.31451  0.67339  0.40837  1.0000
  O   O57       1.0  0.09301  0.23732  0.43183  1.0000
  O   O58       1.0  0.40699  0.76268  0.93183  1.0000
  O   O59       1.0  0.90699  0.73732  0.06817  1.0000
  O   O60       1.0  0.59301  0.26268  0.56817  1.0000
  O   O61       1.0  0.90699  0.76268  0.56817  1.0000
  O   O62       1.0  0.59301  0.23732  0.06817  1.0000
  O   O63       1.0  0.09301  0.26268  0.93183  1.0000
  O   O64       1.0  0.40699  0.73732  0.43183  1.0000
  O   O65       1.0  0.59283  0.45011  0.46373  1.0000
  O   O66       1.0  0.90717  0.54989  0.96373  1.0000
  O   O67       1.0  0.40717  0.95011  0.03627  1.0000
  O   O68       1.0  0.09283  0.04989  0.53627  1.0000
  O   O69       1.0  0.40717  0.54989  0.53627  1.0000
  O   O70       1.0  0.09283  0.45011  0.03627  1.0000
  O   O71       1.0  0.59283  0.04989  0.96373  1.0000
  O   O72       1.0  0.90717  0.95011  0.46373  1.0000
  O   O73       1.0  0.64261  0.51577  0.39302  1.0000
  O   O74       1.0  0.85739  0.48423  0.89302  1.0000
  O   O75       1.0  0.35739  0.01577  0.10698  1.0000
  O   O76       1.0  0.14261  0.98423  0.60698  1.0000
  O   O77       1.0  0.35739  0.48423  0.60698  1.0000
  O   O78       1.0  0.14261  0.51577  0.10698  1.0000
  O   O79       1.0  0.64261  0.98423  0.89302  1.0000
  O   O80       1.0  0.85739  0.01577  0.39302  1.0000
  O   O81       1.0  0.82964  0.17031  0.39173  1.0000
  O   O82       1.0  0.67036  0.82969  0.89173  1.0000
  O   O83       1.0  0.17036  0.67031  0.10827  1.0000
  O   O84       1.0  0.32964  0.32969  0.60827  1.0000
  O   O85       1.0  0.17036  0.82969  0.60827  1.0000
  O   O86       1.0  0.32964  0.17031  0.10827  1.0000
  O   O87       1.0  0.82964  0.32969  0.89173  1.0000
  O   O88       1.0  0.67036  0.67031  0.39173  1.0000
  O   O89       1.0  0.91662  0.23669  0.42748  1.0000
  O   O90       1.0  0.58338  0.76331  0.92748  1.0000
  O   O91       1.0  0.08338  0.73669  0.07252  1.0000
  O   O92       1.0  0.41662  0.26331  0.57252  1.0000
  O   O93       1.0  0.08338  0.76331  0.57252  1.0000
  O   O94       1.0  0.41662  0.23669  0.07252  1.0000
  O   O95       1.0  0.91662  0.26331  0.92748  1.0000
  O   O96       1.0  0.58338  0.73669  0.42748  1.0000
  O   O97       1.0  0.50179  0.59700  0.45070  1.0000
  O   O98       1.0  0.99821  0.40300  0.95070  1.0000
  O   O99       1.0  0.49821  0.09700  0.04930  1.0000
  O   O100      1.0  0.00179  0.90300  0.54930  1.0000
  O   O101      1.0  0.49821  0.40300  0.54930  1.0000
  O   O102      1.0  0.00179  0.59700  0.04930  1.0000
  O   O103      1.0  0.50179  0.90300  0.95070  1.0000
  O   O104      1.0  0.99821  0.09700  0.45070  1.0000
  H   H9        1.0  0.50710  0.63660  0.47910  1.0000
  H   H10       1.0  0.99290  0.36340  0.97910  1.0000
  H   H11       1.0  0.49290  0.13660  0.02090  1.0000
  H   H12       1.0  0.00710  0.86340  0.52090  1.0000
  H   H13       1.0  0.49290  0.36340  0.52090  1.0000
  H   H14       1.0  0.00710  0.63660  0.02090  1.0000
  H   H15       1.0  0.50710  0.86340  0.97910  1.0000
  H   H16       1.0  0.99290  0.13660  0.47910  1.0000
  C   C1        1.0  0.49649  0.66679  0.23695  1.0000
  C   C2        1.0  0.00351  0.33321  0.73695  1.0000
  C   C3        1.0  0.50351  0.16679  0.26305  1.0000
  C   C4        1.0  0.99649  0.83321  0.76305  1.0000
  C   C5        1.0  0.50351  0.33321  0.76305  1.0000
  C   C6        1.0  0.99649  0.66679  0.26305  1.0000
  C   C7        1.0  0.49649  0.83321  0.73695  1.0000
  C   C8        1.0  0.00351  0.16679  0.23695  1.0000
  C   C9        1.0  0.51821  0.62176  0.19297  1.0000
  C   C10       1.0  0.98179  0.37824  0.69297  1.0000
  C   C11       1.0  0.48179  0.12176  0.30703  1.0000
  C   C12       1.0  0.01821  0.87824  0.80703  1.0000
  C   C13       1.0  0.48179  0.37824  0.80703  1.0000
  C   C14       1.0  0.01821  0.62176  0.30703  1.0000
  C   C15       1.0  0.51821  0.87824  0.69297  1.0000
  C   C16       1.0  0.98179  0.12176  0.19297  1.0000
  H   H17       1.0  0.53000  0.57360  0.20120  1.0000
  H   H18       1.0  0.97000  0.42640  0.70120  1.0000
  H   H19       1.0  0.47000  0.07360  0.29880  1.0000
  H   H20       1.0  0.03000  0.92640  0.79880  1.0000
  H   H21       1.0  0.47000  0.42640  0.79880  1.0000
  H   H22       1.0  0.03000  0.57360  0.29880  1.0000
  H   H23       1.0  0.53000  0.92640  0.70120  1.0000
  H   H24       1.0  0.97000  0.07360  0.20120  1.0000
  C   C17       1.0  0.52282  0.64767  0.13557  1.0000
  C   C18       1.0  0.97718  0.35233  0.63557  1.0000
  C   C19       1.0  0.47718  0.14767  0.36443  1.0000
  C   C20       1.0  0.02282  0.85233  0.86443  1.0000
  C   C21       1.0  0.47718  0.35233  0.86443  1.0000
  C   C22       1.0  0.02282  0.64767  0.36443  1.0000
  C   C23       1.0  0.52282  0.85233  0.63557  1.0000
  C   C24       1.0  0.97718  0.14767  0.13557  1.0000
  H   H25       1.0  0.53630  0.61590  0.10590  1.0000
  H   H26       1.0  0.96370  0.38410  0.60590  1.0000
  H   H27       1.0  0.46370  0.11590  0.39410  1.0000
  H   H28       1.0  0.03630  0.88410  0.89410  1.0000
  H   H29       1.0  0.46370  0.38410  0.89410  1.0000
  H   H30       1.0  0.03630  0.61590  0.39410  1.0000
  H   H31       1.0  0.53630  0.88410  0.60590  1.0000
  H   H32       1.0  0.96370  0.11590  0.10590  1.0000
  C   C25       1.0  0.50796  0.71895  0.12198  1.0000
  C   C26       1.0  0.99204  0.28105  0.62198  1.0000
  C   C27       1.0  0.49204  0.21895  0.37802  1.0000
  C   C28       1.0  0.00796  0.78105  0.87802  1.0000
  C   C29       1.0  0.49204  0.28105  0.87802  1.0000
  C   C30       1.0  0.00796  0.71895  0.37802  1.0000
  C   C31       1.0  0.50796  0.78105  0.62198  1.0000
  C   C32       1.0  0.99204  0.21895  0.12198  1.0000
  C   C33       1.0  0.48777  0.76881  0.16721  1.0000
  C   C34       1.0  0.01223  0.23119  0.66721  1.0000
  C   C35       1.0  0.51223  0.26881  0.33279  1.0000
  C   C36       1.0  0.98777  0.73119  0.83279  1.0000
  C   C37       1.0  0.51223  0.23119  0.83279  1.0000
  C   C38       1.0  0.98777  0.76881  0.33279  1.0000
  C   C39       1.0  0.48777  0.73119  0.66721  1.0000
  C   C40       1.0  0.01223  0.26881  0.16721  1.0000
  C   C41       1.0  0.47702  0.84435  0.15841  1.0000
  C   C42       1.0  0.02298  0.15565  0.65841  1.0000
  C   C43       1.0  0.52298  0.34435  0.34159  1.0000
  C   C44       1.0  0.97702  0.65565  0.84159  1.0000
  C   C45       1.0  0.52298  0.15565  0.84159  1.0000
  C   C46       1.0  0.97702  0.84435  0.34159  1.0000
  C   C47       1.0  0.47702  0.65565  0.65841  1.0000
  C   C48       1.0  0.02298  0.34435  0.15841  1.0000
  H   H33       1.0  0.48210  0.86380  0.12110  1.0000
  H   H34       1.0  0.01790  0.13620  0.62110  1.0000
  H   H35       1.0  0.51790  0.36380  0.37890  1.0000
  H   H36       1.0  0.98210  0.63620  0.87890  1.0000
  H   H37       1.0  0.51790  0.13620  0.87890  1.0000
  H   H38       1.0  0.98210  0.86380  0.37890  1.0000
  H   H39       1.0  0.48210  0.63620  0.62110  1.0000
  H   H40       1.0  0.01790  0.36380  0.12110  1.0000
  C   C49       1.0  0.45940  0.88880  0.20380  1.0000
  C   C50       1.0  0.04060  0.11120  0.70380  1.0000
  C   C51       1.0  0.54060  0.38880  0.29620  1.0000
  C   C52       1.0  0.95940  0.61120  0.79620  1.0000
  C   C53       1.0  0.54060  0.11120  0.79620  1.0000
  C   C54       1.0  0.95940  0.88880  0.29620  1.0000
  C   C55       1.0  0.45940  0.61120  0.70380  1.0000
  C   C56       1.0  0.04060  0.38880  0.20380  1.0000
  H   H41       1.0  0.45290  0.93820  0.19700  1.0000
  H   H42       1.0  0.04710  0.06180  0.69700  1.0000
  H   H43       1.0  0.54710  0.43820  0.30300  1.0000
  H   H44       1.0  0.95290  0.56180  0.80300  1.0000
  H   H45       1.0  0.54710  0.06180  0.80300  1.0000
  H   H46       1.0  0.95290  0.93820  0.30300  1.0000
  H   H47       1.0  0.45290  0.56180  0.69700  1.0000
  H   H48       1.0  0.04710  0.43820  0.19700  1.0000
  C   C57       1.0  0.45100  0.86150  0.26048  1.0000
  C   C58       1.0  0.04900  0.13850  0.76048  1.0000
  C   C59       1.0  0.54900  0.36150  0.23952  1.0000
  C   C60       1.0  0.95100  0.63850  0.73952  1.0000
  C   C61       1.0  0.54900  0.13850  0.73952  1.0000
  C   C62       1.0  0.95100  0.86150  0.23952  1.0000
  C   C63       1.0  0.45100  0.63850  0.76048  1.0000
  C   C64       1.0  0.04900  0.36150  0.26048  1.0000
  H   H49       1.0  0.43790  0.89250  0.29080  1.0000
  H   H50       1.0  0.06210  0.10750  0.79080  1.0000
  H   H51       1.0  0.56210  0.39250  0.20920  1.0000
  H   H52       1.0  0.93790  0.60750  0.70920  1.0000
  H   H53       1.0  0.56210  0.10750  0.70920  1.0000
  H   H54       1.0  0.93790  0.89250  0.20920  1.0000
  H   H55       1.0  0.43790  0.60750  0.79080  1.0000
  H   H56       1.0  0.06210  0.39250  0.29080  1.0000
  C   C65       1.0  0.46190  0.78997  0.27120  1.0000
  C   C66       1.0  0.03810  0.21003  0.77120  1.0000
  C   C67       1.0  0.53810  0.28997  0.22880  1.0000
  C   C68       1.0  0.96190  0.71003  0.72880  1.0000
  C   C69       1.0  0.53810  0.21003  0.72880  1.0000
  C   C70       1.0  0.96190  0.78997  0.22880  1.0000
  C   C71       1.0  0.46190  0.71003  0.77120  1.0000
  C   C72       1.0  0.03810  0.28997  0.27120  1.0000
  H   H57       1.0  0.45660  0.77240  0.30910  1.0000
  H   H58       1.0  0.04340  0.22760  0.80910  1.0000
  H   H59       1.0  0.54340  0.27240  0.19090  1.0000
  H   H60       1.0  0.95660  0.72760  0.69090  1.0000
  H   H61       1.0  0.54340  0.22760  0.69090  1.0000
  H   H62       1.0  0.95660  0.77240  0.19090  1.0000
  H   H63       1.0  0.45660  0.72760  0.80910  1.0000
  H   H64       1.0  0.04340  0.27240  0.30910  1.0000
  C   C73       1.0  0.48145  0.74108  0.22552  1.0000
  C   C74       1.0  0.01855  0.25892  0.72552  1.0000
  C   C75       1.0  0.51855  0.24108  0.27448  1.0000
  C   C76       1.0  0.98145  0.75892  0.77448  1.0000
  C   C77       1.0  0.51855  0.25892  0.77448  1.0000
  C   C78       1.0  0.98145  0.74108  0.27448  1.0000
  C   C79       1.0  0.48145  0.75892  0.72552  1.0000
  C   C80       1.0  0.01855  0.24108  0.22552  1.0000
  C   C81       1.0  0.49333  0.63688  0.29801  1.0000
  C   C82       1.0  0.00667  0.36312  0.79801  1.0000
  C   C83       1.0  0.50667  0.13688  0.20199  1.0000
  C   C84       1.0  0.99333  0.86312  0.70199  1.0000
  C   C85       1.0  0.50667  0.36312  0.70199  1.0000
  C   C86       1.0  0.99333  0.63688  0.20199  1.0000
  C   C87       1.0  0.49333  0.86312  0.79801  1.0000
  C   C88       1.0  0.00667  0.13688  0.29801  1.0000
  C   C89       1.0  0.51460  0.74154  0.05932  1.0000
  C   C90       1.0  0.98540  0.25846  0.55932  1.0000
  C   C91       1.0  0.48540  0.24154  0.44068  1.0000
  C   C92       1.0  0.01460  0.75846  0.94068  1.0000
  C   C93       1.0  0.48540  0.25846  0.94068  1.0000
  C   C94       1.0  0.01460  0.74154  0.44068  1.0000
  C   C95       1.0  0.51460  0.75846  0.55932  1.0000
  C   C96       1.0  0.98540  0.24154  0.05932  1.0000
  C   C97       1.0  0.30998  0.41176  0.42833  1.0000
  C   C98       1.0  0.19002  0.58824  0.92833  1.0000
  C   C99       1.0  0.69002  0.91176  0.07167  1.0000
  C   C100      1.0  0.80998  0.08824  0.57167  1.0000
  C   C101      1.0  0.69002  0.58824  0.57167  1.0000
  C   C102      1.0  0.80998  0.41176  0.07167  1.0000
  C   C103      1.0  0.30998  0.08824  0.92833  1.0000
  C   C104      1.0  0.19002  0.91176  0.42833  1.0000
  C   C105      1.0  0.32996  0.34069  0.42204  1.0000
  C   C106      1.0  0.17004  0.65931  0.92204  1.0000
  C   C107      1.0  0.67004  0.84069  0.07796  1.0000
  C   C108      1.0  0.82996  0.15931  0.57796  1.0000
  C   C109      1.0  0.67004  0.65931  0.57796  1.0000
  C   C110      1.0  0.82996  0.34069  0.07796  1.0000
  C   C111      1.0  0.32996  0.15931  0.92204  1.0000
  C   C112      1.0  0.17004  0.84069  0.42204  1.0000
  H   H65       1.0  0.37850  0.32930  0.41830  1.0000
  H   H66       1.0  0.12150  0.67070  0.91830  1.0000
  H   H67       1.0  0.62150  0.82930  0.08170  1.0000
  H   H68       1.0  0.87850  0.17070  0.58170  1.0000
  H   H69       1.0  0.62150  0.67070  0.58170  1.0000
  H   H70       1.0  0.87850  0.32930  0.08170  1.0000
  H   H71       1.0  0.37850  0.17070  0.91830  1.0000
  H   H72       1.0  0.12150  0.82930  0.41830  1.0000
  C   C113      1.0  0.27939  0.28492  0.42107  1.0000
  C   C114      1.0  0.22061  0.71508  0.92107  1.0000
  C   C115      1.0  0.72061  0.78492  0.07893  1.0000
  C   C116      1.0  0.77939  0.21508  0.57893  1.0000
  C   C117      1.0  0.72061  0.71508  0.57893  1.0000
  C   C118      1.0  0.77939  0.28492  0.07893  1.0000
  C   C119      1.0  0.27939  0.21508  0.92107  1.0000
  C   C120      1.0  0.22061  0.78492  0.42107  1.0000
  H   H73       1.0  0.29480  0.23710  0.41640  1.0000
  H   H74       1.0  0.20520  0.76290  0.91640  1.0000
  H   H75       1.0  0.70520  0.73710  0.08360  1.0000
  H   H76       1.0  0.79480  0.26290  0.58360  1.0000
  H   H77       1.0  0.70520  0.76290  0.58360  1.0000
  H   H78       1.0  0.79480  0.23710  0.08360  1.0000
  H   H79       1.0  0.29480  0.26290  0.91640  1.0000
  H   H80       1.0  0.20520  0.73710  0.41640  1.0000
  C   C121      1.0  0.20762  0.29899  0.42677  1.0000
  C   C122      1.0  0.29238  0.70101  0.92677  1.0000
  C   C123      1.0  0.79238  0.79899  0.07323  1.0000
  C   C124      1.0  0.70762  0.20101  0.57323  1.0000
  C   C125      1.0  0.79238  0.70101  0.57323  1.0000
  C   C126      1.0  0.70762  0.29899  0.07323  1.0000
  C   C127      1.0  0.20762  0.20101  0.92677  1.0000
  C   C128      1.0  0.29238  0.79899  0.42677  1.0000
  C   C129      1.0  0.18383  0.37195  0.43579  1.0000
  C   C130      1.0  0.31617  0.62805  0.93579  1.0000
  C   C131      1.0  0.81617  0.87195  0.06421  1.0000
  C   C132      1.0  0.68383  0.12805  0.56421  1.0000
  C   C133      1.0  0.81617  0.62805  0.56421  1.0000
  C   C134      1.0  0.68383  0.37195  0.06421  1.0000
  C   C135      1.0  0.18383  0.12805  0.93579  1.0000
  C   C136      1.0  0.31617  0.87195  0.43579  1.0000
  C   C137      1.0  0.11068  0.39140  0.44486  1.0000
  C   C138      1.0  0.38932  0.60860  0.94486  1.0000
  C   C139      1.0  0.88932  0.89140  0.05514  1.0000
  C   C140      1.0  0.61068  0.10860  0.55514  1.0000
  C   C141      1.0  0.88932  0.60860  0.55514  1.0000
  C   C142      1.0  0.61068  0.39140  0.05514  1.0000
  C   C143      1.0  0.11068  0.10860  0.94486  1.0000
  C   C144      1.0  0.38932  0.89140  0.44486  1.0000
  H   H81       1.0  0.07550  0.35540  0.44330  1.0000
  H   H82       1.0  0.42450  0.64460  0.94330  1.0000
  H   H83       1.0  0.92450  0.85540  0.05670  1.0000
  H   H84       1.0  0.57550  0.14460  0.55670  1.0000
  H   H85       1.0  0.92450  0.64460  0.55670  1.0000
  H   H86       1.0  0.57550  0.35540  0.05670  1.0000
  H   H87       1.0  0.07550  0.14460  0.94330  1.0000
  H   H88       1.0  0.42450  0.85540  0.44330  1.0000
  C   C145      1.0  0.09090  0.46110  0.45570  1.0000
  C   C146      1.0  0.40910  0.53890  0.95570  1.0000
  C   C147      1.0  0.90910  0.96110  0.04430  1.0000
  C   C148      1.0  0.59090  0.03890  0.54430  1.0000
  C   C149      1.0  0.90910  0.53890  0.54430  1.0000
  C   C150      1.0  0.59090  0.46110  0.04430  1.0000
  C   C151      1.0  0.09090  0.03890  0.95570  1.0000
  C   C152      1.0  0.40910  0.96110  0.45570  1.0000
  H   H89       1.0  0.04260  0.47210  0.46160  1.0000
  H   H90       1.0  0.45740  0.52790  0.96160  1.0000
  H   H91       1.0  0.95740  0.97210  0.03840  1.0000
  H   H92       1.0  0.54260  0.02790  0.53840  1.0000
  H   H93       1.0  0.95740  0.52790  0.53840  1.0000
  H   H94       1.0  0.54260  0.47210  0.03840  1.0000
  H   H95       1.0  0.04260  0.02790  0.96160  1.0000
  H   H96       1.0  0.45740  0.97210  0.46160  1.0000
  C   C153      1.0  0.14190  0.51630  0.45795  1.0000
  C   C154      1.0  0.35810  0.48370  0.95795  1.0000
  C   C155      1.0  0.85810  0.01630  0.04205  1.0000
  C   C156      1.0  0.64190  0.98370  0.54205  1.0000
  C   C157      1.0  0.85810  0.48370  0.54205  1.0000
  C   C158      1.0  0.64190  0.51630  0.04205  1.0000
  C   C159      1.0  0.14190  0.98370  0.95795  1.0000
  C   C160      1.0  0.35810  0.01630  0.45795  1.0000
  H   H97       1.0  0.12760  0.56370  0.46600  1.0000
  H   H98       1.0  0.37240  0.43630  0.96600  1.0000
  H   H99       1.0  0.87240  0.06370  0.03400  1.0000
  H   H100      1.0  0.62760  0.93630  0.53400  1.0000
  H   H101      1.0  0.87240  0.43630  0.53400  1.0000
  H   H102      1.0  0.62760  0.56370  0.03400  1.0000
  H   H103      1.0  0.12760  0.93630  0.96600  1.0000
  H   H104      1.0  0.37240  0.06370  0.46600  1.0000
  C   C161      1.0  0.21250  0.50133  0.44850  1.0000
  C   C162      1.0  0.28750  0.49867  0.94850  1.0000
  C   C163      1.0  0.78750  0.00133  0.05150  1.0000
  C   C164      1.0  0.71250  0.99867  0.55150  1.0000
  C   C165      1.0  0.78750  0.49867  0.55150  1.0000
  C   C166      1.0  0.71250  0.50133  0.05150  1.0000
  C   C167      1.0  0.21250  0.99867  0.94850  1.0000
  C   C168      1.0  0.28750  0.00133  0.44850  1.0000
  H   H105      1.0  0.24600  0.53890  0.44960  1.0000
  H   H106      1.0  0.25400  0.46110  0.94960  1.0000
  H   H107      1.0  0.75400  0.03890  0.05040  1.0000
  H   H108      1.0  0.74600  0.96110  0.55040  1.0000
  H   H109      1.0  0.75400  0.46110  0.55040  1.0000
  H   H110      1.0  0.74600  0.53890  0.05040  1.0000
  H   H111      1.0  0.24600  0.96110  0.94960  1.0000
  H   H112      1.0  0.25400  0.03890  0.44960  1.0000
  C   C169      1.0  0.23603  0.42931  0.43692  1.0000
  C   C170      1.0  0.26397  0.57069  0.93692  1.0000
  C   C171      1.0  0.76397  0.92931  0.06308  1.0000
  C   C172      1.0  0.73603  0.07069  0.56308  1.0000
  C   C173      1.0  0.76397  0.57069  0.56308  1.0000
  C   C174      1.0  0.73603  0.42931  0.06308  1.0000
  C   C175      1.0  0.23603  0.07069  0.93692  1.0000
  C   C176      1.0  0.26397  0.92931  0.43692  1.0000
  C   C177      1.0  0.36927  0.46711  0.42471  1.0000
  C   C178      1.0  0.13073  0.53289  0.92471  1.0000
  C   C179      1.0  0.63073  0.96711  0.07529  1.0000
  C   C180      1.0  0.86927  0.03289  0.57529  1.0000
  C   C181      1.0  0.63073  0.53289  0.57529  1.0000
  C   C182      1.0  0.86927  0.46711  0.07529  1.0000
  C   C183      1.0  0.36927  0.03289  0.92471  1.0000
  C   C184      1.0  0.13073  0.96711  0.42471  1.0000
  C   C185      1.0  0.15780  0.23390  0.42264  1.0000
  C   C186      1.0  0.34220  0.76610  0.92264  1.0000
  C   C187      1.0  0.84220  0.73390  0.07736  1.0000
  C   C188      1.0  0.65780  0.26610  0.57736  1.0000
  C   C189      1.0  0.84220  0.76610  0.57736  1.0000
  C   C190      1.0  0.65780  0.23390  0.07736  1.0000
  C   C191      1.0  0.15780  0.26610  0.92264  1.0000
  C   C192      1.0  0.34220  0.73390  0.42264  1.0000
  C   C193      1.0  0.70022  0.40657  0.42217  1.0000
  C   C194      1.0  0.79978  0.59343  0.92217  1.0000
  C   C195      1.0  0.29978  0.90657  0.07783  1.0000
  C   C196      1.0  0.20022  0.09343  0.57783  1.0000
  C   C197      1.0  0.29978  0.59343  0.57783  1.0000
  C   C198      1.0  0.20022  0.40657  0.07783  1.0000
  C   C199      1.0  0.70022  0.09343  0.92217  1.0000
  C   C200      1.0  0.79978  0.90657  0.42217  1.0000
  C   C201      1.0  0.68225  0.33546  0.43252  1.0000
  C   C202      1.0  0.81775  0.66454  0.93252  1.0000
  C   C203      1.0  0.31775  0.83546  0.06748  1.0000
  C   C204      1.0  0.18225  0.16454  0.56748  1.0000
  C   C205      1.0  0.31775  0.66454  0.56748  1.0000
  C   C206      1.0  0.18225  0.33546  0.06748  1.0000
  C   C207      1.0  0.68225  0.16454  0.93252  1.0000
  C   C208      1.0  0.81775  0.83546  0.43252  1.0000
  H   H113      1.0  0.63550  0.32420  0.44390  1.0000
  H   H114      1.0  0.86450  0.67580  0.94390  1.0000
  H   H115      1.0  0.36450  0.82420  0.05610  1.0000
  H   H116      1.0  0.13550  0.17580  0.55610  1.0000
  H   H117      1.0  0.36450  0.67580  0.55610  1.0000
  H   H118      1.0  0.13550  0.32420  0.05610  1.0000
  H   H119      1.0  0.63550  0.17580  0.94390  1.0000
  H   H120      1.0  0.86450  0.82420  0.44390  1.0000
  C   C209      1.0  0.73225  0.27965  0.42637  1.0000
  C   C210      1.0  0.76775  0.72035  0.92637  1.0000
  C   C211      1.0  0.26775  0.77965  0.07363  1.0000
  C   C212      1.0  0.23225  0.22035  0.57363  1.0000
  C   C213      1.0  0.26775  0.72035  0.57363  1.0000
  C   C214      1.0  0.23225  0.27965  0.07363  1.0000
  C   C215      1.0  0.73225  0.22035  0.92637  1.0000
  C   C216      1.0  0.76775  0.77965  0.42637  1.0000
  H   H121      1.0  0.71790  0.23170  0.43220  1.0000
  H   H122      1.0  0.78210  0.76830  0.93220  1.0000
  H   H123      1.0  0.28210  0.73170  0.06780  1.0000
  H   H124      1.0  0.21790  0.26830  0.56780  1.0000
  H   H125      1.0  0.28210  0.76830  0.56780  1.0000
  H   H126      1.0  0.21790  0.23170  0.06780  1.0000
  H   H127      1.0  0.71790  0.26830  0.93220  1.0000
  H   H128      1.0  0.78210  0.73170  0.43220  1.0000
  C   C217      1.0  0.80218  0.29433  0.41191  1.0000
  C   C218      1.0  0.69782  0.70567  0.91191  1.0000
  C   C219      1.0  0.19782  0.79433  0.08809  1.0000
  C   C220      1.0  0.30218  0.20567  0.58809  1.0000
  C   C221      1.0  0.19782  0.70567  0.58809  1.0000
  C   C222      1.0  0.30218  0.29433  0.08809  1.0000
  C   C223      1.0  0.80218  0.20567  0.91191  1.0000
  C   C224      1.0  0.69782  0.79433  0.41191  1.0000
  C   C225      1.0  0.82442  0.36708  0.40144  1.0000
  C   C226      1.0  0.67558  0.63292  0.90144  1.0000
  C   C227      1.0  0.17558  0.86708  0.09856  1.0000
  C   C228      1.0  0.32442  0.13292  0.59856  1.0000
  C   C229      1.0  0.17558  0.63292  0.59856  1.0000
  C   C230      1.0  0.32442  0.36708  0.09856  1.0000
  C   C231      1.0  0.82442  0.13292  0.90144  1.0000
  C   C232      1.0  0.67558  0.86708  0.40144  1.0000
  C   C233      1.0  0.89543  0.38580  0.38438  1.0000
  C   C234      1.0  0.60457  0.61420  0.88438  1.0000
  C   C235      1.0  0.10457  0.88580  0.11562  1.0000
  C   C236      1.0  0.39543  0.11420  0.61562  1.0000
  C   C237      1.0  0.10457  0.61420  0.61562  1.0000
  C   C238      1.0  0.39543  0.38580  0.11562  1.0000
  C   C239      1.0  0.89543  0.11420  0.88438  1.0000
  C   C240      1.0  0.60457  0.88580  0.38438  1.0000
  H   H129      1.0  0.92960  0.34930  0.38010  1.0000
  H   H130      1.0  0.57040  0.65070  0.88010  1.0000
  H   H131      1.0  0.07040  0.84930  0.11990  1.0000
  H   H132      1.0  0.42960  0.15070  0.61990  1.0000
  H   H133      1.0  0.07040  0.65070  0.61990  1.0000
  H   H134      1.0  0.42960  0.34930  0.11990  1.0000
  H   H135      1.0  0.92960  0.15070  0.88010  1.0000
  H   H136      1.0  0.57040  0.84930  0.38010  1.0000
  C   C241      1.0  0.91440  0.45570  0.37420  1.0000
  C   C242      1.0  0.58560  0.54430  0.87420  1.0000
  C   C243      1.0  0.08560  0.95570  0.12580  1.0000
  C   C244      1.0  0.41440  0.04430  0.62580  1.0000
  C   C245      1.0  0.08560  0.54430  0.62580  1.0000
  C   C246      1.0  0.41440  0.45570  0.12580  1.0000
  C   C247      1.0  0.91440  0.04430  0.87420  1.0000
  C   C248      1.0  0.58560  0.95570  0.37420  1.0000
  H   H137      1.0  0.96100  0.46640  0.36200  1.0000
  H   H138      1.0  0.53900  0.53360  0.86200  1.0000
  H   H139      1.0  0.03900  0.96640  0.13800  1.0000
  H   H140      1.0  0.46100  0.03360  0.63800  1.0000
  H   H141      1.0  0.03900  0.53360  0.63800  1.0000
  H   H142      1.0  0.46100  0.46640  0.13800  1.0000
  H   H143      1.0  0.96100  0.03360  0.86200  1.0000
  H   H144      1.0  0.53900  0.96640  0.36200  1.0000
  C   C249      1.0  0.86490  0.51200  0.38170  1.0000
  C   C250      1.0  0.63510  0.48800  0.88170  1.0000
  C   C251      1.0  0.13510  0.01200  0.11830  1.0000
  C   C252      1.0  0.36490  0.98800  0.61830  1.0000
  C   C253      1.0  0.13510  0.48800  0.61830  1.0000
  C   C254      1.0  0.36490  0.51200  0.11830  1.0000
  C   C255      1.0  0.86490  0.98800  0.88170  1.0000
  C   C256      1.0  0.63510  0.01200  0.38170  1.0000
  H   H145      1.0  0.87930  0.56000  0.37580  1.0000
  H   H146      1.0  0.62070  0.44000  0.87580  1.0000
  H   H147      1.0  0.12070  0.06000  0.12420  1.0000
  H   H148      1.0  0.37930  0.94000  0.62420  1.0000
  H   H149      1.0  0.12070  0.44000  0.62420  1.0000
  H   H150      1.0  0.37930  0.56000  0.12420  1.0000
  H   H151      1.0  0.87930  0.94000  0.87580  1.0000
  H   H152      1.0  0.62070  0.06000  0.37580  1.0000
  C   C257      1.0  0.79580  0.49748  0.39744  1.0000
  C   C258      1.0  0.70420  0.50252  0.89744  1.0000
  C   C259      1.0  0.20420  0.99748  0.10256  1.0000
  C   C260      1.0  0.29580  0.00252  0.60256  1.0000
  C   C261      1.0  0.20420  0.50252  0.60256  1.0000
  C   C262      1.0  0.29580  0.49748  0.10256  1.0000
  C   C263      1.0  0.79580  0.00252  0.89744  1.0000
  C   C264      1.0  0.70420  0.99748  0.39744  1.0000
  H   H153      1.0  0.76350  0.53560  0.40240  1.0000
  H   H154      1.0  0.73650  0.46440  0.90240  1.0000
  H   H155      1.0  0.23650  0.03560  0.09760  1.0000
  H   H156      1.0  0.26350  0.96440  0.59760  1.0000
  H   H157      1.0  0.23650  0.46440  0.59760  1.0000
  H   H158      1.0  0.26350  0.53560  0.09760  1.0000
  H   H159      1.0  0.76350  0.96440  0.90240  1.0000
  H   H160      1.0  0.73650  0.03560  0.40240  1.0000
  C   C265      1.0  0.77255  0.42491  0.40633  1.0000
  C   C266      1.0  0.72745  0.57509  0.90633  1.0000
  C   C267      1.0  0.22745  0.92491  0.09367  1.0000
  C   C268      1.0  0.27255  0.07509  0.59367  1.0000
  C   C269      1.0  0.22745  0.57509  0.59367  1.0000
  C   C270      1.0  0.27255  0.42491  0.09367  1.0000
  C   C271      1.0  0.77255  0.07509  0.90633  1.0000
  C   C272      1.0  0.72745  0.92491  0.40633  1.0000
  C   C273      1.0  0.64108  0.46191  0.42731  1.0000
  C   C274      1.0  0.85892  0.53809  0.92731  1.0000
  C   C275      1.0  0.35892  0.96191  0.07269  1.0000
  C   C276      1.0  0.14108  0.03809  0.57269  1.0000
  C   C277      1.0  0.35892  0.53809  0.57269  1.0000
  C   C278      1.0  0.14108  0.46191  0.07269  1.0000
  C   C279      1.0  0.64108  0.03809  0.92731  1.0000
  C   C280      1.0  0.85892  0.96191  0.42731  1.0000
  C   C281      1.0  0.85340  0.23117  0.41029  1.0000
  C   C282      1.0  0.64660  0.76883  0.91029  1.0000
  C   C283      1.0  0.14660  0.73117  0.08971  1.0000
  C   C284      1.0  0.35340  0.26883  0.58971  1.0000
  C   C285      1.0  0.14660  0.76883  0.58971  1.0000
  C   C286      1.0  0.35340  0.23117  0.08971  1.0000
  C   C287      1.0  0.85340  0.26883  0.91029  1.0000
  C   C288      1.0  0.64660  0.73117  0.41029  1.0000
