data_image0
_chemical_formula_structural       Y24O4H4O8H8O4H4O4H4O4H4O8H8O72H16O8C8H8C16H8C16H8C8O8H8C16O8C24H8C8H8C16H8C8H8C24H8C16H8C16H8C16H8C8H8C16H8C8H8C4H4C4H4
_chemical_formula_sum              "Y24 O128 H176 C232"
_cell_length_a       25.004
_cell_length_b       27.689
_cell_length_c       14.0884
_cell_angle_alpha    90
_cell_angle_beta     90
_cell_angle_gamma    90

_space_group_name_H-M_alt    "P 1"
_space_group_IT_number       1

loop_
  _space_group_symop_operation_xyz
  'x, y, z'

loop_
  _atom_site_type_symbol
  _atom_site_label
  _atom_site_symmetry_multiplicity
  _atom_site_fract_x
  _atom_site_fract_y
  _atom_site_fract_z
  _atom_site_occupancy
  Y   Y1        1.0  0.91181  0.75000  0.77024  1.0000
  Y   Y2        1.0  0.58819  0.25000  0.27024  1.0000
  Y   Y3        1.0  0.08819  0.25000  0.22976  1.0000
  Y   Y4        1.0  0.41181  0.75000  0.72976  1.0000
  Y   Y5        1.0  0.61863  0.75000  0.82899  1.0000
  Y   Y6        1.0  0.88137  0.25000  0.32899  1.0000
  Y   Y7        1.0  0.38137  0.25000  0.17101  1.0000
  Y   Y8        1.0  0.11863  0.75000  0.67101  1.0000
  Y   Y9        1.0  0.53242  0.67926  0.64671  1.0000
  Y   Y10       1.0  0.96758  0.32074  0.14671  1.0000
  Y   Y11       1.0  0.46758  0.17926  0.35329  1.0000
  Y   Y12       1.0  0.03242  0.82074  0.85329  1.0000
  Y   Y13       1.0  0.46758  0.32074  0.35329  1.0000
  Y   Y14       1.0  0.03242  0.67926  0.85329  1.0000
  Y   Y15       1.0  0.53242  0.82074  0.64671  1.0000
  Y   Y16       1.0  0.96758  0.17926  0.14671  1.0000
  Y   Y17       1.0  0.50783  0.31928  0.08136  1.0000
  Y   Y18       1.0  0.99217  0.68072  0.58136  1.0000
  Y   Y19       1.0  0.49217  0.81928  0.91864  1.0000
  Y   Y20       1.0  0.00783  0.18072  0.41864  1.0000
  Y   Y21       1.0  0.49217  0.68072  0.91864  1.0000
  Y   Y22       1.0  0.00783  0.31928  0.41864  1.0000
  Y   Y23       1.0  0.50783  0.18072  0.08136  1.0000
  Y   Y24       1.0  0.99217  0.81928  0.58136  1.0000
  O   O1        1.0  0.98330  0.75000  0.86910  1.0000
  O   O2        1.0  0.51670  0.25000  0.36910  1.0000
  O   O3        1.0  0.01670  0.25000  0.13090  1.0000
  O   O4        1.0  0.48330  0.75000  0.63090  1.0000
  H   H1        1.0  0.96877  0.75000  0.93452  1.0000
  H   H2        1.0  0.53123  0.25000  0.43452  1.0000
  H   H3        1.0  0.03123  0.25000  0.06548  1.0000
  H   H4        1.0  0.46877  0.75000  0.56548  1.0000
  O   O5        1.0  0.46950  0.68690  0.75930  1.0000
  O   O6        1.0  0.03050  0.31310  0.25930  1.0000
  O   O7        1.0  0.53050  0.18690  0.24070  1.0000
  O   O8        1.0  0.96950  0.81310  0.74070  1.0000
  O   O9        1.0  0.53050  0.31310  0.24070  1.0000
  O   O10       1.0  0.96950  0.68690  0.74070  1.0000
  O   O11       1.0  0.46950  0.81310  0.75930  1.0000
  O   O12       1.0  0.03050  0.18690  0.25930  1.0000
  H   H5        1.0  0.44670  0.65814  0.74898  1.0000
  H   H6        1.0  0.05330  0.34186  0.24898  1.0000
  H   H7        1.0  0.55330  0.15814  0.25102  1.0000
  H   H8        1.0  0.94670  0.84186  0.75102  1.0000
  H   H9        1.0  0.55330  0.34186  0.25102  1.0000
  H   H10       1.0  0.94670  0.65814  0.75102  1.0000
  H   H11       1.0  0.44670  0.84186  0.74898  1.0000
  H   H12       1.0  0.05330  0.15814  0.24898  1.0000
  O   O13       1.0  0.45350  0.25000  0.05990  1.0000
  O   O14       1.0  0.04650  0.75000  0.55990  1.0000
  O   O15       1.0  0.54650  0.75000  0.94010  1.0000
  O   O16       1.0  0.95350  0.25000  0.44010  1.0000
  H   H13       1.0  0.43891  0.25000  0.99454  1.0000
  H   H14       1.0  0.06109  0.75000  0.49454  1.0000
  H   H15       1.0  0.56109  0.75000  0.00546  1.0000
  H   H16       1.0  0.93891  0.25000  0.50546  1.0000
  O   O17       1.0  0.55060  0.25000  0.11780  1.0000
  O   O18       1.0  0.94940  0.75000  0.61780  1.0000
  O   O19       1.0  0.44940  0.75000  0.88220  1.0000
  O   O20       1.0  0.05060  0.25000  0.38220  1.0000
  H   H17       1.0  0.58202  0.25000  0.07513  1.0000
  H   H18       1.0  0.91798  0.75000  0.57513  1.0000
  H   H19       1.0  0.41798  0.75000  0.92487  1.0000
  H   H20       1.0  0.08202  0.25000  0.42487  1.0000
  O   O21       1.0  0.57620  0.75000  0.68580  1.0000
  O   O22       1.0  0.92380  0.25000  0.18580  1.0000
  O   O23       1.0  0.42380  0.25000  0.31420  1.0000
  O   O24       1.0  0.07620  0.75000  0.81420  1.0000
  H   H21       1.0  0.60662  0.75000  0.64075  1.0000
  H   H22       1.0  0.89338  0.25000  0.14075  1.0000
  H   H23       1.0  0.39338  0.25000  0.35925  1.0000
  H   H24       1.0  0.10662  0.75000  0.85925  1.0000
  O   O25       1.0  0.43750  0.31610  0.18450  1.0000
  O   O26       1.0  0.06250  0.68390  0.68450  1.0000
  O   O27       1.0  0.56250  0.81610  0.81550  1.0000
  O   O28       1.0  0.93750  0.18390  0.31550  1.0000
  O   O29       1.0  0.56250  0.68390  0.81550  1.0000
  O   O30       1.0  0.93750  0.31610  0.31550  1.0000
  O   O31       1.0  0.43750  0.18390  0.18450  1.0000
  O   O32       1.0  0.06250  0.81610  0.68450  1.0000
  H   H25       1.0  0.41541  0.34508  0.17241  1.0000
  H   H26       1.0  0.08459  0.65492  0.67241  1.0000
  H   H27       1.0  0.58459  0.84508  0.82759  1.0000
  H   H28       1.0  0.91541  0.15492  0.32759  1.0000
  H   H29       1.0  0.58459  0.65492  0.82759  1.0000
  H   H30       1.0  0.91541  0.34508  0.32759  1.0000
  H   H31       1.0  0.41541  0.15492  0.17241  1.0000
  H   H32       1.0  0.08459  0.84508  0.67241  1.0000
  O   O33       1.0  0.50140  0.39590  0.13470  1.0000
  O   O34       1.0  0.99860  0.60410  0.63470  1.0000
  O   O35       1.0  0.49860  0.89590  0.86530  1.0000
  O   O36       1.0  0.00140  0.10410  0.36530  1.0000
  O   O37       1.0  0.49860  0.60410  0.86530  1.0000
  O   O38       1.0  0.00140  0.39590  0.36530  1.0000
  O   O39       1.0  0.50140  0.10410  0.13470  1.0000
  O   O40       1.0  0.99860  0.89590  0.63470  1.0000
  O   O41       1.0  0.88380  0.69570  0.88230  1.0000
  O   O42       1.0  0.61620  0.30430  0.38230  1.0000
  O   O43       1.0  0.11620  0.19570  0.11770  1.0000
  O   O44       1.0  0.38380  0.80430  0.61770  1.0000
  O   O45       1.0  0.11620  0.30430  0.11770  1.0000
  O   O46       1.0  0.38380  0.69570  0.61770  1.0000
  O   O47       1.0  0.88380  0.80430  0.88230  1.0000
  O   O48       1.0  0.61620  0.19570  0.38230  1.0000
  O   O49       1.0  0.67190  0.69830  0.74420  1.0000
  O   O50       1.0  0.82810  0.30170  0.24420  1.0000
  O   O51       1.0  0.32810  0.19830  0.25580  1.0000
  O   O52       1.0  0.17190  0.80170  0.75580  1.0000
  O   O53       1.0  0.32810  0.30170  0.25580  1.0000
  O   O54       1.0  0.17190  0.69830  0.75580  1.0000
  O   O55       1.0  0.67190  0.80170  0.74420  1.0000
  O   O56       1.0  0.82810  0.19830  0.24420  1.0000
  O   O57       1.0  0.61920  0.65450  0.64270  1.0000
  O   O58       1.0  0.88080  0.34550  0.14270  1.0000
  O   O59       1.0  0.38080  0.15450  0.35730  1.0000
  O   O60       1.0  0.11920  0.84550  0.85730  1.0000
  O   O61       1.0  0.38080  0.34550  0.35730  1.0000
  O   O62       1.0  0.11920  0.65450  0.85730  1.0000
  O   O63       1.0  0.61920  0.84550  0.64270  1.0000
  O   O64       1.0  0.88080  0.15450  0.14270  1.0000
  O   O65       1.0  0.48270  0.39510  0.29180  1.0000
  O   O66       1.0  0.01730  0.60490  0.79180  1.0000
  O   O67       1.0  0.51730  0.89510  0.70820  1.0000
  O   O68       1.0  0.98270  0.10490  0.20820  1.0000
  O   O69       1.0  0.51730  0.60490  0.70820  1.0000
  O   O70       1.0  0.98270  0.39510  0.20820  1.0000
  O   O71       1.0  0.48270  0.10490  0.29180  1.0000
  O   O72       1.0  0.01730  0.89510  0.79180  1.0000
  O   O73       1.0  0.86010  0.69750  0.68860  1.0000
  O   O74       1.0  0.63990  0.30250  0.18860  1.0000
  O   O75       1.0  0.13990  0.19750  0.31140  1.0000
  O   O76       1.0  0.36010  0.80250  0.81140  1.0000
  O   O77       1.0  0.13990  0.30250  0.31140  1.0000
  O   O78       1.0  0.36010  0.69750  0.81140  1.0000
  O   O79       1.0  0.86010  0.80250  0.68860  1.0000
  O   O80       1.0  0.63990  0.19750  0.18860  1.0000
  O   O81       1.0  0.90120  0.65720  0.57490  1.0000
  O   O82       1.0  0.59880  0.34280  0.07490  1.0000
  O   O83       1.0  0.09880  0.15720  0.42510  1.0000
  O   O84       1.0  0.40120  0.84280  0.92510  1.0000
  O   O85       1.0  0.09880  0.34280  0.42510  1.0000
  O   O86       1.0  0.40120  0.65720  0.92510  1.0000
  O   O87       1.0  0.90120  0.84280  0.57490  1.0000
  O   O88       1.0  0.59880  0.15720  0.07490  1.0000
  O   O89       1.0  0.95690  0.65700  0.93780  1.0000
  O   O90       1.0  0.54310  0.34300  0.43780  1.0000
  O   O91       1.0  0.04310  0.15700  0.06220  1.0000
  O   O92       1.0  0.45690  0.84300  0.56220  1.0000
  O   O93       1.0  0.04310  0.34300  0.06220  1.0000
  O   O94       1.0  0.45690  0.65700  0.56220  1.0000
  O   O95       1.0  0.95690  0.84300  0.93780  1.0000
  O   O96       1.0  0.54310  0.15700  0.43780  1.0000
  O   O97       1.0  0.65930  0.70140  0.93970  1.0000
  O   O98       1.0  0.84070  0.29860  0.43970  1.0000
  O   O99       1.0  0.34070  0.20140  0.06030  1.0000
  O   O100      1.0  0.15930  0.79860  0.56030  1.0000
  O   O101      1.0  0.34070  0.29860  0.06030  1.0000
  O   O102      1.0  0.15930  0.70140  0.56030  1.0000
  O   O103      1.0  0.65930  0.79860  0.93970  1.0000
  O   O104      1.0  0.84070  0.20140  0.43970  1.0000
  H   H33       1.0  0.63538  0.68019  0.96685  1.0000
  H   H34       1.0  0.86462  0.31981  0.46685  1.0000
  H   H35       1.0  0.36462  0.18019  0.03315  1.0000
  H   H36       1.0  0.13538  0.81981  0.53315  1.0000
  H   H37       1.0  0.36462  0.31981  0.03315  1.0000
  H   H38       1.0  0.13538  0.68019  0.53315  1.0000
  H   H39       1.0  0.63538  0.81981  0.96685  1.0000
  H   H40       1.0  0.86462  0.18019  0.46685  1.0000
  H   H41       1.0  0.67100  0.71837  0.99245  1.0000
  H   H42       1.0  0.82900  0.28163  0.49245  1.0000
  H   H43       1.0  0.32900  0.21837  0.00755  1.0000
  H   H44       1.0  0.17100  0.78163  0.50755  1.0000
  H   H45       1.0  0.32900  0.28163  0.00755  1.0000
  H   H46       1.0  0.17100  0.71837  0.50755  1.0000
  H   H47       1.0  0.67100  0.78163  0.99245  1.0000
  H   H48       1.0  0.82900  0.21837  0.49245  1.0000
  O   O105      1.0  0.55460  0.70090  0.49360  1.0000
  O   O106      1.0  0.94540  0.29910  0.99360  1.0000
  O   O107      1.0  0.44540  0.20090  0.50640  1.0000
  O   O108      1.0  0.05460  0.79910  0.00640  1.0000
  O   O109      1.0  0.44540  0.29910  0.50640  1.0000
  O   O110      1.0  0.05460  0.70090  0.00640  1.0000
  O   O111      1.0  0.55460  0.79910  0.49360  1.0000
  O   O112      1.0  0.94540  0.20090  0.99360  1.0000
  C   C1        1.0  0.70300  0.62940  0.53300  1.0000
  C   C2        1.0  0.79700  0.37060  0.03300  1.0000
  C   C3        1.0  0.29700  0.12940  0.46700  1.0000
  C   C4        1.0  0.20300  0.87060  0.96700  1.0000
  C   C5        1.0  0.29700  0.37060  0.46700  1.0000
  C   C6        1.0  0.20300  0.62940  0.96700  1.0000
  C   C7        1.0  0.70300  0.87060  0.53300  1.0000
  C   C8        1.0  0.79700  0.12940  0.03300  1.0000
  H   H49       1.0  0.66823  0.62111  0.51354  1.0000
  H   H50       1.0  0.83177  0.37889  0.01354  1.0000
  H   H51       1.0  0.33177  0.12111  0.48646  1.0000
  H   H52       1.0  0.16823  0.87889  0.98646  1.0000
  H   H53       1.0  0.33177  0.37889  0.48646  1.0000
  H   H54       1.0  0.16823  0.62111  0.98646  1.0000
  H   H55       1.0  0.66823  0.87889  0.51354  1.0000
  H   H56       1.0  0.83177  0.12111  0.01354  1.0000
  C   C9        1.0  0.71080  0.65460  0.61710  1.0000
  C   C10       1.0  0.78920  0.34540  0.11710  1.0000
  C   C11       1.0  0.28920  0.15460  0.38290  1.0000
  C   C12       1.0  0.21080  0.84540  0.88290  1.0000
  C   C13       1.0  0.28920  0.34540  0.38290  1.0000
  C   C14       1.0  0.21080  0.65460  0.88290  1.0000
  C   C15       1.0  0.71080  0.84540  0.61710  1.0000
  C   C16       1.0  0.78920  0.15460  0.11710  1.0000
  C   C17       1.0  0.76220  0.66690  0.64590  1.0000
  C   C18       1.0  0.73780  0.33310  0.14590  1.0000
  C   C19       1.0  0.23780  0.16690  0.35410  1.0000
  C   C20       1.0  0.26220  0.83310  0.85410  1.0000
  C   C21       1.0  0.23780  0.33310  0.35410  1.0000
  C   C22       1.0  0.26220  0.66690  0.85410  1.0000
  C   C23       1.0  0.76220  0.83310  0.64590  1.0000
  C   C24       1.0  0.73780  0.16690  0.14590  1.0000
  H   H57       1.0  0.76741  0.68395  0.70278  1.0000
  H   H58       1.0  0.73259  0.31605  0.20278  1.0000
  H   H59       1.0  0.23259  0.18395  0.29722  1.0000
  H   H60       1.0  0.26741  0.81605  0.79722  1.0000
  H   H61       1.0  0.23259  0.31605  0.29722  1.0000
  H   H62       1.0  0.26741  0.68395  0.79722  1.0000
  H   H63       1.0  0.76741  0.81605  0.70278  1.0000
  H   H64       1.0  0.73259  0.18395  0.20278  1.0000
  C   C25       1.0  0.80590  0.65390  0.59050  1.0000
  C   C26       1.0  0.69410  0.34610  0.09050  1.0000
  C   C27       1.0  0.19410  0.15390  0.40950  1.0000
  C   C28       1.0  0.30590  0.84610  0.90950  1.0000
  C   C29       1.0  0.19410  0.34610  0.40950  1.0000
  C   C30       1.0  0.30590  0.65390  0.90950  1.0000
  C   C31       1.0  0.80590  0.84610  0.59050  1.0000
  C   C32       1.0  0.69410  0.15390  0.09050  1.0000
  C   C33       1.0  0.79810  0.62860  0.50630  1.0000
  C   C34       1.0  0.70190  0.37140  0.00630  1.0000
  C   C35       1.0  0.20190  0.12860  0.49370  1.0000
  C   C36       1.0  0.29810  0.87140  0.99370  1.0000
  C   C37       1.0  0.20190  0.37140  0.49370  1.0000
  C   C38       1.0  0.29810  0.62860  0.99370  1.0000
  C   C39       1.0  0.79810  0.87140  0.50630  1.0000
  C   C40       1.0  0.70190  0.12860  0.00630  1.0000
  H   H65       1.0  0.82765  0.61982  0.46882  1.0000
  H   H66       1.0  0.67235  0.38018  0.96882  1.0000
  H   H67       1.0  0.17235  0.11982  0.53118  1.0000
  H   H68       1.0  0.32765  0.88018  0.03118  1.0000
  H   H69       1.0  0.17235  0.38018  0.53118  1.0000
  H   H70       1.0  0.32765  0.61982  0.03118  1.0000
  H   H71       1.0  0.82765  0.88018  0.46882  1.0000
  H   H72       1.0  0.67235  0.11982  0.96882  1.0000
  C   C41       1.0  0.74670  0.61640  0.47760  1.0000
  C   C42       1.0  0.75330  0.38360  0.97760  1.0000
  C   C43       1.0  0.25330  0.11640  0.52240  1.0000
  C   C44       1.0  0.24670  0.88360  0.02240  1.0000
  C   C45       1.0  0.25330  0.38360  0.52240  1.0000
  C   C46       1.0  0.24670  0.61640  0.02240  1.0000
  C   C47       1.0  0.74670  0.88360  0.47760  1.0000
  C   C48       1.0  0.75330  0.11640  0.97760  1.0000
  O   O113      1.0  0.44540  0.35360  0.98300  1.0000
  O   O114      1.0  0.05460  0.64640  0.48300  1.0000
  O   O115      1.0  0.55460  0.85360  0.01700  1.0000
  O   O116      1.0  0.94540  0.14640  0.51700  1.0000
  O   O117      1.0  0.55460  0.64640  0.01700  1.0000
  O   O118      1.0  0.94540  0.35360  0.51700  1.0000
  O   O119      1.0  0.44540  0.14640  0.98300  1.0000
  O   O120      1.0  0.05460  0.85360  0.48300  1.0000
  H   H73       1.0  0.43233  0.33255  0.94811  1.0000
  H   H74       1.0  0.06767  0.66745  0.44811  1.0000
  H   H75       1.0  0.56767  0.83255  0.05189  1.0000
  H   H76       1.0  0.93233  0.16745  0.55189  1.0000
  H   H77       1.0  0.56767  0.66745  0.05189  1.0000
  H   H78       1.0  0.93233  0.33255  0.55189  1.0000
  H   H79       1.0  0.43233  0.16745  0.94811  1.0000
  H   H80       1.0  0.06767  0.83255  0.44811  1.0000
  C   C49       1.0  0.51050  0.41540  0.21800  1.0000
  C   C50       1.0  0.98950  0.58460  0.71800  1.0000
  C   C51       1.0  0.48950  0.91540  0.78200  1.0000
  C   C52       1.0  0.01050  0.08460  0.28200  1.0000
  C   C53       1.0  0.48950  0.58460  0.78200  1.0000
  C   C54       1.0  0.01050  0.41540  0.28200  1.0000
  C   C55       1.0  0.51050  0.08460  0.21800  1.0000
  C   C56       1.0  0.98950  0.91540  0.71800  1.0000
  C   C57       1.0  0.86060  0.67370  0.61470  1.0000
  C   C58       1.0  0.63940  0.32630  0.11470  1.0000
  C   C59       1.0  0.13940  0.17370  0.38530  1.0000
  C   C60       1.0  0.36060  0.82630  0.88530  1.0000
  C   C61       1.0  0.13940  0.32630  0.38530  1.0000
  C   C62       1.0  0.36060  0.67370  0.88530  1.0000
  C   C63       1.0  0.86060  0.82630  0.61470  1.0000
  C   C64       1.0  0.63940  0.17370  0.11470  1.0000
  O   O121      1.0  0.53260  0.29470  0.93110  1.0000
  O   O122      1.0  0.96740  0.70530  0.43110  1.0000
  O   O123      1.0  0.46740  0.79470  0.06890  1.0000
  O   O124      1.0  0.03260  0.20530  0.56890  1.0000
  O   O125      1.0  0.46740  0.70530  0.06890  1.0000
  O   O126      1.0  0.03260  0.29470  0.56890  1.0000
  O   O127      1.0  0.53260  0.20530  0.93110  1.0000
  O   O128      1.0  0.96740  0.79470  0.43110  1.0000
  C   C65       1.0  0.66320  0.67280  0.67260  1.0000
  C   C66       1.0  0.83680  0.32720  0.17260  1.0000
  C   C67       1.0  0.33680  0.17280  0.32740  1.0000
  C   C68       1.0  0.16320  0.82720  0.82740  1.0000
  C   C69       1.0  0.33680  0.32720  0.32740  1.0000
  C   C70       1.0  0.16320  0.67280  0.82740  1.0000
  C   C71       1.0  0.66320  0.82720  0.67260  1.0000
  C   C72       1.0  0.83680  0.17280  0.17260  1.0000
  C   C73       1.0  0.55590  0.44490  0.23350  1.0000
  C   C74       1.0  0.94410  0.55510  0.73350  1.0000
  C   C75       1.0  0.44410  0.94490  0.76650  1.0000
  C   C76       1.0  0.05590  0.05510  0.26650  1.0000
  C   C77       1.0  0.44410  0.55510  0.76650  1.0000
  C   C78       1.0  0.05590  0.44490  0.26650  1.0000
  C   C79       1.0  0.55590  0.05510  0.23350  1.0000
  C   C80       1.0  0.94410  0.94490  0.73350  1.0000
  C   C81       1.0  0.57950  0.44960  0.32230  1.0000
  C   C82       1.0  0.92050  0.55040  0.82230  1.0000
  C   C83       1.0  0.42050  0.94960  0.67770  1.0000
  C   C84       1.0  0.07950  0.05040  0.17770  1.0000
  C   C85       1.0  0.42050  0.55040  0.67770  1.0000
  C   C86       1.0  0.07950  0.44960  0.17770  1.0000
  C   C87       1.0  0.57950  0.05040  0.32230  1.0000
  C   C88       1.0  0.92050  0.94960  0.82230  1.0000
  H   H81       1.0  0.56601  0.43218  0.37428  1.0000
  H   H82       1.0  0.93399  0.56782  0.87428  1.0000
  H   H83       1.0  0.43399  0.93218  0.62572  1.0000
  H   H84       1.0  0.06601  0.06782  0.12572  1.0000
  H   H85       1.0  0.43399  0.56782  0.62572  1.0000
  H   H86       1.0  0.06601  0.43218  0.12572  1.0000
  H   H87       1.0  0.56601  0.06782  0.37428  1.0000
  H   H88       1.0  0.93399  0.93218  0.87428  1.0000
  C   C89       1.0  0.62310  0.48020  0.33430  1.0000
  C   C90       1.0  0.87690  0.51980  0.83430  1.0000
  C   C91       1.0  0.37690  0.98020  0.66570  1.0000
  C   C92       1.0  0.12310  0.01980  0.16570  1.0000
  C   C93       1.0  0.37690  0.51980  0.66570  1.0000
  C   C94       1.0  0.12310  0.48020  0.16570  1.0000
  C   C95       1.0  0.62310  0.01980  0.33430  1.0000
  C   C96       1.0  0.87690  0.98020  0.83430  1.0000
  H   H89       1.0  0.63910  0.48337  0.39432  1.0000
  H   H90       1.0  0.86090  0.51663  0.89432  1.0000
  H   H91       1.0  0.36090  0.98337  0.60568  1.0000
  H   H92       1.0  0.13910  0.01663  0.10568  1.0000
  H   H93       1.0  0.36090  0.51663  0.60568  1.0000
  H   H94       1.0  0.13910  0.48337  0.10568  1.0000
  H   H95       1.0  0.63910  0.01663  0.39432  1.0000
  H   H96       1.0  0.86090  0.98337  0.89432  1.0000
  C   C97       1.0  0.64310  0.50590  0.25740  1.0000
  C   C98       1.0  0.85690  0.49410  0.75740  1.0000
  C   C99       1.0  0.35690  0.00590  0.74260  1.0000
  C   C100      1.0  0.14310  0.99410  0.24260  1.0000
  C   C101      1.0  0.35690  0.49410  0.74260  1.0000
  C   C102      1.0  0.14310  0.50590  0.24260  1.0000
  C   C103      1.0  0.64310  0.99410  0.25740  1.0000
  C   C104      1.0  0.85690  0.00590  0.75740  1.0000
  C   C105      1.0  0.61950  0.50120  0.16860  1.0000
  C   C106      1.0  0.88050  0.49880  0.66860  1.0000
  C   C107      1.0  0.38050  0.00120  0.83140  1.0000
  C   C108      1.0  0.11950  0.99880  0.33140  1.0000
  C   C109      1.0  0.38050  0.49880  0.83140  1.0000
  C   C110      1.0  0.11950  0.50120  0.33140  1.0000
  C   C111      1.0  0.61950  0.99880  0.16860  1.0000
  C   C112      1.0  0.88050  0.00120  0.66860  1.0000
  H   H97       1.0  0.63299  0.51864  0.11659  1.0000
  H   H98       1.0  0.86701  0.48136  0.61659  1.0000
  H   H99       1.0  0.36701  0.01864  0.88341  1.0000
  H   H100      1.0  0.13299  0.98136  0.38341  1.0000
  H   H101      1.0  0.36701  0.48136  0.88341  1.0000
  H   H102      1.0  0.13299  0.51864  0.38341  1.0000
  H   H103      1.0  0.63299  0.98136  0.11659  1.0000
  H   H104      1.0  0.86701  0.01864  0.61659  1.0000
  C   C113      1.0  0.57590  0.47070  0.15660  1.0000
  C   C114      1.0  0.92410  0.52930  0.65660  1.0000
  C   C115      1.0  0.42410  0.97070  0.84340  1.0000
  C   C116      1.0  0.07590  0.02930  0.34340  1.0000
  C   C117      1.0  0.42410  0.52930  0.84340  1.0000
  C   C118      1.0  0.07590  0.47070  0.34340  1.0000
  C   C119      1.0  0.57590  0.02930  0.15660  1.0000
  C   C120      1.0  0.92410  0.97070  0.65660  1.0000
  H   H105      1.0  0.55990  0.46745  0.09655  1.0000
  H   H106      1.0  0.94010  0.53255  0.59655  1.0000
  H   H107      1.0  0.44010  0.96745  0.90345  1.0000
  H   H108      1.0  0.05990  0.03255  0.40345  1.0000
  H   H109      1.0  0.44010  0.53255  0.90345  1.0000
  H   H110      1.0  0.05990  0.46745  0.40345  1.0000
  H   H111      1.0  0.55990  0.03255  0.09655  1.0000
  H   H112      1.0  0.94010  0.96745  0.59655  1.0000
  C   C121      1.0  0.90770  0.66640  0.93360  1.0000
  C   C122      1.0  0.59230  0.33360  0.43360  1.0000
  C   C123      1.0  0.09230  0.16640  0.06640  1.0000
  C   C124      1.0  0.40770  0.83360  0.56640  1.0000
  C   C125      1.0  0.09230  0.33360  0.06640  1.0000
  C   C126      1.0  0.40770  0.66640  0.56640  1.0000
  C   C127      1.0  0.90770  0.83360  0.93360  1.0000
  C   C128      1.0  0.59230  0.16640  0.43360  1.0000
  C   C129      1.0  0.68820  0.54150  0.27480  1.0000
  C   C130      1.0  0.81180  0.45850  0.77480  1.0000
  C   C131      1.0  0.31180  0.04150  0.72520  1.0000
  C   C132      1.0  0.18820  0.95850  0.22520  1.0000
  C   C133      1.0  0.31180  0.45850  0.72520  1.0000
  C   C134      1.0  0.18820  0.54150  0.22520  1.0000
  C   C135      1.0  0.68820  0.95850  0.27480  1.0000
  C   C136      1.0  0.81180  0.04150  0.77480  1.0000
  C   C137      1.0  0.69690  0.56090  0.36440  1.0000
  C   C138      1.0  0.80310  0.43910  0.86440  1.0000
  C   C139      1.0  0.30310  0.06090  0.63560  1.0000
  C   C140      1.0  0.19690  0.93910  0.13560  1.0000
  C   C141      1.0  0.30310  0.43910  0.63560  1.0000
  C   C142      1.0  0.19690  0.56090  0.13560  1.0000
  C   C143      1.0  0.69690  0.93910  0.36440  1.0000
  C   C144      1.0  0.80310  0.06090  0.86440  1.0000
  H   H113      1.0  0.67370  0.55312  0.41469  1.0000
  H   H114      1.0  0.82630  0.44688  0.91469  1.0000
  H   H115      1.0  0.32630  0.05312  0.58531  1.0000
  H   H116      1.0  0.17370  0.94688  0.08531  1.0000
  H   H117      1.0  0.32630  0.44688  0.58531  1.0000
  H   H118      1.0  0.17370  0.55312  0.08531  1.0000
  H   H119      1.0  0.67370  0.94688  0.41469  1.0000
  H   H120      1.0  0.82630  0.05312  0.91469  1.0000
  C   C145      1.0  0.73980  0.59180  0.37970  1.0000
  C   C146      1.0  0.76020  0.40820  0.87970  1.0000
  C   C147      1.0  0.26020  0.09180  0.62030  1.0000
  C   C148      1.0  0.23980  0.90820  0.12030  1.0000
  C   C149      1.0  0.26020  0.40820  0.62030  1.0000
  C   C150      1.0  0.23980  0.59180  0.12030  1.0000
  C   C151      1.0  0.73980  0.90820  0.37970  1.0000
  C   C152      1.0  0.76020  0.09180  0.87970  1.0000
  C   C153      1.0  0.77410  0.60330  0.30540  1.0000
  C   C154      1.0  0.72590  0.39670  0.80540  1.0000
  C   C155      1.0  0.22590  0.10330  0.69460  1.0000
  C   C156      1.0  0.27410  0.89670  0.19460  1.0000
  C   C157      1.0  0.22590  0.39670  0.69460  1.0000
  C   C158      1.0  0.27410  0.60330  0.19460  1.0000
  C   C159      1.0  0.77410  0.89670  0.30540  1.0000
  C   C160      1.0  0.72590  0.10330  0.80540  1.0000
  H   H121      1.0  0.80312  0.62416  0.31571  1.0000
  H   H122      1.0  0.69688  0.37584  0.81571  1.0000
  H   H123      1.0  0.19688  0.12416  0.68429  1.0000
  H   H124      1.0  0.30312  0.87584  0.18429  1.0000
  H   H125      1.0  0.19688  0.37584  0.68429  1.0000
  H   H126      1.0  0.30312  0.62416  0.18429  1.0000
  H   H127      1.0  0.80312  0.87584  0.31571  1.0000
  H   H128      1.0  0.69688  0.12416  0.81571  1.0000
  C   C161      1.0  0.76540  0.58380  0.21570  1.0000
  C   C162      1.0  0.73460  0.41620  0.71570  1.0000
  C   C163      1.0  0.23460  0.08380  0.78430  1.0000
  C   C164      1.0  0.26540  0.91620  0.28430  1.0000
  C   C165      1.0  0.23460  0.41620  0.78430  1.0000
  C   C166      1.0  0.26540  0.58380  0.28430  1.0000
  C   C167      1.0  0.76540  0.91620  0.21570  1.0000
  C   C168      1.0  0.73460  0.08380  0.71570  1.0000
  C   C169      1.0  0.72240  0.55290  0.20040  1.0000
  C   C170      1.0  0.77760  0.44710  0.70040  1.0000
  C   C171      1.0  0.27760  0.05290  0.79960  1.0000
  C   C172      1.0  0.22240  0.94710  0.29960  1.0000
  C   C173      1.0  0.27760  0.44710  0.79960  1.0000
  C   C174      1.0  0.22240  0.55290  0.29960  1.0000
  C   C175      1.0  0.72240  0.94710  0.20040  1.0000
  C   C176      1.0  0.77760  0.05290  0.70040  1.0000
  H   H129      1.0  0.71656  0.53979  0.13977  1.0000
  H   H130      1.0  0.78344  0.46021  0.63977  1.0000
  H   H131      1.0  0.28344  0.03979  0.86023  1.0000
  H   H132      1.0  0.21656  0.96021  0.36023  1.0000
  H   H133      1.0  0.28344  0.46021  0.86023  1.0000
  H   H134      1.0  0.21656  0.53979  0.36023  1.0000
  H   H135      1.0  0.71656  0.96021  0.13977  1.0000
  H   H136      1.0  0.78344  0.03979  0.63977  1.0000
  C   C177      1.0  0.80400  0.59900  0.13840  1.0000
  C   C178      1.0  0.69600  0.40100  0.63840  1.0000
  C   C179      1.0  0.19600  0.09900  0.86160  1.0000
  C   C180      1.0  0.30400  0.90100  0.36160  1.0000
  C   C181      1.0  0.19600  0.40100  0.86160  1.0000
  C   C182      1.0  0.30400  0.59900  0.36160  1.0000
  C   C183      1.0  0.80400  0.90100  0.13840  1.0000
  C   C184      1.0  0.69600  0.09900  0.63840  1.0000
  C   C185      1.0  0.85840  0.60230  0.15690  1.0000
  C   C186      1.0  0.64160  0.39770  0.65690  1.0000
  C   C187      1.0  0.14160  0.10230  0.84310  1.0000
  C   C188      1.0  0.35840  0.89770  0.34310  1.0000
  C   C189      1.0  0.14160  0.39770  0.84310  1.0000
  C   C190      1.0  0.35840  0.60230  0.34310  1.0000
  C   C191      1.0  0.85840  0.89770  0.15690  1.0000
  C   C192      1.0  0.64160  0.10230  0.65690  1.0000
  H   H137      1.0  0.87211  0.59163  0.21536  1.0000
  H   H138      1.0  0.62789  0.40837  0.71536  1.0000
  H   H139      1.0  0.12789  0.09163  0.78464  1.0000
  H   H140      1.0  0.37211  0.90837  0.28464  1.0000
  H   H141      1.0  0.12789  0.40837  0.78464  1.0000
  H   H142      1.0  0.37211  0.59163  0.28464  1.0000
  H   H143      1.0  0.87211  0.90837  0.21536  1.0000
  H   H144      1.0  0.62789  0.09163  0.71536  1.0000
  C   C193      1.0  0.89270  0.62140  0.08880  1.0000
  C   C194      1.0  0.60730  0.37860  0.58880  1.0000
  C   C195      1.0  0.10730  0.12140  0.91120  1.0000
  C   C196      1.0  0.39270  0.87860  0.41120  1.0000
  C   C197      1.0  0.10730  0.37860  0.91120  1.0000
  C   C198      1.0  0.39270  0.62140  0.41120  1.0000
  C   C199      1.0  0.89270  0.87860  0.08880  1.0000
  C   C200      1.0  0.60730  0.12140  0.58880  1.0000
  H   H145      1.0  0.92957  0.62359  0.10133  1.0000
  H   H146      1.0  0.57043  0.37641  0.60133  1.0000
  H   H147      1.0  0.07043  0.12359  0.89867  1.0000
  H   H148      1.0  0.42957  0.87641  0.39867  1.0000
  H   H149      1.0  0.07043  0.37641  0.89867  1.0000
  H   H150      1.0  0.42957  0.62359  0.39867  1.0000
  H   H151      1.0  0.92957  0.87641  0.10133  1.0000
  H   H152      1.0  0.57043  0.12359  0.60133  1.0000
  C   C201      1.0  0.87250  0.63720  0.00230  1.0000
  C   C202      1.0  0.62750  0.36280  0.50230  1.0000
  C   C203      1.0  0.12750  0.13720  0.99770  1.0000
  C   C204      1.0  0.37250  0.86280  0.49770  1.0000
  C   C205      1.0  0.12750  0.36280  0.99770  1.0000
  C   C206      1.0  0.37250  0.63720  0.49770  1.0000
  C   C207      1.0  0.87250  0.86280  0.00230  1.0000
  C   C208      1.0  0.62750  0.13720  0.50230  1.0000
  C   C209      1.0  0.81800  0.63390  0.98380  1.0000
  C   C210      1.0  0.68200  0.36610  0.48380  1.0000
  C   C211      1.0  0.18200  0.13390  0.01620  1.0000
  C   C212      1.0  0.31800  0.86610  0.51620  1.0000
  C   C213      1.0  0.18200  0.36610  0.01620  1.0000
  C   C214      1.0  0.31800  0.63390  0.51620  1.0000
  C   C215      1.0  0.81800  0.86610  0.98380  1.0000
  C   C216      1.0  0.68200  0.13390  0.48380  1.0000
  H   H153      1.0  0.80437  0.64460  0.92533  1.0000
  H   H154      1.0  0.69563  0.35540  0.42533  1.0000
  H   H155      1.0  0.19563  0.14460  0.07467  1.0000
  H   H156      1.0  0.30437  0.85540  0.57467  1.0000
  H   H157      1.0  0.19563  0.35540  0.07467  1.0000
  H   H158      1.0  0.30437  0.64460  0.57467  1.0000
  H   H159      1.0  0.80437  0.85540  0.92533  1.0000
  H   H160      1.0  0.69563  0.14460  0.42533  1.0000
  C   C217      1.0  0.78380  0.61480  0.05190  1.0000
  C   C218      1.0  0.71620  0.38520  0.55190  1.0000
  C   C219      1.0  0.21620  0.11480  0.94810  1.0000
  C   C220      1.0  0.28380  0.88520  0.44810  1.0000
  C   C221      1.0  0.21620  0.38520  0.94810  1.0000
  C   C222      1.0  0.28380  0.61480  0.44810  1.0000
  C   C223      1.0  0.78380  0.88520  0.05190  1.0000
  C   C224      1.0  0.71620  0.11480  0.55190  1.0000
  H   H161      1.0  0.74691  0.61263  0.03935  1.0000
  H   H162      1.0  0.75309  0.38737  0.53935  1.0000
  H   H163      1.0  0.25309  0.11263  0.96065  1.0000
  H   H164      1.0  0.24691  0.88737  0.46065  1.0000
  H   H165      1.0  0.25309  0.38737  0.96065  1.0000
  H   H166      1.0  0.24691  0.61263  0.46065  1.0000
  H   H167      1.0  0.74691  0.88737  0.03935  1.0000
  H   H168      1.0  0.75309  0.11263  0.53935  1.0000
  C   C225      1.0  0.55500  0.75000  0.47100  1.0000
  C   C226      1.0  0.94500  0.25000  0.97100  1.0000
  C   C227      1.0  0.44500  0.25000  0.52900  1.0000
  C   C228      1.0  0.05500  0.75000  0.02900  1.0000
  H   H169      1.0  0.55596  0.75000  0.40385  1.0000
  H   H170      1.0  0.94404  0.25000  0.90385  1.0000
  H   H171      1.0  0.44404  0.25000  0.59615  1.0000
  H   H172      1.0  0.05596  0.75000  0.09615  1.0000
  C   C229      1.0  0.54700  0.25000  0.89800  1.0000
  C   C230      1.0  0.95300  0.75000  0.39800  1.0000
  C   C231      1.0  0.45300  0.75000  0.10200  1.0000
  C   C232      1.0  0.04700  0.25000  0.60200  1.0000
  H   H173      1.0  0.57012  0.25000  0.84578  1.0000
  H   H174      1.0  0.92988  0.75000  0.34578  1.0000
  H   H175      1.0  0.42988  0.75000  0.15422  1.0000
  H   H176      1.0  0.07012  0.25000  0.65422  1.0000
