data_image0
_chemical_formula_structural       Cd18O36C36O72N72C72H36C144H36C72H36O36H36
_chemical_formula_sum              "Cd18 O144 C324 N72 H144"
_cell_length_a       25.126
_cell_length_b       25.126
_cell_length_c       32.427
_cell_angle_alpha    90
_cell_angle_beta     90
_cell_angle_gamma    120

_space_group_name_H-M_alt    "P 1"
_space_group_IT_number       1

loop_
  _space_group_symop_operation_xyz
  'x, y, z'

loop_
  _atom_site_type_symbol
  _atom_site_label
  _atom_site_symmetry_multiplicity
  _atom_site_fract_x
  _atom_site_fract_y
  _atom_site_fract_z
  _atom_site_occupancy
  Cd  Cd1       1.0  0.63255  0.00000  0.25000  1.0000
  Cd  Cd2       1.0  0.00000  0.63255  0.25000  1.0000
  Cd  Cd3       1.0  0.36745  0.36745  0.25000  1.0000
  Cd  Cd4       1.0  0.29922  0.33333  0.58333  1.0000
  Cd  Cd5       1.0  0.66667  0.96589  0.58333  1.0000
  Cd  Cd6       1.0  0.03411  0.70078  0.58333  1.0000
  Cd  Cd7       1.0  0.96589  0.66667  0.91667  1.0000
  Cd  Cd8       1.0  0.33333  0.29922  0.91667  1.0000
  Cd  Cd9       1.0  0.70078  0.03411  0.91667  1.0000
  Cd  Cd10      1.0  0.36745  0.00000  0.75000  1.0000
  Cd  Cd11      1.0  0.00000  0.36745  0.75000  1.0000
  Cd  Cd12      1.0  0.63255  0.63255  0.75000  1.0000
  Cd  Cd13      1.0  0.70078  0.66667  0.41667  1.0000
  Cd  Cd14      1.0  0.33333  0.03411  0.41667  1.0000
  Cd  Cd15      1.0  0.96589  0.29922  0.41667  1.0000
  Cd  Cd16      1.0  0.03411  0.33333  0.08333  1.0000
  Cd  Cd17      1.0  0.66667  0.70078  0.08333  1.0000
  Cd  Cd18      1.0  0.29922  0.96589  0.08333  1.0000
  O   O1        1.0  0.63102  0.08943  0.22527  1.0000
  O   O2        1.0  0.91057  0.54159  0.22527  1.0000
  O   O3        1.0  0.45841  0.36898  0.22527  1.0000
  O   O4        1.0  0.08943  0.63102  0.27473  1.0000
  O   O5        1.0  0.29769  0.42276  0.55860  1.0000
  O   O6        1.0  0.57724  0.87492  0.55860  1.0000
  O   O7        1.0  0.12508  0.70231  0.55860  1.0000
  O   O8        1.0  0.75610  0.96435  0.60806  1.0000
  O   O9        1.0  0.96435  0.75610  0.89194  1.0000
  O   O10       1.0  0.42276  0.29769  0.94140  1.0000
  O   O11       1.0  0.54159  0.91057  0.27473  1.0000
  O   O12       1.0  0.36898  0.45841  0.27473  1.0000
  O   O13       1.0  0.24390  0.20826  0.89194  1.0000
  O   O14       1.0  0.79174  0.03565  0.89194  1.0000
  O   O15       1.0  0.87492  0.57724  0.94140  1.0000
  O   O16       1.0  0.70231  0.12508  0.94140  1.0000
  O   O17       1.0  0.20826  0.24390  0.60806  1.0000
  O   O18       1.0  0.03565  0.79174  0.60806  1.0000
  O   O19       1.0  0.36898  0.91057  0.77473  1.0000
  O   O20       1.0  0.08943  0.45841  0.77473  1.0000
  O   O21       1.0  0.54159  0.63102  0.77473  1.0000
  O   O22       1.0  0.91057  0.36898  0.72527  1.0000
  O   O23       1.0  0.70231  0.57724  0.44140  1.0000
  O   O24       1.0  0.42276  0.12508  0.44140  1.0000
  O   O25       1.0  0.87492  0.29769  0.44140  1.0000
  O   O26       1.0  0.24390  0.03565  0.39194  1.0000
  O   O27       1.0  0.03565  0.24390  0.10806  1.0000
  O   O28       1.0  0.57724  0.70231  0.05860  1.0000
  O   O29       1.0  0.45841  0.08943  0.72527  1.0000
  O   O30       1.0  0.63102  0.54159  0.72527  1.0000
  O   O31       1.0  0.75610  0.79174  0.10806  1.0000
  O   O32       1.0  0.20826  0.96435  0.10806  1.0000
  O   O33       1.0  0.12508  0.42276  0.05860  1.0000
  O   O34       1.0  0.29769  0.87492  0.05860  1.0000
  O   O35       1.0  0.79174  0.75610  0.39194  1.0000
  O   O36       1.0  0.96435  0.20826  0.39194  1.0000
  C   C1        1.0  0.61263  0.28534  0.18757  1.0000
  C   C2        1.0  0.71466  0.32729  0.18757  1.0000
  C   C3        1.0  0.67271  0.38737  0.18757  1.0000
  C   C4        1.0  0.28534  0.61263  0.31243  1.0000
  C   C5        1.0  0.27930  0.61867  0.52090  1.0000
  C   C6        1.0  0.38133  0.66062  0.52090  1.0000
  C   C7        1.0  0.33938  0.72070  0.52090  1.0000
  C   C8        1.0  0.95201  0.94596  0.64576  1.0000
  C   C9        1.0  0.94596  0.95201  0.85424  1.0000
  C   C10       1.0  0.61867  0.27930  0.97910  1.0000
  C   C11       1.0  0.32729  0.71466  0.31243  1.0000
  C   C12       1.0  0.38737  0.67271  0.31243  1.0000
  C   C13       1.0  0.04799  0.99396  0.85424  1.0000
  C   C14       1.0  0.00604  0.05404  0.85424  1.0000
  C   C15       1.0  0.66062  0.38133  0.97910  1.0000
  C   C16       1.0  0.72070  0.33938  0.97910  1.0000
  C   C17       1.0  0.99396  0.04799  0.64576  1.0000
  C   C18       1.0  0.05404  0.00604  0.64576  1.0000
  C   C19       1.0  0.38737  0.71466  0.81243  1.0000
  C   C20       1.0  0.28534  0.67271  0.81243  1.0000
  C   C21       1.0  0.32729  0.61263  0.81243  1.0000
  C   C22       1.0  0.71466  0.38737  0.68757  1.0000
  C   C23       1.0  0.72070  0.38133  0.47910  1.0000
  C   C24       1.0  0.61867  0.33938  0.47910  1.0000
  C   C25       1.0  0.66062  0.27930  0.47910  1.0000
  C   C26       1.0  0.04799  0.05404  0.35424  1.0000
  C   C27       1.0  0.05404  0.04799  0.14576  1.0000
  C   C28       1.0  0.38133  0.72070  0.02090  1.0000
  C   C29       1.0  0.67271  0.28534  0.68757  1.0000
  C   C30       1.0  0.61263  0.32729  0.68757  1.0000
  C   C31       1.0  0.95201  0.00604  0.14576  1.0000
  C   C32       1.0  0.99396  0.94596  0.14576  1.0000
  C   C33       1.0  0.33938  0.61867  0.02090  1.0000
  C   C34       1.0  0.27930  0.66062  0.02090  1.0000
  C   C35       1.0  0.00604  0.95201  0.35424  1.0000
  C   C36       1.0  0.94596  0.99396  0.35424  1.0000
  O   O37       1.0  0.38092  0.98358  0.12510  1.0000
  O   O38       1.0  0.01642  0.39734  0.12510  1.0000
  O   O39       1.0  0.60266  0.61908  0.12510  1.0000
  O   O40       1.0  0.98358  0.38092  0.37490  1.0000
  O   O41       1.0  0.04759  0.31691  0.45843  1.0000
  O   O42       1.0  0.68309  0.73067  0.45843  1.0000
  O   O43       1.0  0.26933  0.95241  0.45843  1.0000
  O   O44       1.0  0.65025  0.71425  0.70823  1.0000
  O   O45       1.0  0.71425  0.65025  0.79177  1.0000
  O   O46       1.0  0.31691  0.04759  0.04157  1.0000
  O   O47       1.0  0.39734  0.01642  0.37490  1.0000
  O   O48       1.0  0.61908  0.60266  0.37490  1.0000
  O   O49       1.0  0.34975  0.06401  0.79177  1.0000
  O   O50       1.0  0.93599  0.28575  0.79177  1.0000
  O   O51       1.0  0.73067  0.68309  0.04157  1.0000
  O   O52       1.0  0.95241  0.26933  0.04157  1.0000
  O   O53       1.0  0.06401  0.34975  0.70823  1.0000
  O   O54       1.0  0.28575  0.93599  0.70823  1.0000
  O   O55       1.0  0.61908  0.01642  0.87490  1.0000
  O   O56       1.0  0.98358  0.60266  0.87490  1.0000
  O   O57       1.0  0.39734  0.38092  0.87490  1.0000
  O   O58       1.0  0.01642  0.61908  0.62510  1.0000
  O   O59       1.0  0.95241  0.68309  0.54157  1.0000
  O   O60       1.0  0.31691  0.26933  0.54157  1.0000
  O   O61       1.0  0.73067  0.04759  0.54157  1.0000
  O   O62       1.0  0.34975  0.28575  0.29177  1.0000
  O   O63       1.0  0.28575  0.34975  0.20823  1.0000
  O   O64       1.0  0.68309  0.95241  0.95843  1.0000
  O   O65       1.0  0.60266  0.98358  0.62510  1.0000
  O   O66       1.0  0.38092  0.39734  0.62510  1.0000
  O   O67       1.0  0.65025  0.93599  0.20823  1.0000
  O   O68       1.0  0.06401  0.71425  0.20823  1.0000
  O   O69       1.0  0.26933  0.31691  0.95843  1.0000
  O   O70       1.0  0.04759  0.73067  0.95843  1.0000
  O   O71       1.0  0.93599  0.65025  0.29177  1.0000
  O   O72       1.0  0.71425  0.06401  0.29177  1.0000
  O   O73       1.0  0.56043  0.00015  0.20111  1.0000
  O   O74       1.0  0.99985  0.56028  0.20111  1.0000
  O   O75       1.0  0.43972  0.43957  0.20111  1.0000
  O   O76       1.0  0.00015  0.56043  0.29889  1.0000
  O   O77       1.0  0.22710  0.33348  0.53444  1.0000
  O   O78       1.0  0.66652  0.89361  0.53444  1.0000
  O   O79       1.0  0.10639  0.77290  0.53444  1.0000
  O   O80       1.0  0.66682  0.89376  0.63222  1.0000
  O   O81       1.0  0.89376  0.66682  0.86778  1.0000
  O   O82       1.0  0.33348  0.22710  0.96556  1.0000
  O   O83       1.0  0.56028  0.99985  0.29889  1.0000
  O   O84       1.0  0.43957  0.43972  0.29889  1.0000
  O   O85       1.0  0.33318  0.22695  0.86778  1.0000
  O   O86       1.0  0.77305  0.10624  0.86778  1.0000
  O   O87       1.0  0.89361  0.66652  0.96556  1.0000
  O   O88       1.0  0.77290  0.10639  0.96556  1.0000
  O   O89       1.0  0.22695  0.33318  0.63222  1.0000
  O   O90       1.0  0.10624  0.77305  0.63222  1.0000
  O   O91       1.0  0.43957  0.99985  0.79889  1.0000
  O   O92       1.0  0.00015  0.43972  0.79889  1.0000
  O   O93       1.0  0.56028  0.56043  0.79889  1.0000
  O   O94       1.0  0.99985  0.43957  0.70111  1.0000
  O   O95       1.0  0.77290  0.66652  0.46556  1.0000
  O   O96       1.0  0.33348  0.10639  0.46556  1.0000
  O   O97       1.0  0.89361  0.22710  0.46556  1.0000
  O   O98       1.0  0.33318  0.10624  0.36778  1.0000
  O   O99       1.0  0.10624  0.33318  0.13222  1.0000
  O   O100      1.0  0.66652  0.77290  0.03444  1.0000
  O   O101      1.0  0.43972  0.00015  0.70111  1.0000
  O   O102      1.0  0.56043  0.56028  0.70111  1.0000
  O   O103      1.0  0.66682  0.77305  0.13222  1.0000
  O   O104      1.0  0.22695  0.89376  0.13222  1.0000
  O   O105      1.0  0.10639  0.33348  0.03444  1.0000
  O   O106      1.0  0.22710  0.89361  0.03444  1.0000
  O   O107      1.0  0.77305  0.66682  0.36778  1.0000
  O   O108      1.0  0.89376  0.22695  0.36778  1.0000
  N   N1        1.0  0.65972  0.27533  0.18765  1.0000
  N   N2        1.0  0.72467  0.38439  0.18765  1.0000
  N   N3        1.0  0.61561  0.34028  0.18765  1.0000
  N   N4        1.0  0.27533  0.65972  0.31235  1.0000
  N   N5        1.0  0.32639  0.60866  0.52098  1.0000
  N   N6        1.0  0.39134  0.71772  0.52098  1.0000
  N   N7        1.0  0.28228  0.67361  0.52098  1.0000
  N   N8        1.0  0.94200  0.99305  0.64568  1.0000
  N   N9        1.0  0.99305  0.94200  0.85432  1.0000
  N   N10       1.0  0.60866  0.32639  0.97902  1.0000
  N   N11       1.0  0.38439  0.72467  0.31235  1.0000
  N   N12       1.0  0.34028  0.61561  0.31235  1.0000
  N   N13       1.0  0.05800  0.05106  0.85432  1.0000
  N   N14       1.0  0.94894  0.00695  0.85432  1.0000
  N   N15       1.0  0.71772  0.39134  0.97902  1.0000
  N   N16       1.0  0.67361  0.28228  0.97902  1.0000
  N   N17       1.0  0.05106  0.05800  0.64568  1.0000
  N   N18       1.0  0.00695  0.94894  0.64568  1.0000
  N   N19       1.0  0.34028  0.72467  0.81235  1.0000
  N   N20       1.0  0.27533  0.61561  0.81235  1.0000
  N   N21       1.0  0.38439  0.65972  0.81235  1.0000
  N   N22       1.0  0.72467  0.34028  0.68765  1.0000
  N   N23       1.0  0.67361  0.39134  0.47902  1.0000
  N   N24       1.0  0.60866  0.28228  0.47902  1.0000
  N   N25       1.0  0.71772  0.32639  0.47902  1.0000
  N   N26       1.0  0.05800  0.00695  0.35432  1.0000
  N   N27       1.0  0.00695  0.05800  0.14568  1.0000
  N   N28       1.0  0.39134  0.67361  0.02098  1.0000
  N   N29       1.0  0.61561  0.27533  0.68765  1.0000
  N   N30       1.0  0.65972  0.38439  0.68765  1.0000
  N   N31       1.0  0.94200  0.94894  0.14568  1.0000
  N   N32       1.0  0.05106  0.99305  0.14568  1.0000
  N   N33       1.0  0.28228  0.60866  0.02098  1.0000
  N   N34       1.0  0.32639  0.71772  0.02098  1.0000
  N   N35       1.0  0.94894  0.94200  0.35432  1.0000
  N   N36       1.0  0.99305  0.05106  0.35432  1.0000
  N   N37       1.0  0.55456  0.23673  0.18682  1.0000
  N   N38       1.0  0.76327  0.31783  0.18682  1.0000
  N   N39       1.0  0.68217  0.44544  0.18682  1.0000
  N   N40       1.0  0.23673  0.55456  0.31318  1.0000
  N   N41       1.0  0.22123  0.57006  0.52015  1.0000
  N   N42       1.0  0.42994  0.65116  0.52015  1.0000
  N   N43       1.0  0.34884  0.77877  0.52015  1.0000
  N   N44       1.0  0.90340  0.88789  0.64651  1.0000
  N   N45       1.0  0.88789  0.90340  0.85349  1.0000
  N   N46       1.0  0.57006  0.22123  0.97985  1.0000
  N   N47       1.0  0.31783  0.76327  0.31318  1.0000
  N   N48       1.0  0.44544  0.68217  0.31318  1.0000
  N   N49       1.0  0.09660  0.98450  0.85349  1.0000
  N   N50       1.0  0.01550  0.11211  0.85349  1.0000
  N   N51       1.0  0.65116  0.42994  0.97985  1.0000
  N   N52       1.0  0.77877  0.34884  0.97985  1.0000
  N   N53       1.0  0.98450  0.09660  0.64651  1.0000
  N   N54       1.0  0.11211  0.01550  0.64651  1.0000
  N   N55       1.0  0.44544  0.76327  0.81318  1.0000
  N   N56       1.0  0.23673  0.68217  0.81318  1.0000
  N   N57       1.0  0.31783  0.55456  0.81318  1.0000
  N   N58       1.0  0.76327  0.44544  0.68682  1.0000
  N   N59       1.0  0.77877  0.42994  0.47985  1.0000
  N   N60       1.0  0.57006  0.34884  0.47985  1.0000
  N   N61       1.0  0.65116  0.22123  0.47985  1.0000
  N   N62       1.0  0.09660  0.11211  0.35349  1.0000
  N   N63       1.0  0.11211  0.09660  0.14651  1.0000
  N   N64       1.0  0.42994  0.77877  0.02015  1.0000
  N   N65       1.0  0.68217  0.23673  0.68682  1.0000
  N   N66       1.0  0.55456  0.31783  0.68682  1.0000
  N   N67       1.0  0.90340  0.01550  0.14651  1.0000
  N   N68       1.0  0.98450  0.88789  0.14651  1.0000
  N   N69       1.0  0.34884  0.57006  0.02015  1.0000
  N   N70       1.0  0.22123  0.65116  0.02015  1.0000
  N   N71       1.0  0.01550  0.90340  0.35349  1.0000
  N   N72       1.0  0.88789  0.98450  0.35349  1.0000
  C   C37       1.0  0.53457  0.17372  0.18271  1.0000
  C   C38       1.0  0.82628  0.36085  0.18271  1.0000
  C   C39       1.0  0.63915  0.46543  0.18271  1.0000
  C   C40       1.0  0.17372  0.53457  0.31729  1.0000
  C   C41       1.0  0.20124  0.50705  0.51604  1.0000
  C   C42       1.0  0.49295  0.69418  0.51604  1.0000
  C   C43       1.0  0.30582  0.79876  0.51604  1.0000
  C   C44       1.0  0.84039  0.86790  0.65062  1.0000
  C   C45       1.0  0.86790  0.84039  0.84938  1.0000
  C   C46       1.0  0.50705  0.20124  0.98396  1.0000
  C   C47       1.0  0.36085  0.82628  0.31729  1.0000
  C   C48       1.0  0.46543  0.63915  0.31729  1.0000
  C   C49       1.0  0.15961  0.02752  0.84938  1.0000
  C   C50       1.0  0.97248  0.13210  0.84938  1.0000
  C   C51       1.0  0.69418  0.49295  0.98396  1.0000
  C   C52       1.0  0.79876  0.30582  0.98396  1.0000
  C   C53       1.0  0.02752  0.15961  0.65062  1.0000
  C   C54       1.0  0.13210  0.97248  0.65062  1.0000
  C   C55       1.0  0.46543  0.82628  0.81729  1.0000
  C   C56       1.0  0.17372  0.63915  0.81729  1.0000
  C   C57       1.0  0.36085  0.53457  0.81729  1.0000
  C   C58       1.0  0.82628  0.46543  0.68271  1.0000
  C   C59       1.0  0.79876  0.49295  0.48396  1.0000
  C   C60       1.0  0.50705  0.30582  0.48396  1.0000
  C   C61       1.0  0.69418  0.20124  0.48396  1.0000
  C   C62       1.0  0.15961  0.13210  0.34938  1.0000
  C   C63       1.0  0.13210  0.15961  0.15062  1.0000
  C   C64       1.0  0.49295  0.79876  0.01604  1.0000
  C   C65       1.0  0.63915  0.17372  0.68271  1.0000
  C   C66       1.0  0.53457  0.36085  0.68271  1.0000
  C   C67       1.0  0.84039  0.97248  0.15062  1.0000
  C   C68       1.0  0.02752  0.86790  0.15062  1.0000
  C   C69       1.0  0.30582  0.50705  0.01604  1.0000
  C   C70       1.0  0.20124  0.69418  0.01604  1.0000
  C   C71       1.0  0.97248  0.84039  0.34938  1.0000
  C   C72       1.0  0.86790  0.02752  0.34938  1.0000
  C   C73       1.0  0.47835  0.13790  0.16396  1.0000
  C   C74       1.0  0.86210  0.34045  0.16396  1.0000
  C   C75       1.0  0.65955  0.52165  0.16396  1.0000
  C   C76       1.0  0.13790  0.47835  0.33604  1.0000
  C   C77       1.0  0.14502  0.47123  0.49729  1.0000
  C   C78       1.0  0.52877  0.67378  0.49729  1.0000
  C   C79       1.0  0.32622  0.85498  0.49729  1.0000
  C   C80       1.0  0.80457  0.81168  0.66937  1.0000
  C   C81       1.0  0.81168  0.80457  0.83063  1.0000
  C   C82       1.0  0.47123  0.14502  0.00271  1.0000
  C   C83       1.0  0.34045  0.86210  0.33604  1.0000
  C   C84       1.0  0.52165  0.65955  0.33604  1.0000
  C   C85       1.0  0.19543  0.00712  0.83063  1.0000
  C   C86       1.0  0.99288  0.18832  0.83063  1.0000
  C   C87       1.0  0.67378  0.52877  0.00271  1.0000
  C   C88       1.0  0.85498  0.32622  0.00271  1.0000
  C   C89       1.0  0.00712  0.19543  0.66937  1.0000
  C   C90       1.0  0.18832  0.99288  0.66937  1.0000
  C   C91       1.0  0.52165  0.86210  0.83604  1.0000
  C   C92       1.0  0.13790  0.65955  0.83604  1.0000
  C   C93       1.0  0.34045  0.47835  0.83604  1.0000
  C   C94       1.0  0.86210  0.52165  0.66396  1.0000
  C   C95       1.0  0.85498  0.52877  0.50271  1.0000
  C   C96       1.0  0.47123  0.32622  0.50271  1.0000
  C   C97       1.0  0.67378  0.14502  0.50271  1.0000
  C   C98       1.0  0.19543  0.18832  0.33063  1.0000
  C   C99       1.0  0.18832  0.19543  0.16937  1.0000
  C   C100      1.0  0.52877  0.85498  0.99729  1.0000
  C   C101      1.0  0.65955  0.13790  0.66396  1.0000
  C   C102      1.0  0.47835  0.34045  0.66396  1.0000
  C   C103      1.0  0.80457  0.99288  0.16937  1.0000
  C   C104      1.0  0.00712  0.81168  0.16937  1.0000
  C   C105      1.0  0.32622  0.47123  0.99729  1.0000
  C   C106      1.0  0.14502  0.67378  0.99729  1.0000
  C   C107      1.0  0.99288  0.80457  0.33063  1.0000
  C   C108      1.0  0.81168  0.00712  0.33063  1.0000
  H   H1        1.0  0.45570  0.15570  0.15500  1.0000
  H   H2        1.0  0.84430  0.30000  0.15500  1.0000
  H   H3        1.0  0.70000  0.54430  0.15500  1.0000
  H   H4        1.0  0.15570  0.45570  0.34500  1.0000
  H   H5        1.0  0.12237  0.48903  0.48833  1.0000
  H   H6        1.0  0.51097  0.63333  0.48833  1.0000
  H   H7        1.0  0.36667  0.87763  0.48833  1.0000
  H   H8        1.0  0.82237  0.78903  0.67833  1.0000
  H   H9        1.0  0.78903  0.82237  0.82167  1.0000
  H   H10       1.0  0.48903  0.12237  0.01167  1.0000
  H   H11       1.0  0.30000  0.84430  0.34500  1.0000
  H   H12       1.0  0.54430  0.70000  0.34500  1.0000
  H   H13       1.0  0.17763  0.96667  0.82167  1.0000
  H   H14       1.0  0.03333  0.21097  0.82167  1.0000
  H   H15       1.0  0.63333  0.51097  0.01167  1.0000
  H   H16       1.0  0.87763  0.36667  0.01167  1.0000
  H   H17       1.0  0.96667  0.17763  0.67833  1.0000
  H   H18       1.0  0.21097  0.03333  0.67833  1.0000
  H   H19       1.0  0.54430  0.84430  0.84500  1.0000
  H   H20       1.0  0.15570  0.70000  0.84500  1.0000
  H   H21       1.0  0.30000  0.45570  0.84500  1.0000
  H   H22       1.0  0.84430  0.54430  0.65500  1.0000
  H   H23       1.0  0.87763  0.51097  0.51167  1.0000
  H   H24       1.0  0.48903  0.36667  0.51167  1.0000
  H   H25       1.0  0.63333  0.12237  0.51167  1.0000
  H   H26       1.0  0.17763  0.21097  0.32167  1.0000
  H   H27       1.0  0.21097  0.17763  0.17833  1.0000
  H   H28       1.0  0.51097  0.87763  0.98833  1.0000
  H   H29       1.0  0.70000  0.15570  0.65500  1.0000
  H   H30       1.0  0.45570  0.30000  0.65500  1.0000
  H   H31       1.0  0.82237  0.03333  0.17833  1.0000
  H   H32       1.0  0.96667  0.78903  0.17833  1.0000
  H   H33       1.0  0.36667  0.48903  0.98833  1.0000
  H   H34       1.0  0.12237  0.63333  0.98833  1.0000
  H   H35       1.0  0.03333  0.82237  0.32167  1.0000
  H   H36       1.0  0.78903  0.96667  0.32167  1.0000
  C   C109      1.0  0.58127  0.05562  0.20621  1.0000
  C   C110      1.0  0.94438  0.52565  0.20621  1.0000
  C   C111      1.0  0.47435  0.41873  0.20621  1.0000
  C   C112      1.0  0.05562  0.58127  0.29379  1.0000
  C   C113      1.0  0.24794  0.38895  0.53954  1.0000
  C   C114      1.0  0.61105  0.85898  0.53954  1.0000
  C   C115      1.0  0.14102  0.75206  0.53954  1.0000
  C   C116      1.0  0.72229  0.91460  0.62712  1.0000
  C   C117      1.0  0.91460  0.72229  0.87288  1.0000
  C   C118      1.0  0.38895  0.24794  0.96046  1.0000
  C   C119      1.0  0.52565  0.94438  0.29379  1.0000
  C   C120      1.0  0.41873  0.47435  0.29379  1.0000
  C   C121      1.0  0.27771  0.19232  0.87288  1.0000
  C   C122      1.0  0.80768  0.08540  0.87288  1.0000
  C   C123      1.0  0.85898  0.61105  0.96046  1.0000
  C   C124      1.0  0.75206  0.14102  0.96046  1.0000
  C   C125      1.0  0.19232  0.27771  0.62712  1.0000
  C   C126      1.0  0.08540  0.80768  0.62712  1.0000
  C   C127      1.0  0.41873  0.94438  0.79379  1.0000
  C   C128      1.0  0.05562  0.47435  0.79379  1.0000
  C   C129      1.0  0.52565  0.58127  0.79379  1.0000
  C   C130      1.0  0.94438  0.41873  0.70621  1.0000
  C   C131      1.0  0.75206  0.61105  0.46046  1.0000
  C   C132      1.0  0.38895  0.14102  0.46046  1.0000
  C   C133      1.0  0.85898  0.24794  0.46046  1.0000
  C   C134      1.0  0.27771  0.08540  0.37288  1.0000
  C   C135      1.0  0.08540  0.27771  0.12712  1.0000
  C   C136      1.0  0.61105  0.75206  0.03954  1.0000
  C   C137      1.0  0.47435  0.05562  0.70621  1.0000
  C   C138      1.0  0.58127  0.52565  0.70621  1.0000
  C   C139      1.0  0.72229  0.80768  0.12712  1.0000
  C   C140      1.0  0.19232  0.91460  0.12712  1.0000
  C   C141      1.0  0.14102  0.38895  0.03954  1.0000
  C   C142      1.0  0.24794  0.85898  0.03954  1.0000
  C   C143      1.0  0.80768  0.72229  0.37288  1.0000
  C   C144      1.0  0.91460  0.19232  0.37288  1.0000
  C   C145      1.0  0.45524  0.07522  0.15828  1.0000
  C   C146      1.0  0.92478  0.38002  0.15828  1.0000
  C   C147      1.0  0.61998  0.54476  0.15828  1.0000
  C   C148      1.0  0.07522  0.45524  0.34172  1.0000
  C   C149      1.0  0.12191  0.40855  0.49161  1.0000
  C   C150      1.0  0.59145  0.71335  0.49161  1.0000
  C   C151      1.0  0.28665  0.87809  0.49161  1.0000
  C   C152      1.0  0.74189  0.78857  0.67505  1.0000
  C   C153      1.0  0.78857  0.74189  0.82495  1.0000
  C   C154      1.0  0.40855  0.12191  0.00839  1.0000
  C   C155      1.0  0.38002  0.92478  0.34172  1.0000
  C   C156      1.0  0.54476  0.61998  0.34172  1.0000
  C   C157      1.0  0.25811  0.04669  0.82495  1.0000
  C   C158      1.0  0.95331  0.21143  0.82495  1.0000
  C   C159      1.0  0.71335  0.59145  0.00839  1.0000
  C   C160      1.0  0.87809  0.28665  0.00839  1.0000
  C   C161      1.0  0.04669  0.25811  0.67505  1.0000
  C   C162      1.0  0.21143  0.95331  0.67505  1.0000
  C   C163      1.0  0.54476  0.92478  0.84172  1.0000
  C   C164      1.0  0.07522  0.61998  0.84172  1.0000
  C   C165      1.0  0.38002  0.45524  0.84172  1.0000
  C   C166      1.0  0.92478  0.54476  0.65828  1.0000
  C   C167      1.0  0.87809  0.59145  0.50839  1.0000
  C   C168      1.0  0.40855  0.28665  0.50839  1.0000
  C   C169      1.0  0.71335  0.12191  0.50839  1.0000
  C   C170      1.0  0.25811  0.21143  0.32495  1.0000
  C   C171      1.0  0.21143  0.25811  0.17505  1.0000
  C   C172      1.0  0.59145  0.87809  0.99161  1.0000
  C   C173      1.0  0.61998  0.07522  0.65828  1.0000
  C   C174      1.0  0.45524  0.38002  0.65828  1.0000
  C   C175      1.0  0.74189  0.95331  0.17505  1.0000
  C   C176      1.0  0.04669  0.78857  0.17505  1.0000
  C   C177      1.0  0.28665  0.40855  0.99161  1.0000
  C   C178      1.0  0.12191  0.71335  0.99161  1.0000
  C   C179      1.0  0.95331  0.74189  0.32495  1.0000
  C   C180      1.0  0.78857  0.04669  0.32495  1.0000
  C   C181      1.0  0.39435  0.03687  0.13662  1.0000
  C   C182      1.0  0.96313  0.35748  0.13662  1.0000
  C   C183      1.0  0.64252  0.60565  0.13662  1.0000
  C   C184      1.0  0.03687  0.39435  0.36338  1.0000
  C   C185      1.0  0.06102  0.37020  0.46995  1.0000
  C   C186      1.0  0.62980  0.69081  0.46995  1.0000
  C   C187      1.0  0.30919  0.93898  0.46995  1.0000
  C   C188      1.0  0.70354  0.72768  0.69671  1.0000
  C   C189      1.0  0.72768  0.70354  0.80329  1.0000
  C   C190      1.0  0.37020  0.06102  0.03005  1.0000
  C   C191      1.0  0.35748  0.96313  0.36338  1.0000
  C   C192      1.0  0.60565  0.64252  0.36338  1.0000
  C   C193      1.0  0.29646  0.02415  0.80329  1.0000
  C   C194      1.0  0.97585  0.27232  0.80329  1.0000
  C   C195      1.0  0.69081  0.62980  0.03005  1.0000
  C   C196      1.0  0.93898  0.30919  0.03005  1.0000
  C   C197      1.0  0.02415  0.29646  0.69671  1.0000
  C   C198      1.0  0.27232  0.97585  0.69671  1.0000
  C   C199      1.0  0.60565  0.96313  0.86338  1.0000
  C   C200      1.0  0.03687  0.64252  0.86338  1.0000
  C   C201      1.0  0.35748  0.39435  0.86338  1.0000
  C   C202      1.0  0.96313  0.60565  0.63662  1.0000
  C   C203      1.0  0.93898  0.62980  0.53005  1.0000
  C   C204      1.0  0.37020  0.30919  0.53005  1.0000
  C   C205      1.0  0.69081  0.06102  0.53005  1.0000
  C   C206      1.0  0.29646  0.27232  0.30329  1.0000
  C   C207      1.0  0.27232  0.29646  0.19671  1.0000
  C   C208      1.0  0.62980  0.93898  0.96995  1.0000
  C   C209      1.0  0.64252  0.03687  0.63662  1.0000
  C   C210      1.0  0.39435  0.35748  0.63662  1.0000
  C   C211      1.0  0.70354  0.97585  0.19671  1.0000
  C   C212      1.0  0.02415  0.72768  0.19671  1.0000
  C   C213      1.0  0.30919  0.37020  0.96995  1.0000
  C   C214      1.0  0.06102  0.69081  0.96995  1.0000
  C   C215      1.0  0.97585  0.70354  0.30329  1.0000
  C   C216      1.0  0.72768  0.02415  0.30329  1.0000
  C   C217      1.0  0.56751  0.14659  0.19668  1.0000
  C   C218      1.0  0.85341  0.42092  0.19668  1.0000
  C   C219      1.0  0.57908  0.43249  0.19668  1.0000
  C   C220      1.0  0.14659  0.56751  0.30332  1.0000
  C   C221      1.0  0.23418  0.47992  0.53001  1.0000
  C   C222      1.0  0.52008  0.75425  0.53001  1.0000
  C   C223      1.0  0.24575  0.76582  0.53001  1.0000
  C   C224      1.0  0.81326  0.90084  0.63665  1.0000
  C   C225      1.0  0.90084  0.81326  0.86335  1.0000
  C   C226      1.0  0.47992  0.23418  0.96999  1.0000
  C   C227      1.0  0.42092  0.85341  0.30332  1.0000
  C   C228      1.0  0.43249  0.57908  0.30332  1.0000
  C   C229      1.0  0.18674  0.08759  0.86335  1.0000
  C   C230      1.0  0.91241  0.09916  0.86335  1.0000
  C   C231      1.0  0.75425  0.52008  0.96999  1.0000
  C   C232      1.0  0.76582  0.24575  0.96999  1.0000
  C   C233      1.0  0.08759  0.18674  0.63665  1.0000
  C   C234      1.0  0.09916  0.91241  0.63665  1.0000
  C   C235      1.0  0.43249  0.85341  0.80332  1.0000
  C   C236      1.0  0.14659  0.57908  0.80332  1.0000
  C   C237      1.0  0.42092  0.56751  0.80332  1.0000
  C   C238      1.0  0.85341  0.43249  0.69668  1.0000
  C   C239      1.0  0.76582  0.52008  0.46999  1.0000
  C   C240      1.0  0.47992  0.24575  0.46999  1.0000
  C   C241      1.0  0.75425  0.23418  0.46999  1.0000
  C   C242      1.0  0.18674  0.09916  0.36335  1.0000
  C   C243      1.0  0.09916  0.18674  0.13665  1.0000
  C   C244      1.0  0.52008  0.76582  0.03001  1.0000
  C   C245      1.0  0.57908  0.14659  0.69668  1.0000
  C   C246      1.0  0.56751  0.42092  0.69668  1.0000
  C   C247      1.0  0.81326  0.91241  0.13665  1.0000
  C   C248      1.0  0.08759  0.90084  0.13665  1.0000
  C   C249      1.0  0.24575  0.47992  0.03001  1.0000
  C   C250      1.0  0.23418  0.75425  0.03001  1.0000
  C   C251      1.0  0.91241  0.81326  0.36335  1.0000
  C   C252      1.0  0.90084  0.08759  0.36335  1.0000
  H   H37       1.0  0.60480  0.17020  0.21020  1.0000
  H   H38       1.0  0.82980  0.43460  0.21020  1.0000
  H   H39       1.0  0.56540  0.39520  0.21020  1.0000
  H   H40       1.0  0.17020  0.60480  0.28980  1.0000
  H   H41       1.0  0.27147  0.50353  0.54353  1.0000
  H   H42       1.0  0.49647  0.76793  0.54353  1.0000
  H   H43       1.0  0.23207  0.72853  0.54353  1.0000
  H   H44       1.0  0.83687  0.93813  0.62313  1.0000
  H   H45       1.0  0.93813  0.83687  0.87687  1.0000
  H   H46       1.0  0.50353  0.27147  0.95647  1.0000
  H   H47       1.0  0.43460  0.82980  0.28980  1.0000
  H   H48       1.0  0.39520  0.56540  0.28980  1.0000
  H   H49       1.0  0.16313  0.10127  0.87687  1.0000
  H   H50       1.0  0.89873  0.06187  0.87687  1.0000
  H   H51       1.0  0.76793  0.49647  0.95647  1.0000
  H   H52       1.0  0.72853  0.23207  0.95647  1.0000
  H   H53       1.0  0.10127  0.16313  0.62313  1.0000
  H   H54       1.0  0.06187  0.89873  0.62313  1.0000
  H   H55       1.0  0.39520  0.82980  0.78980  1.0000
  H   H56       1.0  0.17020  0.56540  0.78980  1.0000
  H   H57       1.0  0.43460  0.60480  0.78980  1.0000
  H   H58       1.0  0.82980  0.39520  0.71020  1.0000
  H   H59       1.0  0.72853  0.49647  0.45647  1.0000
  H   H60       1.0  0.50353  0.23207  0.45647  1.0000
  H   H61       1.0  0.76793  0.27147  0.45647  1.0000
  H   H62       1.0  0.16313  0.06187  0.37687  1.0000
  H   H63       1.0  0.06187  0.16313  0.12313  1.0000
  H   H64       1.0  0.49647  0.72853  0.04353  1.0000
  H   H65       1.0  0.56540  0.17020  0.71020  1.0000
  H   H66       1.0  0.60480  0.43460  0.71020  1.0000
  H   H67       1.0  0.83687  0.89873  0.12313  1.0000
  H   H68       1.0  0.10127  0.93813  0.12313  1.0000
  H   H69       1.0  0.23207  0.50353  0.04353  1.0000
  H   H70       1.0  0.27147  0.76793  0.04353  1.0000
  H   H71       1.0  0.89873  0.83687  0.37687  1.0000
  H   H72       1.0  0.93813  0.10127  0.37687  1.0000
  C   C253      1.0  0.54531  0.08510  0.19065  1.0000
  C   C254      1.0  0.91490  0.46021  0.19065  1.0000
  C   C255      1.0  0.53979  0.45469  0.19065  1.0000
  C   C256      1.0  0.08510  0.54531  0.30935  1.0000
  C   C257      1.0  0.21198  0.41843  0.52398  1.0000
  C   C258      1.0  0.58157  0.79354  0.52398  1.0000
  C   C259      1.0  0.20646  0.78802  0.52398  1.0000
  C   C260      1.0  0.75177  0.87864  0.64268  1.0000
  C   C261      1.0  0.87864  0.75177  0.85732  1.0000
  C   C262      1.0  0.41843  0.21198  0.97602  1.0000
  C   C263      1.0  0.46021  0.91490  0.30935  1.0000
  C   C264      1.0  0.45469  0.53979  0.30935  1.0000
  C   C265      1.0  0.24823  0.12688  0.85732  1.0000
  C   C266      1.0  0.87312  0.12136  0.85732  1.0000
  C   C267      1.0  0.79354  0.58157  0.97602  1.0000
  C   C268      1.0  0.78802  0.20646  0.97602  1.0000
  C   C269      1.0  0.12688  0.24823  0.64268  1.0000
  C   C270      1.0  0.12136  0.87312  0.64268  1.0000
  C   C271      1.0  0.45469  0.91490  0.80935  1.0000
  C   C272      1.0  0.08510  0.53979  0.80935  1.0000
  C   C273      1.0  0.46021  0.54531  0.80935  1.0000
  C   C274      1.0  0.91490  0.45469  0.69065  1.0000
  C   C275      1.0  0.78802  0.58157  0.47602  1.0000
  C   C276      1.0  0.41843  0.20646  0.47602  1.0000
  C   C277      1.0  0.79354  0.21198  0.47602  1.0000
  C   C278      1.0  0.24823  0.12136  0.35732  1.0000
  C   C279      1.0  0.12136  0.24823  0.14268  1.0000
  C   C280      1.0  0.58157  0.78802  0.02398  1.0000
  C   C281      1.0  0.53979  0.08510  0.69065  1.0000
  C   C282      1.0  0.54531  0.46021  0.69065  1.0000
  C   C283      1.0  0.75177  0.87312  0.14268  1.0000
  C   C284      1.0  0.12688  0.87864  0.14268  1.0000
  C   C285      1.0  0.20646  0.41843  0.02398  1.0000
  C   C286      1.0  0.21198  0.79354  0.02398  1.0000
  C   C287      1.0  0.87312  0.75177  0.35732  1.0000
  C   C288      1.0  0.87864  0.12688  0.35732  1.0000
  C   C289      1.0  0.48964  0.04950  0.17136  1.0000
  C   C290      1.0  0.95050  0.44014  0.17136  1.0000
  C   C291      1.0  0.55986  0.51036  0.17136  1.0000
  C   C292      1.0  0.04950  0.48964  0.32864  1.0000
  C   C293      1.0  0.15631  0.38283  0.50469  1.0000
  C   C294      1.0  0.61717  0.77347  0.50469  1.0000
  C   C295      1.0  0.22653  0.84369  0.50469  1.0000
  C   C296      1.0  0.71617  0.82297  0.66197  1.0000
  C   C297      1.0  0.82297  0.71617  0.83803  1.0000
  C   C298      1.0  0.38283  0.15631  0.99531  1.0000
  C   C299      1.0  0.44014  0.95050  0.32864  1.0000
  C   C300      1.0  0.51036  0.55986  0.32864  1.0000
  C   C301      1.0  0.28383  0.10681  0.83803  1.0000
  C   C302      1.0  0.89319  0.17703  0.83803  1.0000
  C   C303      1.0  0.77347  0.61717  0.99531  1.0000
  C   C304      1.0  0.84369  0.22653  0.99531  1.0000
  C   C305      1.0  0.10681  0.28383  0.66197  1.0000
  C   C306      1.0  0.17703  0.89319  0.66197  1.0000
  C   C307      1.0  0.51036  0.95050  0.82864  1.0000
  C   C308      1.0  0.04950  0.55986  0.82864  1.0000
  C   C309      1.0  0.44014  0.48964  0.82864  1.0000
  C   C310      1.0  0.95050  0.51036  0.67136  1.0000
  C   C311      1.0  0.84369  0.61717  0.49531  1.0000
  C   C312      1.0  0.38283  0.22653  0.49531  1.0000
  C   C313      1.0  0.77347  0.15631  0.49531  1.0000
  C   C314      1.0  0.28383  0.17703  0.33803  1.0000
  C   C315      1.0  0.17703  0.28383  0.16197  1.0000
  C   C316      1.0  0.61717  0.84369  0.00469  1.0000
  C   C317      1.0  0.55986  0.04950  0.67136  1.0000
  C   C318      1.0  0.48964  0.44014  0.67136  1.0000
  C   C319      1.0  0.71617  0.89319  0.16197  1.0000
  C   C320      1.0  0.10681  0.82297  0.16197  1.0000
  C   C321      1.0  0.22653  0.38283  0.00469  1.0000
  C   C322      1.0  0.15631  0.77347  0.00469  1.0000
  C   C323      1.0  0.89319  0.71617  0.33803  1.0000
  C   C324      1.0  0.82297  0.10681  0.33803  1.0000
  H   H73       1.0  0.47520  0.00790  0.16710  1.0000
  H   H74       1.0  0.99210  0.46730  0.16710  1.0000
  H   H75       1.0  0.53270  0.52480  0.16710  1.0000
  H   H76       1.0  0.00790  0.47520  0.33290  1.0000
  H   H77       1.0  0.14187  0.34123  0.50043  1.0000
  H   H78       1.0  0.65877  0.80063  0.50043  1.0000
  H   H79       1.0  0.19937  0.85813  0.50043  1.0000
  H   H80       1.0  0.67457  0.80853  0.66623  1.0000
  H   H81       1.0  0.80853  0.67457  0.83377  1.0000
  H   H82       1.0  0.34123  0.14187  0.99957  1.0000
  H   H83       1.0  0.46730  0.99210  0.33290  1.0000
  H   H84       1.0  0.52480  0.53270  0.33290  1.0000
  H   H85       1.0  0.32543  0.13397  0.83377  1.0000
  H   H86       1.0  0.86603  0.19147  0.83377  1.0000
  H   H87       1.0  0.80063  0.65877  0.99957  1.0000
  H   H88       1.0  0.85813  0.19937  0.99957  1.0000
  H   H89       1.0  0.13397  0.32543  0.66623  1.0000
  H   H90       1.0  0.19147  0.86603  0.66623  1.0000
  H   H91       1.0  0.52480  0.99210  0.83290  1.0000
  H   H92       1.0  0.00790  0.53270  0.83290  1.0000
  H   H93       1.0  0.46730  0.47520  0.83290  1.0000
  H   H94       1.0  0.99210  0.52480  0.66710  1.0000
  H   H95       1.0  0.85813  0.65877  0.49957  1.0000
  H   H96       1.0  0.34123  0.19937  0.49957  1.0000
  H   H97       1.0  0.80063  0.14187  0.49957  1.0000
  H   H98       1.0  0.32543  0.19147  0.33377  1.0000
  H   H99       1.0  0.19147  0.32543  0.16623  1.0000
  H   H100      1.0  0.65877  0.85813  0.00043  1.0000
  H   H101      1.0  0.53270  0.00790  0.66710  1.0000
  H   H102      1.0  0.47520  0.46730  0.66710  1.0000
  H   H103      1.0  0.67457  0.86603  0.16623  1.0000
  H   H104      1.0  0.13397  0.80853  0.16623  1.0000
  H   H105      1.0  0.19937  0.34123  0.00043  1.0000
  H   H106      1.0  0.14187  0.80063  0.00043  1.0000
  H   H107      1.0  0.86603  0.67457  0.33377  1.0000
  H   H108      1.0  0.80853  0.13397  0.33377  1.0000
  O   O109      1.0  0.36064  0.05874  0.13092  1.0000
  O   O110      1.0  0.94126  0.30190  0.13092  1.0000
  O   O111      1.0  0.69810  0.63936  0.13092  1.0000
  O   O112      1.0  0.05874  0.36064  0.36908  1.0000
  O   O113      1.0  0.02731  0.39207  0.46425  1.0000
  O   O114      1.0  0.60793  0.63523  0.46425  1.0000
  O   O115      1.0  0.36477  0.97269  0.46425  1.0000
  O   O116      1.0  0.72541  0.69397  0.70241  1.0000
  O   O117      1.0  0.69397  0.72541  0.79759  1.0000
  O   O118      1.0  0.39207  0.02731  0.03575  1.0000
  O   O119      1.0  0.30190  0.94126  0.36908  1.0000
  O   O120      1.0  0.63936  0.69810  0.36908  1.0000
  O   O121      1.0  0.27459  0.96857  0.79759  1.0000
  O   O122      1.0  0.03143  0.30603  0.79759  1.0000
  O   O123      1.0  0.63523  0.60793  0.03575  1.0000
  O   O124      1.0  0.97269  0.36477  0.03575  1.0000
  O   O125      1.0  0.96857  0.27459  0.70241  1.0000
  O   O126      1.0  0.30603  0.03143  0.70241  1.0000
  O   O127      1.0  0.63936  0.94126  0.86908  1.0000
  O   O128      1.0  0.05874  0.69810  0.86908  1.0000
  O   O129      1.0  0.30190  0.36064  0.86908  1.0000
  O   O130      1.0  0.94126  0.63936  0.63092  1.0000
  O   O131      1.0  0.97269  0.60793  0.53575  1.0000
  O   O132      1.0  0.39207  0.36477  0.53575  1.0000
  O   O133      1.0  0.63523  0.02731  0.53575  1.0000
  O   O134      1.0  0.27459  0.30603  0.29759  1.0000
  O   O135      1.0  0.30603  0.27459  0.20241  1.0000
  O   O136      1.0  0.60793  0.97269  0.96425  1.0000
  O   O137      1.0  0.69810  0.05874  0.63092  1.0000
  O   O138      1.0  0.36064  0.30190  0.63092  1.0000
  O   O139      1.0  0.72541  0.03143  0.20241  1.0000
  O   O140      1.0  0.96857  0.69397  0.20241  1.0000
  O   O141      1.0  0.36477  0.39207  0.96425  1.0000
  O   O142      1.0  0.02731  0.63523  0.96425  1.0000
  O   O143      1.0  0.03143  0.72541  0.29759  1.0000
  O   O144      1.0  0.69397  0.96857  0.29759  1.0000
  H   H109      1.0  0.53230  0.24240  0.18220  1.0000
  H   H110      1.0  0.75760  0.28990  0.18220  1.0000
  H   H111      1.0  0.71010  0.46770  0.18220  1.0000
  H   H112      1.0  0.24240  0.53230  0.31780  1.0000
  H   H113      1.0  0.19897  0.57573  0.51553  1.0000
  H   H114      1.0  0.42427  0.62323  0.51553  1.0000
  H   H115      1.0  0.37677  0.80103  0.51553  1.0000
  H   H116      1.0  0.90907  0.86563  0.65113  1.0000
  H   H117      1.0  0.86563  0.90907  0.84887  1.0000
  H   H118      1.0  0.57573  0.19897  0.98447  1.0000
  H   H119      1.0  0.28990  0.75760  0.31780  1.0000
  H   H120      1.0  0.46770  0.71010  0.31780  1.0000
  H   H121      1.0  0.09093  0.95657  0.84887  1.0000
  H   H122      1.0  0.04343  0.13437  0.84887  1.0000
  H   H123      1.0  0.62323  0.42427  0.98447  1.0000
  H   H124      1.0  0.80103  0.37677  0.98447  1.0000
  H   H125      1.0  0.95657  0.09093  0.65113  1.0000
  H   H126      1.0  0.13437  0.04343  0.65113  1.0000
  H   H127      1.0  0.46770  0.75760  0.81780  1.0000
  H   H128      1.0  0.24240  0.71010  0.81780  1.0000
  H   H129      1.0  0.28990  0.53230  0.81780  1.0000
  H   H130      1.0  0.75760  0.46770  0.68220  1.0000
  H   H131      1.0  0.80103  0.42427  0.48447  1.0000
  H   H132      1.0  0.57573  0.37677  0.48447  1.0000
  H   H133      1.0  0.62323  0.19897  0.48447  1.0000
  H   H134      1.0  0.09093  0.13437  0.34887  1.0000
  H   H135      1.0  0.13437  0.09093  0.15113  1.0000
  H   H136      1.0  0.42427  0.80103  0.01553  1.0000
  H   H137      1.0  0.71010  0.24240  0.68220  1.0000
  H   H138      1.0  0.53230  0.28990  0.68220  1.0000
  H   H139      1.0  0.90907  0.04343  0.15113  1.0000
  H   H140      1.0  0.95657  0.86563  0.15113  1.0000
  H   H141      1.0  0.37677  0.57573  0.01553  1.0000
  H   H142      1.0  0.19897  0.62323  0.01553  1.0000
  H   H143      1.0  0.04343  0.90907  0.34887  1.0000
  H   H144      1.0  0.86563  0.95657  0.34887  1.0000
