data_image0
_chemical_formula_structural       Ag2N4O6H2O6H2O4C12H2C6H2C2H2C4H2C6H2C2H2C2H2C2H2C4H2C2H2C2H2C2H2C4H2C2H2C2H2C2H2
_chemical_formula_sum              "Ag2 N4 O16 H36 C56"
_cell_length_a       8.3959
_cell_length_b       11.8088
_cell_length_c       12.8175
_cell_angle_alpha    85.507
_cell_angle_beta     79.245
_cell_angle_gamma    84.174

_space_group_name_H-M_alt    "P 1"
_space_group_IT_number       1

loop_
  _space_group_symop_operation_xyz
  'x, y, z'

loop_
  _atom_site_type_symbol
  _atom_site_label
  _atom_site_symmetry_multiplicity
  _atom_site_fract_x
  _atom_site_fract_y
  _atom_site_fract_z
  _atom_site_occupancy
  Ag  Ag1       1.0  0.62347  0.59277  0.53064  1.0000
  Ag  Ag2       1.0  0.37653  0.40723  0.46936  1.0000
  N   N1        1.0  0.81240  0.44910  0.51670  1.0000
  N   N2        1.0  0.18760  0.55090  0.48330  1.0000
  N   N3        1.0  0.46860  0.75360  0.54250  1.0000
  N   N4        1.0  0.53140  0.24640  0.45750  1.0000
  O   O1        1.0  0.43790  0.46740  0.66310  1.0000
  O   O2        1.0  0.56210  0.53260  0.33690  1.0000
  O   O3        1.0  0.55420  0.47970  0.80420  1.0000
  O   O4        1.0  0.44580  0.52030  0.19580  1.0000
  O   O5        1.0  0.16430  0.48740  0.85050  1.0000
  O   O6        1.0  0.83570  0.51260  0.14950  1.0000
  H   H1        1.0  0.08560  0.53510  0.85430  1.0000
  H   H2        1.0  0.91440  0.46490  0.14570  1.0000
  O   O7        1.0  0.98030  0.36950  0.83470  1.0000
  O   O8        1.0  0.01970  0.63050  0.16530  1.0000
  O   O9        1.0  0.61890  0.65930  0.94490  1.0000
  O   O10       1.0  0.38110  0.34070  0.05510  1.0000
  O   O11       1.0  0.66250  0.66990  0.76790  1.0000
  O   O12       1.0  0.33750  0.33010  0.23210  1.0000
  H   H3        1.0  0.63160  0.60560  0.77620  1.0000
  H   H4        1.0  0.36840  0.39440  0.22380  1.0000
  O   O13       1.0  0.96940  0.65510  0.86250  1.0000
  O   O14       1.0  0.03060  0.34490  0.13750  1.0000
  O   O15       1.0  0.14060  0.77320  0.89680  1.0000
  O   O16       1.0  0.85940  0.22680  0.10320  1.0000
  C   C1        1.0  0.46940  0.43160  0.75070  1.0000
  C   C2        1.0  0.53060  0.56840  0.24930  1.0000
  C   C3        1.0  0.11950  0.38890  0.83750  1.0000
  C   C4        1.0  0.88050  0.61110  0.16250  1.0000
  C   C5        1.0  0.66680  0.70710  0.85960  1.0000
  C   C6        1.0  0.33320  0.29290  0.14040  1.0000
  C   C7        1.0  0.00940  0.75320  0.87750  1.0000
  C   C8        1.0  0.99060  0.24680  0.12250  1.0000
  C   C9        1.0  0.50240  0.11960  0.84190  1.0000
  C   C10       1.0  0.49760  0.88040  0.15810  1.0000
  C   C11       1.0  0.53930  0.23000  0.80500  1.0000
  C   C12       1.0  0.46070  0.77000  0.19500  1.0000
  H   H5        1.0  0.64770  0.24510  0.78500  1.0000
  H   H6        1.0  0.35230  0.75490  0.21500  1.0000
  C   C13       1.0  0.41740  0.31820  0.79750  1.0000
  C   C14       1.0  0.58260  0.68180  0.20250  1.0000
  C   C15       1.0  0.25450  0.29490  0.82950  1.0000
  C   C16       1.0  0.74550  0.70510  0.17050  1.0000
  C   C17       1.0  0.21840  0.18620  0.86380  1.0000
  C   C18       1.0  0.78160  0.81380  0.13620  1.0000
  H   H7        1.0  0.11000  0.17070  0.88330  1.0000
  H   H8        1.0  0.89000  0.82930  0.11670  1.0000
  C   C19       1.0  0.33970  0.09880  0.87010  1.0000
  C   C20       1.0  0.66030  0.90120  0.12990  1.0000
  H   H9        1.0  0.31210  0.02560  0.89340  1.0000
  H   H10       1.0  0.68790  0.97440  0.10660  1.0000
  C   C21       1.0  0.63430  0.02690  0.84920  1.0000
  C   C22       1.0  0.36570  0.97310  0.15080  1.0000
  C   C23       1.0  0.60500  0.91360  0.84410  1.0000
  C   C24       1.0  0.39500  0.08640  0.15590  1.0000
  H   H11       1.0  0.50340  0.89720  0.83360  1.0000
  H   H12       1.0  0.49660  0.10280  0.16640  1.0000
  C   C25       1.0  0.72280  0.82500  0.85440  1.0000
  C   C26       1.0  0.27720  0.17500  0.14560  1.0000
  C   C27       1.0  0.87810  0.84710  0.86730  1.0000
  C   C28       1.0  0.12190  0.15290  0.13270  1.0000
  C   C29       1.0  0.90860  0.95990  0.87160  1.0000
  C   C30       1.0  0.09140  0.04010  0.12840  1.0000
  H   H13       1.0  0.01140  0.97600  0.88010  1.0000
  H   H14       1.0  0.98860  0.02400  0.11990  1.0000
  C   C31       1.0  0.79000  0.04930  0.86380  1.0000
  C   C32       1.0  0.21000  0.95070  0.13620  1.0000
  H   H15       1.0  0.81320  0.12390  0.86810  1.0000
  H   H16       1.0  0.18680  0.87610  0.13190  1.0000
  C   C33       1.0  0.86120  0.39380  0.60260  1.0000
  C   C34       1.0  0.13880  0.60620  0.39740  1.0000
  H   H17       1.0  0.82180  0.42330  0.66860  1.0000
  H   H18       1.0  0.17820  0.57670  0.33140  1.0000
  C   C35       1.0  0.96610  0.29610  0.59860  1.0000
  C   C36       1.0  0.03390  0.70390  0.40140  1.0000
  H   H19       1.0  0.99550  0.26120  0.66060  1.0000
  H   H20       1.0  0.00450  0.73880  0.33940  1.0000
  C   C37       1.0  0.02750  0.24990  0.50150  1.0000
  C   C38       1.0  0.97250  0.75010  0.49850  1.0000
  C   C39       1.0  0.98140  0.30910  0.41220  1.0000
  C   C40       1.0  0.01860  0.69090  0.58780  1.0000
  H   H21       1.0  0.02310  0.28360  0.34490  1.0000
  H   H22       1.0  0.97690  0.71640  0.65510  1.0000
  C   C41       1.0  0.87420  0.40530  0.42320  1.0000
  C   C42       1.0  0.12580  0.59470  0.57680  1.0000
  H   H23       1.0  0.84310  0.44190  0.36220  1.0000
  H   H24       1.0  0.15690  0.55810  0.63780  1.0000
  C   C43       1.0  0.38190  0.78830  0.63440  1.0000
  C   C44       1.0  0.61810  0.21170  0.36560  1.0000
  H   H25       1.0  0.38900  0.74190  0.69580  1.0000
  H   H26       1.0  0.61100  0.25810  0.30420  1.0000
  C   C45       1.0  0.28270  0.88840  0.64390  1.0000
  C   C46       1.0  0.71730  0.11160  0.35610  1.0000
  H   H27       1.0  0.22620  0.90840  0.71030  1.0000
  H   H28       1.0  0.77380  0.09160  0.28970  1.0000
  C   C47       1.0  0.26690  0.95950  0.55440  1.0000
  C   C48       1.0  0.73310  0.04050  0.44560  1.0000
  C   C49       1.0  0.35410  0.92320  0.45790  1.0000
  C   C50       1.0  0.64590  0.07680  0.54210  1.0000
  H   H29       1.0  0.34610  0.96670  0.39510  1.0000
  H   H30       1.0  0.65390  0.03330  0.60490  1.0000
  C   C51       1.0  0.45230  0.82260  0.45600  1.0000
  C   C52       1.0  0.54770  0.17740  0.54400  1.0000
  H   H31       1.0  0.51130  0.80100  0.39070  1.0000
  H   H32       1.0  0.48870  0.19900  0.60930  1.0000
  C   C53       1.0  0.13480  0.14430  0.48890  1.0000
  C   C54       1.0  0.86520  0.85570  0.51110  1.0000
  H   H33       1.0  0.18940  0.13000  0.42050  1.0000
  H   H34       1.0  0.81060  0.87000  0.57950  1.0000
  C   C55       1.0  0.16140  0.06720  0.56580  1.0000
  C   C56       1.0  0.83860  0.93280  0.43420  1.0000
  H   H35       1.0  0.10810  0.08260  0.63420  1.0000
  H   H36       1.0  0.89190  0.91740  0.36580  1.0000
