data_image0
_chemical_formula_structural       Tb4O32H8O4C16
_chemical_formula_sum              "Tb4 O36 H8 C16"
_cell_length_a       9.6439
_cell_length_b       11.6434
_cell_length_c       14.3243
_cell_angle_alpha    90
_cell_angle_beta     122.428
_cell_angle_gamma    90

_space_group_name_H-M_alt    "P 1"
_space_group_IT_number       1

loop_
  _space_group_symop_operation_xyz
  'x, y, z'

loop_
  _atom_site_type_symbol
  _atom_site_label
  _atom_site_symmetry_multiplicity
  _atom_site_fract_x
  _atom_site_fract_y
  _atom_site_fract_z
  _atom_site_occupancy
  Tb  Tb1       1.0  0.11751  0.48632  0.83193  1.0000
  Tb  Tb2       1.0  0.88249  0.98632  0.66807  1.0000
  Tb  Tb3       1.0  0.88249  0.51368  0.16807  1.0000
  Tb  Tb4       1.0  0.11751  0.01368  0.33193  1.0000
  O   O1        1.0  0.39000  0.48870  0.85730  1.0000
  O   O2        1.0  0.61000  0.98870  0.64270  1.0000
  O   O3        1.0  0.61000  0.51130  0.14270  1.0000
  O   O4        1.0  0.39000  0.01130  0.35730  1.0000
  O   O5        1.0  0.65960  0.51160  0.97730  1.0000
  O   O6        1.0  0.34040  0.01160  0.52270  1.0000
  O   O7        1.0  0.34040  0.48840  0.02270  1.0000
  O   O8        1.0  0.65960  0.98840  0.47730  1.0000
  O   O9        1.0  0.19310  0.68130  0.82810  1.0000
  O   O10       1.0  0.80690  0.18130  0.67190  1.0000
  O   O11       1.0  0.80690  0.31870  0.17190  1.0000
  O   O12       1.0  0.19310  0.81870  0.32810  1.0000
  O   O13       1.0  0.03710  0.61080  0.93560  1.0000
  O   O14       1.0  0.96290  0.11080  0.56440  1.0000
  O   O15       1.0  0.96290  0.38920  0.06440  1.0000
  O   O16       1.0  0.03710  0.88920  0.43560  1.0000
  O   O17       1.0  0.88380  0.60560  0.70240  1.0000
  O   O18       1.0  0.11620  0.10560  0.79760  1.0000
  O   O19       1.0  0.11620  0.39440  0.29760  1.0000
  O   O20       1.0  0.88380  0.89440  0.20240  1.0000
  O   O21       1.0  0.98110  0.61760  0.06690  1.0000
  O   O22       1.0  0.01890  0.11760  0.43310  1.0000
  O   O23       1.0  0.01890  0.38240  0.93310  1.0000
  O   O24       1.0  0.98110  0.88240  0.56690  1.0000
  O   O25       1.0  0.10250  0.86230  0.79340  1.0000
  O   O26       1.0  0.89750  0.36230  0.70660  1.0000
  O   O27       1.0  0.89750  0.13770  0.20660  1.0000
  O   O28       1.0  0.10250  0.63770  0.29340  1.0000
  O   O29       1.0  0.10500  0.47890  0.65530  1.0000
  O   O30       1.0  0.89500  0.97890  0.84470  1.0000
  O   O31       1.0  0.89500  0.52110  0.34470  1.0000
  O   O32       1.0  0.10500  0.02110  0.15530  1.0000
  H   H1        1.0  0.15340  0.52790  0.63450  1.0000
  H   H2        1.0  0.84660  0.02790  0.86550  1.0000
  H   H3        1.0  0.84660  0.47210  0.36550  1.0000
  H   H4        1.0  0.15340  0.97210  0.13450  1.0000
  H   H5        1.0  0.05090  0.42710  0.60280  1.0000
  H   H6        1.0  0.94910  0.92710  0.89720  1.0000
  H   H7        1.0  0.94910  0.57290  0.39720  1.0000
  H   H8        1.0  0.05090  0.07290  0.10280  1.0000
  O   O33       1.0  0.79570  0.78690  0.65650  1.0000
  O   O34       1.0  0.20430  0.28690  0.84350  1.0000
  O   O35       1.0  0.20430  0.21310  0.34350  1.0000
  O   O36       1.0  0.79570  0.71310  0.15650  1.0000
  C   C1        1.0  0.08360  0.75660  0.78310  1.0000
  C   C2        1.0  0.91640  0.25660  0.71690  1.0000
  C   C3        1.0  0.91640  0.24340  0.21690  1.0000
  C   C4        1.0  0.08360  0.74340  0.28310  1.0000
  C   C5        1.0  0.90390  0.71190  0.70590  1.0000
  C   C6        1.0  0.09610  0.21190  0.79410  1.0000
  C   C7        1.0  0.09610  0.28810  0.29410  1.0000
  C   C8        1.0  0.90390  0.78810  0.20590  1.0000
  C   C9        1.0  0.00580  0.56620  0.00100  1.0000
  C   C10       1.0  0.99420  0.06620  0.49900  1.0000
  C   C11       1.0  0.99420  0.43380  0.99900  1.0000
  C   C12       1.0  0.00580  0.93380  0.50100  1.0000
  C   C13       1.0  0.51480  0.50030  0.95150  1.0000
  C   C14       1.0  0.48520  0.00030  0.54850  1.0000
  C   C15       1.0  0.48520  0.49970  0.04850  1.0000
  C   C16       1.0  0.51480  0.99970  0.45150  1.0000
