data_image0
_chemical_formula_structural       W12Co7P2O38H4O6H4O8H4O2N2O2H4O2H4C2H2C4H2N2C2H2C2H2C2O2C2H2C2H2C2H2C2H2O2N2C2H2C4H2C2H2N2C2H2C2H2C2H2C4H2C2H2O2H4W6O24
_chemical_formula_sum              "W18 Co7 P2 O88 H56 N8 C40"
_cell_length_a       12.9851
_cell_length_b       15.6396
_cell_length_c       20.2757
_cell_angle_alpha    92.905
_cell_angle_beta     106.206
_cell_angle_gamma    113.65

_space_group_name_H-M_alt    "P 1"
_space_group_IT_number       1

loop_
  _space_group_symop_operation_xyz
  'x, y, z'

loop_
  _atom_site_type_symbol
  _atom_site_label
  _atom_site_symmetry_multiplicity
  _atom_site_fract_x
  _atom_site_fract_y
  _atom_site_fract_z
  _atom_site_occupancy
  W   W1        1.0  0.53240  0.24549  0.59353  1.0000
  W   W2        1.0  0.46760  0.75451  0.40647  1.0000
  W   W3        1.0  0.80732  0.30504  0.57949  1.0000
  W   W4        1.0  0.19268  0.69496  0.42051  1.0000
  W   W5        1.0  0.38581  0.02961  0.66244  1.0000
  W   W6        1.0  0.61419  0.97039  0.33756  1.0000
  W   W7        1.0  0.52918  0.88929  0.70811  1.0000
  W   W8        1.0  0.47082  0.11071  0.29189  1.0000
  W   W9        1.0  0.96049  0.15310  0.63084  1.0000
  W   W10       1.0  0.03951  0.84690  0.36916  1.0000
  W   W11       1.0  0.82481  0.95181  0.69173  1.0000
  W   W12       1.0  0.17519  0.04819  0.30827  1.0000
  Co  Co1       1.0  0.43393  0.90454  0.52955  1.0000
  Co  Co2       1.0  0.56607  0.09546  0.47045  1.0000
  Co  Co3       1.0  0.30546  0.03794  0.48419  1.0000
  Co  Co4       1.0  0.69454  0.96206  0.51581  1.0000
  Co  Co5       1.0  0.00000  0.50000  0.50000  1.0000
  Co  Co6       1.0  0.06500  0.68468  0.73858  1.0000
  Co  Co7       1.0  0.93500  0.31532  0.26142  1.0000
  P   P1        1.0  0.33107  0.90897  0.36083  1.0000
  P   P2        1.0  0.66893  0.09103  0.63917  1.0000
  O   O1        1.0  0.36510  0.98530  0.57210  1.0000
  O   O2        1.0  0.63490  0.01470  0.42790  1.0000
  O   O3        1.0  0.39090  0.96660  0.43650  1.0000
  O   O4        1.0  0.60910  0.03340  0.56350  1.0000
  O   O5        1.0  0.48940  0.85860  0.61670  1.0000
  O   O6        1.0  0.51060  0.14140  0.38330  1.0000
  O   O7        1.0  0.48020  0.14740  0.52150  1.0000
  O   O8        1.0  0.51980  0.85260  0.47850  1.0000
  O   O9        1.0  0.72840  0.20800  0.50710  1.0000
  O   O10       1.0  0.27160  0.79200  0.49290  1.0000
  O   O11       1.0  0.69280  0.91730  0.72600  1.0000
  O   O12       1.0  0.30720  0.08270  0.27400  1.0000
  O   O13       1.0  0.39210  0.91830  0.69270  1.0000
  O   O14       1.0  0.60790  0.08170  0.30730  1.0000
  O   O15       1.0  0.45100  0.15860  0.64630  1.0000
  O   O16       1.0  0.54900  0.84140  0.35370  1.0000
  O   O17       1.0  0.85100  0.08170  0.55060  1.0000
  O   O18       1.0  0.14900  0.91830  0.44940  1.0000
  O   O19       1.0  0.31130  0.80500  0.36110  1.0000
  O   O20       1.0  0.68870  0.19500  0.63890  1.0000
  O   O21       1.0  0.73410  0.90820  0.60290  1.0000
  O   O22       1.0  0.26590  0.09180  0.39710  1.0000
  O   O23       1.0  0.20920  0.90960  0.32700  1.0000
  O   O24       1.0  0.79080  0.09040  0.67300  1.0000
  O   O25       1.0  0.66220  0.32130  0.56540  1.0000
  O   O26       1.0  0.33780  0.67870  0.43460  1.0000
  O   O27       1.0  0.92100  0.25940  0.62030  1.0000
  O   O28       1.0  0.07900  0.74060  0.37970  1.0000
  O   O29       1.0  0.95860  0.03760  0.66550  1.0000
  O   O30       1.0  0.04140  0.96240  0.33450  1.0000
  O   O31       1.0  0.41030  0.95160  0.31570  1.0000
  O   O32       1.0  0.58970  0.04840  0.68430  1.0000
  O   O33       1.0  0.88530  0.39930  0.54490  1.0000
  O   O34       1.0  0.11470  0.60070  0.45510  1.0000
  O   O35       1.0  0.09320  0.19370  0.61430  1.0000
  O   O36       1.0  0.90680  0.80630  0.38570  1.0000
  O   O37       1.0  0.22130  0.10720  0.52740  1.0000
  O   O38       1.0  0.77870  0.89280  0.47260  1.0000
  H   H1        1.0  0.19810  0.07980  0.55990  1.0000
  H   H2        1.0  0.80190  0.92020  0.44010  1.0000
  H   H3        1.0  0.15560  0.09980  0.49640  1.0000
  H   H4        1.0  0.84440  0.90020  0.50360  1.0000
  O   O39       1.0  0.24730  0.01450  0.66230  1.0000
  O   O40       1.0  0.75270  0.98550  0.33770  1.0000
  O   O41       1.0  0.47530  0.78150  0.73450  1.0000
  O   O42       1.0  0.52470  0.21850  0.26550  1.0000
  O   O43       1.0  0.04970  0.39780  0.47560  1.0000
  O   O44       1.0  0.95030  0.60220  0.52440  1.0000
  H   H5        1.0  0.99470  0.34150  0.47360  1.0000
  H   H6        1.0  0.00530  0.65850  0.52640  1.0000
  H   H7        1.0  0.11120  0.40110  0.50920  1.0000
  H   H8        1.0  0.88880  0.59890  0.49080  1.0000
  O   O45       1.0  0.43470  0.29550  0.56750  1.0000
  O   O46       1.0  0.56530  0.70450  0.43250  1.0000
  O   O47       1.0  0.87290  0.86570  0.71480  1.0000
  O   O48       1.0  0.12710  0.13430  0.28520  1.0000
  O   O49       1.0  0.12830  0.53870  0.59630  1.0000
  O   O50       1.0  0.87170  0.46130  0.40370  1.0000
  O   O51       1.0  0.03700  0.79840  0.76980  1.0000
  O   O52       1.0  0.96300  0.20160  0.23020  1.0000
  H   H9        1.0  0.97990  0.80150  0.73770  1.0000
  H   H10       1.0  0.02010  0.19850  0.26230  1.0000
  H   H11       1.0  0.09790  0.85100  0.77320  1.0000
  H   H12       1.0  0.90210  0.14900  0.22680  1.0000
  O   O53       1.0  0.93100  0.63980  0.64360  1.0000
  O   O54       1.0  0.06900  0.36020  0.35640  1.0000
  N   N1        1.0  0.23570  0.54940  0.59540  1.0000
  N   N2        1.0  0.76430  0.45060  0.40460  1.0000
  O   O55       1.0  0.16750  0.74520  0.67500  1.0000
  O   O56       1.0  0.83250  0.25480  0.32500  1.0000
  H   H13       1.0  0.23620  0.79340  0.69930  1.0000
  H   H14       1.0  0.76380  0.20660  0.30070  1.0000
  H   H15       1.0  0.13310  0.77270  0.64500  1.0000
  H   H16       1.0  0.86690  0.22730  0.35500  1.0000
  O   O57       1.0  0.95560  0.61170  0.79550  1.0000
  O   O58       1.0  0.04440  0.38830  0.20450  1.0000
  H   H17       1.0  0.94310  0.55170  0.79180  1.0000
  H   H18       1.0  0.05690  0.44830  0.20820  1.0000
  H   H19       1.0  0.88360  0.60750  0.77740  1.0000
  H   H20       1.0  0.11640  0.39250  0.22260  1.0000
  C   C1        1.0  0.42350  0.64640  0.59030  1.0000
  C   C2        1.0  0.57650  0.35360  0.40970  1.0000
  H   H21       1.0  0.47860  0.70690  0.58690  1.0000
  H   H22       1.0  0.52140  0.29310  0.41310  1.0000
  C   C3        1.0  0.45810  0.57290  0.59610  1.0000
  C   C4        1.0  0.54190  0.42710  0.40390  1.0000
  C   C5        1.0  0.31380  0.63460  0.58940  1.0000
  C   C6        1.0  0.68620  0.36540  0.41060  1.0000
  H   H23       1.0  0.29210  0.68570  0.58450  1.0000
  H   H24       1.0  0.70790  0.31430  0.41550  1.0000
  N   N3        1.0  0.81590  0.62310  0.63090  1.0000
  N   N4        1.0  0.18410  0.37690  0.36910  1.0000
  C   C7        1.0  0.73740  0.53780  0.63500  1.0000
  C   C8        1.0  0.26260  0.46220  0.36500  1.0000
  H   H25       1.0  0.76270  0.49000  0.64770  1.0000
  H   H26       1.0  0.23730  0.51000  0.35230  1.0000
  C   C9        1.0  0.37240  0.48470  0.60080  1.0000
  C   C10       1.0  0.62760  0.51530  0.39920  1.0000
  H   H27       1.0  0.39100  0.43180  0.60420  1.0000
  H   H28       1.0  0.60900  0.56820  0.39580  1.0000
  C   C11       1.0  0.58140  0.59010  0.60310  1.0000
  C   C12       1.0  0.41860  0.40990  0.39690  1.0000
  O   O59       1.0  0.22270  0.73580  0.82170  1.0000
  O   O60       1.0  0.77730  0.26420  0.17830  1.0000
  C   C13       1.0  0.62100  0.52010  0.62110  1.0000
  C   C14       1.0  0.37900  0.47990  0.37890  1.0000
  H   H29       1.0  0.56550  0.45920  0.62350  1.0000
  H   H30       1.0  0.43450  0.54080  0.37650  1.0000
  C   C15       1.0  0.66630  0.67550  0.59700  1.0000
  C   C16       1.0  0.33370  0.32450  0.40300  1.0000
  H   H31       1.0  0.64340  0.72440  0.58380  1.0000
  H   H32       1.0  0.35660  0.27560  0.41620  1.0000
  C   C17       1.0  0.26340  0.47490  0.60060  1.0000
  C   C18       1.0  0.73660  0.52510  0.39940  1.0000
  H   H33       1.0  0.20650  0.41540  0.60410  1.0000
  H   H34       1.0  0.79350  0.58460  0.39590  1.0000
  C   C19       1.0  0.78110  0.69100  0.60940  1.0000
  C   C20       1.0  0.21890  0.30900  0.39060  1.0000
  H   H35       1.0  0.83700  0.74900  0.60310  1.0000
  H   H36       1.0  0.16300  0.25100  0.39690  1.0000
  O   O61       1.0  0.51800  0.36240  0.09660  1.0000
  O   O62       1.0  0.48200  0.63760  0.90340  1.0000
  N   N5        1.0  0.48320  0.27670  0.05720  1.0000
  N   N6        1.0  0.51680  0.72330  0.94280  1.0000
  C   C21       1.0  0.43930  0.11280  0.05370  1.0000
  C   C22       1.0  0.56070  0.88720  0.94630  1.0000
  H   H37       1.0  0.43370  0.06090  0.07720  1.0000
  H   H38       1.0  0.56630  0.93910  0.92280  1.0000
  C   C23       1.0  0.40650  0.09820  0.98060  1.0000
  C   C24       1.0  0.59350  0.90180  0.01940  1.0000
  C   C25       1.0  0.47880  0.20040  0.09080  1.0000
  C   C26       1.0  0.52120  0.79960  0.90920  1.0000
  H   H39       1.0  0.50400  0.21020  0.14040  1.0000
  H   H40       1.0  0.49600  0.78980  0.85960  1.0000
  C   C27       1.0  0.44770  0.26110  0.98830  1.0000
  C   C28       1.0  0.55230  0.73890  0.01170  1.0000
  H   H41       1.0  0.44890  0.31310  0.96580  1.0000
  H   H42       1.0  0.55110  0.68690  0.03420  1.0000
  N   N7        1.0  0.27000  0.81770  0.85940  1.0000
  N   N8        1.0  0.73000  0.18230  0.14060  1.0000
  C   C29       1.0  0.30390  0.90080  0.83020  1.0000
  C   C30       1.0  0.69610  0.09920  0.16980  1.0000
  H   H43       1.0  0.29190  0.89380  0.78150  1.0000
  H   H44       1.0  0.70810  0.10620  0.21850  1.0000
  C   C31       1.0  0.33130  0.92090  0.96770  1.0000
  C   C32       1.0  0.66870  0.07910  0.03230  1.0000
  H   H45       1.0  0.34360  0.92720  0.01650  1.0000
  H   H46       1.0  0.65640  0.07280  0.98350  1.0000
  C   C33       1.0  0.35100  0.98690  0.86630  1.0000
  C   C34       1.0  0.64900  0.01310  0.13370  1.0000
  H   H47       1.0  0.37690  0.03980  0.84400  1.0000
  H   H48       1.0  0.62310  0.96020  0.15600  1.0000
  C   C35       1.0  0.36400  0.00260  0.93940  1.0000
  C   C36       1.0  0.63600  0.99740  0.06060  1.0000
  C   C37       1.0  0.28290  0.83310  0.92960  1.0000
  C   C38       1.0  0.71710  0.16690  0.07040  1.0000
  H   H49       1.0  0.25680  0.77990  0.95160  1.0000
  H   H50       1.0  0.74320  0.22010  0.04840  1.0000
  C   C39       1.0  0.40950  0.17520  0.94710  1.0000
  C   C40       1.0  0.59050  0.82480  0.05290  1.0000
  H   H51       1.0  0.38580  0.16790  0.89760  1.0000
  H   H52       1.0  0.61420  0.83210  0.10240  1.0000
  O   O63       1.0  0.09250  0.56350  0.71810  1.0000
  O   O64       1.0  0.90750  0.43650  0.28190  1.0000
  H   H53       1.0  0.03300  0.50770  0.72120  1.0000
  H   H54       1.0  0.96700  0.49230  0.27880  1.0000
  H   H55       1.0  0.15780  0.56300  0.75130  1.0000
  H   H56       1.0  0.84220  0.43700  0.24870  1.0000
  W   W13       1.0  0.77775  0.32442  0.74352  1.0000
  W   W14       1.0  0.22225  0.67558  0.25648  1.0000
  W   W15       1.0  0.93180  0.17011  0.79554  1.0000
  W   W16       1.0  0.06820  0.82989  0.20446  1.0000
  W   W17       1.0  0.63257  0.10769  0.81095  1.0000
  W   W18       1.0  0.36743  0.89231  0.18905  1.0000
  O   O65       1.0  0.68250  0.22970  0.78260  1.0000
  O   O66       1.0  0.31750  0.77030  0.21740  1.0000
  O   O67       1.0  0.88920  0.27350  0.77200  1.0000
  O   O68       1.0  0.11080  0.72650  0.22800  1.0000
  O   O69       1.0  0.47540  0.08970  0.76180  1.0000
  O   O70       1.0  0.52460  0.91030  0.23820  1.0000
  O   O71       1.0  0.63440  0.32720  0.68700  1.0000
  O   O72       1.0  0.36560  0.67280  0.31300  1.0000
  O   O73       1.0  0.01900  0.20220  0.73350  1.0000
  O   O74       1.0  0.98100  0.79780  0.26650  1.0000
  O   O75       1.0  0.84840  0.37380  0.67560  1.0000
  O   O76       1.0  0.15160  0.62620  0.32440  1.0000
  O   O77       1.0  0.58290  0.97710  0.79970  1.0000
  O   O78       1.0  0.41710  0.02290  0.20030  1.0000
  O   O79       1.0  0.78980  0.12430  0.82060  1.0000
  O   O80       1.0  0.21020  0.87570  0.17940  1.0000
  O   O81       1.0  0.91650  0.04690  0.78300  1.0000
  O   O82       1.0  0.08350  0.95310  0.21700  1.0000
  O   O83       1.0  0.64120  0.13790  0.89500  1.0000
  O   O84       1.0  0.35880  0.86210  0.10500  1.0000
  O   O85       1.0  0.04150  0.22040  0.87510  1.0000
  O   O86       1.0  0.95850  0.77960  0.12490  1.0000
  O   O87       1.0  0.83530  0.42360  0.80650  1.0000
  O   O88       1.0  0.16470  0.57640  0.19350  1.0000
