data_image0
_chemical_formula_structural       W18Co7P2O40H4O8H4O10H4O22H4O2H4N2O4H4N4C2H2C2H2C2H2C2H2C4H2C4H2C2H2C2H2O2N2C4H2C2H2C2H2C4H2C2H2C2H2C2H2C2H2
_chemical_formula_sum              "W18 Co7 P2 O88 H56 N8 C40"
_cell_length_a       12.9912
_cell_length_b       15.6599
_cell_length_c       20.2581
_cell_angle_alpha    92.911
_cell_angle_beta     106.248
_cell_angle_gamma    113.7

_space_group_name_H-M_alt    "P 1"
_space_group_IT_number       1

loop_
  _space_group_symop_operation_xyz
  'x, y, z'

loop_
  _atom_site_type_symbol
  _atom_site_label
  _atom_site_symmetry_multiplicity
  _atom_site_fract_x
  _atom_site_fract_y
  _atom_site_fract_z
  _atom_site_occupancy
  W   W1        1.0  0.30713  0.30508  0.57937  1.0000
  W   W2        1.0  0.69287  0.69492  0.42063  1.0000
  W   W3        1.0  0.32516  0.95274  0.69250  1.0000
  W   W4        1.0  0.67484  0.04726  0.30750  1.0000
  W   W5        1.0  0.88573  0.03007  0.66242  1.0000
  W   W6        1.0  0.11427  0.96993  0.33758  1.0000
  W   W7        1.0  0.43196  0.17113  0.79613  1.0000
  W   W8        1.0  0.56804  0.82887  0.20387  1.0000
  W   W9        1.0  0.27755  0.32496  0.74355  1.0000
  W   W10       1.0  0.72245  0.67504  0.25645  1.0000
  W   W11       1.0  0.03211  0.24553  0.59327  1.0000
  W   W12       1.0  0.96789  0.75447  0.40673  1.0000
  W   W13       1.0  0.13257  0.10864  0.81123  1.0000
  W   W14       1.0  0.86743  0.89136  0.18877  1.0000
  W   W15       1.0  0.02926  0.89011  0.70864  1.0000
  W   W16       1.0  0.97074  0.10989  0.29136  1.0000
  W   W17       1.0  0.46051  0.15344  0.63122  1.0000
  W   W18       1.0  0.53949  0.84656  0.36878  1.0000
  Co  Co1       1.0  0.06595  0.09532  0.47027  1.0000
  Co  Co2       1.0  0.93405  0.90468  0.52973  1.0000
  Co  Co3       1.0  0.19479  0.96219  0.51610  1.0000
  Co  Co4       1.0  0.80521  0.03781  0.48390  1.0000
  Co  Co5       1.0  0.50000  0.50000  0.50000  1.0000
  Co  Co6       1.0  0.43474  0.31483  0.26070  1.0000
  Co  Co7       1.0  0.56526  0.68517  0.73930  1.0000
  P   P1        1.0  0.16877  0.09125  0.63896  1.0000
  P   P2        1.0  0.83123  0.90875  0.36104  1.0000
  O   O1        1.0  0.28980  0.12550  0.82150  1.0000
  O   O2        1.0  0.71020  0.87450  0.17850  1.0000
  O   O3        1.0  0.34820  0.37390  0.67590  1.0000
  O   O4        1.0  0.65180  0.62610  0.32410  1.0000
  O   O5        1.0  0.97550  0.09060  0.76160  1.0000
  O   O6        1.0  0.02450  0.90940  0.23840  1.0000
  O   O7        1.0  0.18330  0.23110  0.78290  1.0000
  O   O8        1.0  0.81670  0.76890  0.21710  1.0000
  O   O9        1.0  0.45810  0.03820  0.66660  1.0000
  O   O10       1.0  0.54190  0.96180  0.33340  1.0000
  O   O11       1.0  0.13410  0.32780  0.68630  1.0000
  O   O12       1.0  0.86590  0.67220  0.31370  1.0000
  O   O13       1.0  0.16110  0.32150  0.56510  1.0000
  O   O14       1.0  0.83890  0.67850  0.43490  1.0000
  O   O15       1.0  0.51830  0.20310  0.73380  1.0000
  O   O16       1.0  0.48170  0.79690  0.26620  1.0000
  O   O17       1.0  0.38950  0.27430  0.77260  1.0000
  O   O18       1.0  0.61050  0.72570  0.22740  1.0000
  O   O19       1.0  0.89040  0.91840  0.69340  1.0000
  O   O20       1.0  0.10960  0.08160  0.30660  1.0000
  O   O21       1.0  0.86540  0.98520  0.57200  1.0000
  O   O22       1.0  0.13460  0.01480  0.42800  1.0000
  O   O23       1.0  0.97970  0.14760  0.52110  1.0000
  O   O24       1.0  0.02030  0.85240  0.47890  1.0000
  O   O25       1.0  0.08930  0.04940  0.68430  1.0000
  O   O26       1.0  0.91070  0.95060  0.31570  1.0000
  O   O27       1.0  0.08250  0.97820  0.80000  1.0000
  O   O28       1.0  0.91750  0.02180  0.20000  1.0000
  O   O29       1.0  0.98940  0.85860  0.61690  1.0000
  O   O30       1.0  0.01060  0.14140  0.38310  1.0000
  O   O31       1.0  0.95030  0.15860  0.64570  1.0000
  O   O32       1.0  0.04970  0.84140  0.35430  1.0000
  O   O33       1.0  0.35220  0.08170  0.55070  1.0000
  O   O34       1.0  0.64780  0.91830  0.44930  1.0000
  O   O35       1.0  0.10960  0.03370  0.56390  1.0000
  O   O36       1.0  0.89040  0.96630  0.43610  1.0000
  O   O37       1.0  0.19230  0.91790  0.72640  1.0000
  O   O38       1.0  0.80770  0.08210  0.27360  1.0000
  O   O39       1.0  0.44970  0.60220  0.52390  1.0000
  O   O40       1.0  0.55030  0.39780  0.47610  1.0000
  H   H1        1.0  0.44763  0.60364  0.56564  1.0000
  H   H2        1.0  0.55237  0.39636  0.43436  1.0000
  H   H3        1.0  0.50340  0.65639  0.52487  1.0000
  H   H4        1.0  0.49660  0.34361  0.47513  1.0000
  O   O41       1.0  0.93500  0.29590  0.56770  1.0000
  O   O42       1.0  0.06500  0.70410  0.43230  1.0000
  O   O43       1.0  0.22820  0.20790  0.50780  1.0000
  O   O44       1.0  0.77180  0.79210  0.49220  1.0000
  O   O45       1.0  0.41560  0.04790  0.78380  1.0000
  O   O46       1.0  0.58440  0.95210  0.21620  1.0000
  O   O47       1.0  0.46230  0.20040  0.23000  1.0000
  O   O48       1.0  0.53770  0.79960  0.77000  1.0000
  H   H5        1.0  0.48447  0.20829  0.19404  1.0000
  H   H6        1.0  0.51553  0.79171  0.80596  1.0000
  H   H7        1.0  0.52110  0.19948  0.26130  1.0000
  H   H8        1.0  0.47890  0.80052  0.73870  1.0000
  O   O49       1.0  0.42060  0.25850  0.62030  1.0000
  O   O50       1.0  0.57940  0.74150  0.37970  1.0000
  O   O51       1.0  0.23410  0.90830  0.60350  1.0000
  O   O52       1.0  0.76590  0.09170  0.39650  1.0000
  O   O53       1.0  0.59320  0.19430  0.61440  1.0000
  O   O54       1.0  0.40680  0.80570  0.38560  1.0000
  O   O55       1.0  0.18880  0.19570  0.63870  1.0000
  O   O56       1.0  0.81120  0.80430  0.36130  1.0000
  O   O57       1.0  0.28030  0.89340  0.47300  1.0000
  O   O58       1.0  0.71970  0.10660  0.52700  1.0000
  H   H9        1.0  0.31407  0.85715  0.49959  1.0000
  H   H10       1.0  0.68593  0.14285  0.50041  1.0000
  H   H11       1.0  0.28458  0.89898  0.42726  1.0000
  H   H12       1.0  0.71542  0.10102  0.57274  1.0000
  O   O59       1.0  0.74770  0.01560  0.66210  1.0000
  O   O60       1.0  0.25230  0.98440  0.33790  1.0000
  O   O61       1.0  0.33520  0.42450  0.80650  1.0000
  O   O62       1.0  0.66480  0.57550  0.19350  1.0000
  O   O63       1.0  0.54140  0.22130  0.87560  1.0000
  O   O64       1.0  0.45860  0.77870  0.12440  1.0000
  O   O65       1.0  0.97620  0.78270  0.73540  1.0000
  O   O66       1.0  0.02380  0.21730  0.26460  1.0000
  O   O67       1.0  0.14030  0.13900  0.89520  1.0000
  O   O68       1.0  0.85970  0.86100  0.10480  1.0000
  O   O69       1.0  0.37050  0.46080  0.40350  1.0000
  O   O70       1.0  0.62950  0.53920  0.59650  1.0000
  O   O71       1.0  0.38530  0.39970  0.54470  1.0000
  O   O72       1.0  0.61470  0.60030  0.45530  1.0000
  O   O73       1.0  0.29070  0.09080  0.67360  1.0000
  O   O74       1.0  0.70930  0.90920  0.32640  1.0000
  O   O75       1.0  0.37340  0.86680  0.71580  1.0000
  O   O76       1.0  0.62660  0.13320  0.28420  1.0000
  O   O77       1.0  0.56930  0.35990  0.35640  1.0000
  O   O78       1.0  0.43070  0.64010  0.64360  1.0000
  O   O79       1.0  0.54440  0.38880  0.20450  1.0000
  O   O80       1.0  0.45560  0.61120  0.79550  1.0000
  H   H13       1.0  0.61197  0.38804  0.22073  1.0000
  H   H14       1.0  0.38803  0.61196  0.77927  1.0000
  H   H15       1.0  0.55950  0.44737  0.21223  1.0000
  H   H16       1.0  0.44050  0.55263  0.78777  1.0000
  O   O81       1.0  0.33110  0.25080  0.32320  1.0000
  O   O82       1.0  0.66890  0.74920  0.67680  1.0000
  H   H17       1.0  0.25552  0.22900  0.29903  1.0000
  H   H18       1.0  0.74448  0.77100  0.70097  1.0000
  H   H19       1.0  0.34252  0.29424  0.35686  1.0000
  H   H20       1.0  0.65748  0.70576  0.64314  1.0000
  N   N1        1.0  0.23150  0.18210  0.14050  1.0000
  N   N2        1.0  0.76850  0.81790  0.85950  1.0000
  O   O83       1.0  0.27830  0.26410  0.17700  1.0000
  O   O84       1.0  0.72170  0.73590  0.82300  1.0000
  O   O85       1.0  0.40200  0.43300  0.27900  1.0000
  O   O86       1.0  0.59800  0.56700  0.72100  1.0000
  H   H21       1.0  0.37826  0.43739  0.31350  1.0000
  H   H22       1.0  0.62174  0.56261  0.68650  1.0000
  H   H23       1.0  0.45858  0.48728  0.28377  1.0000
  H   H24       1.0  0.54142  0.51272  0.71623  1.0000
  N   N3        1.0  0.26280  0.45040  0.40420  1.0000
  N   N4        1.0  0.73720  0.54960  0.59580  1.0000
  N   N5        1.0  0.68300  0.37640  0.36900  1.0000
  N   N6        1.0  0.31700  0.62360  0.63100  1.0000
  C   C1        1.0  0.18580  0.36600  0.41000  1.0000
  C   C2        1.0  0.81420  0.63400  0.59000  1.0000
  H   H25       1.0  0.20774  0.31495  0.41416  1.0000
  H   H26       1.0  0.79226  0.68505  0.58584  1.0000
  C   C3        1.0  0.83210  0.32360  0.40230  1.0000
  C   C4        1.0  0.16790  0.67640  0.59770  1.0000
  H   H27       1.0  0.85470  0.27484  0.41591  1.0000
  H   H28       1.0  0.14530  0.72516  0.58409  1.0000
  C   C5        1.0  0.87850  0.48010  0.37880  1.0000
  C   C6        1.0  0.12150  0.51990  0.62120  1.0000
  H   H29       1.0  0.93360  0.54093  0.37613  1.0000
  H   H30       1.0  0.06640  0.45907  0.62387  1.0000
  C   C7        1.0  0.07440  0.35300  0.41000  1.0000
  C   C8        1.0  0.92560  0.64700  0.59000  1.0000
  H   H31       1.0  0.01964  0.29302  0.41430  1.0000
  H   H32       1.0  0.98036  0.70698  0.58570  1.0000
  C   C9        1.0  0.04190  0.42710  0.40370  1.0000
  C   C10       1.0  0.95810  0.57290  0.59630  1.0000
  C   C11       1.0  0.12650  0.51450  0.39970  1.0000
  C   C12       1.0  0.87350  0.48550  0.60030  1.0000
  H   H33       1.0  0.10771  0.56719  0.39668  1.0000
  H   H34       1.0  0.89229  0.43281  0.60332  1.0000
  C   C13       1.0  0.91840  0.40990  0.39670  1.0000
  C   C14       1.0  0.08160  0.59010  0.60330  1.0000
  C   C15       1.0  0.76230  0.46140  0.36530  1.0000
  C   C16       1.0  0.23770  0.53860  0.63470  1.0000
  H   H35       1.0  0.73707  0.50932  0.35309  1.0000
  H   H36       1.0  0.26293  0.49068  0.64691  1.0000
  C   C17       1.0  0.23610  0.52500  0.40000  1.0000
  C   C18       1.0  0.76390  0.47500  0.60000  1.0000
  H   H37       1.0  0.29345  0.58481  0.39728  1.0000
  H   H38       1.0  0.70655  0.41519  0.60272  1.0000
  C   C19       1.0  0.71880  0.30840  0.38900  1.0000
  C   C20       1.0  0.28120  0.69160  0.61100  1.0000
  H   H39       1.0  0.66246  0.24931  0.39349  1.0000
  H   H40       1.0  0.33754  0.75069  0.60651  1.0000
  O   O87       1.0  0.97860  0.63580  0.90330  1.0000
  O   O88       1.0  0.02140  0.36420  0.09670  1.0000
  N   N7        1.0  0.01530  0.72180  0.94220  1.0000
  N   N8        1.0  0.98470  0.27820  0.05780  1.0000
  C   C21       1.0  0.13750  0.99640  0.06040  1.0000
  C   C22       1.0  0.86250  0.00360  0.93960  1.0000
  C   C23       1.0  0.21700  0.16750  0.07060  1.0000
  C   C24       1.0  0.78300  0.83250  0.92940  1.0000
  H   H41       1.0  0.24191  0.22131  0.04905  1.0000
  H   H42       1.0  0.75809  0.77869  0.95095  1.0000
  C   C25       1.0  0.15070  0.01450  0.13270  1.0000
  C   C26       1.0  0.84930  0.98550  0.86730  1.0000
  H   H43       1.0  0.12561  0.96185  0.15541  1.0000
  H   H44       1.0  0.87439  0.03815  0.84459  1.0000
  C   C27       1.0  0.01880  0.79680  0.90820  1.0000
  C   C28       1.0  0.98120  0.20320  0.09180  1.0000
  H   H45       1.0  0.99316  0.78689  0.85853  1.0000
  H   H46       1.0  0.00684  0.21311  0.14147  1.0000
  C   C29       1.0  0.09210  0.90130  0.01890  1.0000
  C   C30       1.0  0.90790  0.09870  0.98110  1.0000
  C   C31       1.0  0.05920  0.88540  0.94620  1.0000
  C   C32       1.0  0.94080  0.11460  0.05380  1.0000
  H   H47       1.0  0.06489  0.93715  0.92257  1.0000
  H   H48       1.0  0.93511  0.06285  0.07743  1.0000
  C   C33       1.0  0.17030  0.08300  0.03220  1.0000
  C   C34       1.0  0.82970  0.91700  0.96780  1.0000
  H   H49       1.0  0.15733  0.07820  0.98330  1.0000
  H   H50       1.0  0.84267  0.92180  0.01670  1.0000
  C   C35       1.0  0.19600  0.10050  0.16970  1.0000
  C   C36       1.0  0.80400  0.89950  0.83030  1.0000
  H   H51       1.0  0.20496  0.10731  0.21806  1.0000
  H   H52       1.0  0.79504  0.89269  0.78194  1.0000
  C   C37       1.0  0.08710  0.82370  0.05060  1.0000
  C   C38       1.0  0.91290  0.17630  0.94940  1.0000
  H   H53       1.0  0.11038  0.83185  0.10020  1.0000
  H   H54       1.0  0.88962  0.16815  0.89980  1.0000
  C   C39       1.0  0.04900  0.73490  0.01190  1.0000
  C   C40       1.0  0.95100  0.26510  0.98810  1.0000
  H   H55       1.0  0.04688  0.68318  0.03494  1.0000
  H   H56       1.0  0.95312  0.31682  0.96506  1.0000
