data_image0
_chemical_formula_structural       Zn4S4O28N8H4C8H4C8H4C8H4C12H4C4H4C4H4
_chemical_formula_sum              "Zn4 S4 O28 N8 H28 C44"
_cell_length_a       8.1331
_cell_length_b       14.6556
_cell_length_c       16.8257
_cell_angle_alpha    90
_cell_angle_beta     90
_cell_angle_gamma    90

_space_group_name_H-M_alt    "P 1"
_space_group_IT_number       1

loop_
  _space_group_symop_operation_xyz
  'x, y, z'

loop_
  _atom_site_type_symbol
  _atom_site_label
  _atom_site_symmetry_multiplicity
  _atom_site_fract_x
  _atom_site_fract_y
  _atom_site_fract_z
  _atom_site_occupancy
  Zn  Zn1       1.0  0.56025  0.47249  0.95475  1.0000
  Zn  Zn2       1.0  0.93975  0.52751  0.45475  1.0000
  Zn  Zn3       1.0  0.43975  0.97249  0.54525  1.0000
  Zn  Zn4       1.0  0.06025  0.02751  0.04525  1.0000
  S   S1        1.0  0.16898  0.13599  0.21019  1.0000
  S   S2        1.0  0.33102  0.86401  0.71019  1.0000
  S   S3        1.0  0.83102  0.63599  0.28981  1.0000
  S   S4        1.0  0.66898  0.36401  0.78981  1.0000
  O   O1        1.0  0.46790  0.38246  0.03073  1.0000
  O   O2        1.0  0.03210  0.61754  0.53073  1.0000
  O   O3        1.0  0.53210  0.88246  0.46927  1.0000
  O   O4        1.0  0.96790  0.11754  0.96927  1.0000
  O   O5        1.0  0.42710  0.51686  0.08373  1.0000
  O   O6        1.0  0.07290  0.48314  0.58373  1.0000
  O   O7        1.0  0.57290  0.01686  0.41627  1.0000
  O   O8        1.0  0.92710  0.98314  0.91627  1.0000
  O   O9        1.0  0.02480  0.42780  0.39049  1.0000
  O   O10       1.0  0.47520  0.57220  0.89049  1.0000
  O   O11       1.0  0.97520  0.92780  0.10951  1.0000
  O   O12       1.0  0.52480  0.07220  0.60951  1.0000
  O   O13       1.0  0.22670  0.52606  0.36863  1.0000
  O   O14       1.0  0.27330  0.47394  0.86863  1.0000
  O   O15       1.0  0.77330  0.02606  0.13137  1.0000
  O   O16       1.0  0.72670  0.97394  0.63137  1.0000
  O   O17       1.0  0.13670  0.12159  0.12585  1.0000
  O   O18       1.0  0.36330  0.87841  0.62585  1.0000
  O   O19       1.0  0.86330  0.62159  0.37415  1.0000
  O   O20       1.0  0.63670  0.37841  0.87415  1.0000
  O   O21       1.0  0.31350  0.08923  0.23653  1.0000
  O   O22       1.0  0.18650  0.91077  0.73653  1.0000
  O   O23       1.0  0.68650  0.58923  0.26347  1.0000
  O   O24       1.0  0.81350  0.41077  0.76347  1.0000
  O   O25       1.0  0.02540  0.12088  0.25922  1.0000
  O   O26       1.0  0.47460  0.87912  0.75922  1.0000
  O   O27       1.0  0.97460  0.62088  0.24078  1.0000
  O   O28       1.0  0.52540  0.37912  0.74078  1.0000
  N   N1        1.0  0.78190  0.50984  0.99560  1.0000
  N   N2        1.0  0.71810  0.49016  0.49560  1.0000
  N   N3        1.0  0.21810  0.00984  0.50440  1.0000
  N   N4        1.0  0.28190  0.99016  0.00440  1.0000
  N   N5        1.0  0.97230  0.55560  0.07760  1.0000
  N   N6        1.0  0.52770  0.44440  0.57760  1.0000
  N   N7        1.0  0.02770  0.05560  0.42240  1.0000
  N   N8        1.0  0.47230  0.94440  0.92240  1.0000
  H   H1        1.0  0.02050  0.57780  0.11870  1.0000
  H   H2        1.0  0.47950  0.42220  0.61870  1.0000
  H   H3        1.0  0.97950  0.07780  0.38130  1.0000
  H   H4        1.0  0.52050  0.92220  0.88130  1.0000
  C   C1        1.0  0.33330  0.38743  0.15514  1.0000
  C   C2        1.0  0.16670  0.61257  0.65514  1.0000
  C   C3        1.0  0.66670  0.88743  0.34486  1.0000
  C   C4        1.0  0.83330  0.11257  0.84486  1.0000
  C   C5        1.0  0.28910  0.43733  0.22199  1.0000
  C   C6        1.0  0.21090  0.56267  0.72199  1.0000
  C   C7        1.0  0.71090  0.93733  0.27801  1.0000
  C   C8        1.0  0.78910  0.06267  0.77801  1.0000
  H   H5        1.0  0.31760  0.49870  0.22510  1.0000
  H   H6        1.0  0.18240  0.50130  0.72510  1.0000
  H   H7        1.0  0.68240  0.99870  0.27490  1.0000
  H   H8        1.0  0.81760  0.00130  0.77490  1.0000
  C   C9        1.0  0.20410  0.39773  0.28354  1.0000
  C   C10       1.0  0.29590  0.60227  0.78354  1.0000
  C   C11       1.0  0.79590  0.89773  0.21646  1.0000
  C   C12       1.0  0.70410  0.10227  0.71646  1.0000
  C   C13       1.0  0.16340  0.30549  0.27956  1.0000
  C   C14       1.0  0.33660  0.69451  0.77956  1.0000
  C   C15       1.0  0.83660  0.80549  0.22044  1.0000
  C   C16       1.0  0.66340  0.19451  0.72044  1.0000
  H   H9        1.0  0.10400  0.27820  0.32040  1.0000
  H   H10       1.0  0.39600  0.72180  0.82040  1.0000
  H   H11       1.0  0.89600  0.77820  0.17960  1.0000
  H   H12       1.0  0.60400  0.22180  0.67960  1.0000
  C   C17       1.0  0.21240  0.25449  0.21395  1.0000
  C   C18       1.0  0.28760  0.74551  0.71395  1.0000
  C   C19       1.0  0.78760  0.75449  0.28605  1.0000
  C   C20       1.0  0.71240  0.24551  0.78605  1.0000
  C   C21       1.0  0.29540  0.29475  0.15237  1.0000
  C   C22       1.0  0.20460  0.70525  0.65237  1.0000
  C   C23       1.0  0.70460  0.79475  0.34763  1.0000
  C   C24       1.0  0.79540  0.20525  0.84763  1.0000
  H   H13       1.0  0.32660  0.26010  0.10860  1.0000
  H   H14       1.0  0.17340  0.73990  0.60860  1.0000
  H   H15       1.0  0.67340  0.76010  0.39140  1.0000
  H   H16       1.0  0.82660  0.23990  0.89140  1.0000
  C   C25       1.0  0.41430  0.43270  0.08611  1.0000
  C   C26       1.0  0.08570  0.56730  0.58611  1.0000
  C   C27       1.0  0.58570  0.93270  0.41389  1.0000
  C   C28       1.0  0.91430  0.06730  0.91389  1.0000
  C   C29       1.0  0.15200  0.45601  0.35300  1.0000
  C   C30       1.0  0.34800  0.54399  0.85300  1.0000
  C   C31       1.0  0.84800  0.95601  0.14700  1.0000
  C   C32       1.0  0.65200  0.04399  0.64700  1.0000
  C   C33       1.0  0.81280  0.54820  0.06620  1.0000
  C   C34       1.0  0.68720  0.45180  0.56620  1.0000
  C   C35       1.0  0.18720  0.04820  0.43380  1.0000
  C   C36       1.0  0.31280  0.95180  0.93380  1.0000
  H   H17       1.0  0.73280  0.56700  0.10220  1.0000
  H   H18       1.0  0.76720  0.43300  0.60220  1.0000
  H   H19       1.0  0.26720  0.06700  0.39780  1.0000
  H   H20       1.0  0.23280  0.93300  0.89780  1.0000
  C   C37       1.0  0.93110  0.49440  0.96270  1.0000
  C   C38       1.0  0.56890  0.50560  0.46270  1.0000
  C   C39       1.0  0.06890  0.99440  0.53730  1.0000
  C   C40       1.0  0.43110  0.00560  0.03730  1.0000
  H   H21       1.0  0.94670  0.46850  0.91280  1.0000
  H   H22       1.0  0.55330  0.53150  0.41280  1.0000
  H   H23       1.0  0.05330  0.96850  0.58720  1.0000
  H   H24       1.0  0.44670  0.03150  0.08720  1.0000
  C   C41       1.0  0.04900  0.52000  0.00890  1.0000
  C   C42       1.0  0.45100  0.48000  0.50890  1.0000
  C   C43       1.0  0.95100  0.02000  0.49110  1.0000
  C   C44       1.0  0.54900  0.98000  0.99110  1.0000
  H   H25       1.0  0.16130  0.51580  0.99900  1.0000
  H   H26       1.0  0.33870  0.48420  0.49900  1.0000
  H   H27       1.0  0.83870  0.01580  0.50100  1.0000
  H   H28       1.0  0.66130  0.98420  0.00100  1.0000
