data_image0
_chemical_formula_structural       Zn4S4O28N8H4C8H4C8H4C8H4C12H4C4H4C4H4
_chemical_formula_sum              "Zn4 S4 O28 N8 H28 C44"
_cell_length_a       8.1331
_cell_length_b       14.6556
_cell_length_c       16.8257
_cell_angle_alpha    90
_cell_angle_beta     90
_cell_angle_gamma    90

_space_group_name_H-M_alt    "P 1"
_space_group_IT_number       1

loop_
  _space_group_symop_operation_xyz
  'x, y, z'

loop_
  _atom_site_type_symbol
  _atom_site_label
  _atom_site_symmetry_multiplicity
  _atom_site_fract_x
  _atom_site_fract_y
  _atom_site_fract_z
  _atom_site_occupancy
  Zn  Zn1       1.0  0.43968  0.52748  0.04526  1.0000
  Zn  Zn2       1.0  0.06032  0.47253  0.54526  1.0000
  Zn  Zn3       1.0  0.56032  0.02747  0.45474  1.0000
  Zn  Zn4       1.0  0.93968  0.97252  0.95474  1.0000
  S   S1        1.0  0.83109  0.86405  0.78970  1.0000
  S   S2        1.0  0.66891  0.13595  0.28970  1.0000
  S   S3        1.0  0.16891  0.36405  0.71030  1.0000
  S   S4        1.0  0.33109  0.63595  0.21030  1.0000
  O   O1        1.0  0.53130  0.61765  0.96936  1.0000
  O   O2        1.0  0.96870  0.38235  0.46936  1.0000
  O   O3        1.0  0.46870  0.11765  0.53064  1.0000
  O   O4        1.0  0.03130  0.88235  0.03064  1.0000
  O   O5        1.0  0.57270  0.48320  0.91653  1.0000
  O   O6        1.0  0.92730  0.51680  0.41653  1.0000
  O   O7        1.0  0.42730  0.98320  0.58347  1.0000
  O   O8        1.0  0.07270  0.01680  0.08347  1.0000
  O   O9        1.0  0.97500  0.57226  0.60937  1.0000
  O   O10       1.0  0.52500  0.42774  0.10937  1.0000
  O   O11       1.0  0.02500  0.07226  0.89063  1.0000
  O   O12       1.0  0.47500  0.92774  0.39063  1.0000
  O   O13       1.0  0.77300  0.47387  0.63138  1.0000
  O   O14       1.0  0.72700  0.52613  0.13138  1.0000
  O   O15       1.0  0.22700  0.97387  0.86862  1.0000
  O   O16       1.0  0.27300  0.02613  0.36862  1.0000
  O   O17       1.0  0.86380  0.87866  0.87415  1.0000
  O   O18       1.0  0.63620  0.12134  0.37415  1.0000
  O   O19       1.0  0.13620  0.37866  0.62585  1.0000
  O   O20       1.0  0.36380  0.62134  0.12585  1.0000
  O   O21       1.0  0.68610  0.91059  0.76317  1.0000
  O   O22       1.0  0.81390  0.08941  0.26317  1.0000
  O   O23       1.0  0.31390  0.41059  0.73683  1.0000
  O   O24       1.0  0.18610  0.58941  0.23683  1.0000
  O   O25       1.0  0.97480  0.87937  0.74090  1.0000
  O   O26       1.0  0.52520  0.12063  0.24090  1.0000
  O   O27       1.0  0.02520  0.37937  0.75910  1.0000
  O   O28       1.0  0.47480  0.62063  0.25910  1.0000
  N   N1        1.0  0.21770  0.49004  0.00462  1.0000
  N   N2        1.0  0.28230  0.50996  0.50462  1.0000
  N   N3        1.0  0.78230  0.99004  0.49538  1.0000
  N   N4        1.0  0.71770  0.00996  0.99538  1.0000
  N   N5        1.0  0.02780  0.44430  0.92200  1.0000
  N   N6        1.0  0.47220  0.55570  0.42200  1.0000
  N   N7        1.0  0.97220  0.94430  0.57800  1.0000
  N   N8        1.0  0.52780  0.05570  0.07800  1.0000
  H   H1        1.0  0.98000  0.42220  0.88060  1.0000
  H   H2        1.0  0.52000  0.57780  0.38060  1.0000
  H   H3        1.0  0.02000  0.92220  0.61940  1.0000
  H   H4        1.0  0.48000  0.07780  0.11940  1.0000
  C   C1        1.0  0.66680  0.61280  0.84495  1.0000
  C   C2        1.0  0.83320  0.38720  0.34495  1.0000
  C   C3        1.0  0.33320  0.11280  0.65505  1.0000
  C   C4        1.0  0.16680  0.88720  0.15505  1.0000
  C   C5        1.0  0.71090  0.56240  0.77818  1.0000
  C   C6        1.0  0.78910  0.43760  0.27818  1.0000
  C   C7        1.0  0.28910  0.06240  0.72182  1.0000
  C   C8        1.0  0.21090  0.93760  0.22182  1.0000
  H   H5        1.0  0.68230  0.50110  0.77500  1.0000
  H   H6        1.0  0.81770  0.49890  0.27500  1.0000
  H   H7        1.0  0.31770  0.00110  0.72500  1.0000
  H   H8        1.0  0.18230  0.99890  0.22500  1.0000
  C   C9        1.0  0.79630  0.60232  0.71680  1.0000
  C   C10       1.0  0.70370  0.39768  0.21680  1.0000
  C   C11       1.0  0.20370  0.10232  0.78320  1.0000
  C   C12       1.0  0.29630  0.89768  0.28320  1.0000
  C   C13       1.0  0.83690  0.69482  0.72062  1.0000
  C   C14       1.0  0.66310  0.30518  0.22062  1.0000
  C   C15       1.0  0.16310  0.19482  0.77938  1.0000
  C   C16       1.0  0.33690  0.80518  0.27938  1.0000
  H   H9        1.0  0.89650  0.72200  0.67980  1.0000
  H   H10       1.0  0.60350  0.27800  0.17980  1.0000
  H   H11       1.0  0.10350  0.22200  0.82020  1.0000
  H   H12       1.0  0.39650  0.77800  0.32020  1.0000
  C   C17       1.0  0.78760  0.74572  0.78575  1.0000
  C   C18       1.0  0.71240  0.25428  0.28575  1.0000
  C   C19       1.0  0.21240  0.24572  0.71425  1.0000
  C   C20       1.0  0.28760  0.75428  0.21425  1.0000
  C   C21       1.0  0.70440  0.70510  0.84775  1.0000
  C   C22       1.0  0.79560  0.29490  0.34775  1.0000
  C   C23       1.0  0.29560  0.20510  0.65225  1.0000
  C   C24       1.0  0.20440  0.79490  0.15225  1.0000
  H   H13       1.0  0.67340  0.73970  0.89160  1.0000
  H   H14       1.0  0.82660  0.26030  0.39160  1.0000
  H   H15       1.0  0.32660  0.23970  0.60840  1.0000
  H   H16       1.0  0.17340  0.76030  0.10840  1.0000
  C   C25       1.0  0.58490  0.56767  0.91425  1.0000
  C   C26       1.0  0.91510  0.43233  0.41425  1.0000
  C   C27       1.0  0.41510  0.06767  0.58575  1.0000
  C   C28       1.0  0.08490  0.93233  0.08575  1.0000
  C   C29       1.0  0.84820  0.54404  0.64693  1.0000
  C   C30       1.0  0.65180  0.45596  0.14693  1.0000
  C   C31       1.0  0.15180  0.04404  0.85307  1.0000
  C   C32       1.0  0.34820  0.95596  0.35307  1.0000
  C   C33       1.0  0.18680  0.45184  0.93357  1.0000
  C   C34       1.0  0.31320  0.54816  0.43357  1.0000
  C   C35       1.0  0.81320  0.95184  0.56643  1.0000
  C   C36       1.0  0.68680  0.04816  0.06643  1.0000
  H   H17       1.0  0.26690  0.43330  0.89760  1.0000
  H   H18       1.0  0.23310  0.56670  0.39760  1.0000
  H   H19       1.0  0.73310  0.93330  0.60240  1.0000
  H   H20       1.0  0.76690  0.06670  0.10240  1.0000
  C   C37       1.0  0.06870  0.50560  0.03756  1.0000
  C   C38       1.0  0.43130  0.49440  0.53756  1.0000
  C   C39       1.0  0.93130  0.00560  0.46244  1.0000
  C   C40       1.0  0.56870  0.99440  0.96244  1.0000
  H   H21       1.0  0.05260  0.53150  0.08740  1.0000
  H   H22       1.0  0.44740  0.46850  0.58740  1.0000
  H   H23       1.0  0.94740  0.03150  0.41260  1.0000
  H   H24       1.0  0.55260  0.96850  0.91260  1.0000
  C   C41       1.0  0.95060  0.47970  0.99060  1.0000
  C   C42       1.0  0.54940  0.52030  0.49060  1.0000
  C   C43       1.0  0.04940  0.97970  0.50940  1.0000
  C   C44       1.0  0.45060  0.02030  0.00940  1.0000
  H   H25       1.0  0.83820  0.48370  0.00020  1.0000
  H   H26       1.0  0.66180  0.51630  0.50020  1.0000
  H   H27       1.0  0.16180  0.98370  0.49980  1.0000
  H   H28       1.0  0.33820  0.01630  0.99980  1.0000
