data_image0
_chemical_formula_structural       Cd12C4O28C4O12C8O8C4H4C16N4C8H4C8H4C8H4C8H4C8H4C8H4C4H4C4H4C12H4C8H4C4N4C12H4C4H4C4H4C8H4N4C4H4C8H4C4H4C8H4C4H4C4N4C4H4C4H4C8H4C4H4C4H4C4H4C4H4C4H4C4H4C8H4C4H4C4H4C4H4C4H4C4H4C4H4C4H4C4H4C4H4C4O12C12H4O4C4H4C12H4C4H4C4H4C4H4C4H4C4H4C4H4C4
_chemical_formula_sum              "Cd12 C320 O64 H192 N16"
_cell_length_a       26.9364
_cell_length_b       22.1231
_cell_length_c       26.0462
_cell_angle_alpha    90
_cell_angle_beta     109.737
_cell_angle_gamma    90

_space_group_name_H-M_alt    "P 1"
_space_group_IT_number       1

loop_
  _space_group_symop_operation_xyz
  'x, y, z'

loop_
  _atom_site_type_symbol
  _atom_site_label
  _atom_site_symmetry_multiplicity
  _atom_site_fract_x
  _atom_site_fract_y
  _atom_site_fract_z
  _atom_site_occupancy
  Cd  Cd1       1.0  0.25803  0.63949  0.54509  1.0000
  Cd  Cd2       1.0  0.74197  0.13949  0.95491  1.0000
  Cd  Cd3       1.0  0.74197  0.36051  0.45491  1.0000
  Cd  Cd4       1.0  0.25803  0.86051  0.04509  1.0000
  Cd  Cd5       1.0  0.13016  0.60138  0.45634  1.0000
  Cd  Cd6       1.0  0.86984  0.10138  0.04366  1.0000
  Cd  Cd7       1.0  0.86984  0.39862  0.54366  1.0000
  Cd  Cd8       1.0  0.13016  0.89862  0.95634  1.0000
  Cd  Cd9       1.0  0.39028  0.61499  0.63253  1.0000
  Cd  Cd10      1.0  0.60972  0.11499  0.86747  1.0000
  Cd  Cd11      1.0  0.60972  0.38501  0.36747  1.0000
  Cd  Cd12      1.0  0.39028  0.88501  0.13253  1.0000
  C   C1        1.0  0.35340  0.60690  0.47070  1.0000
  C   C2        1.0  0.64660  0.10690  0.02930  1.0000
  C   C3        1.0  0.64660  0.39310  0.52930  1.0000
  C   C4        1.0  0.35340  0.89310  0.97070  1.0000
  O   O1        1.0  0.27980  0.79050  0.10990  1.0000
  O   O2        1.0  0.72020  0.29050  0.39010  1.0000
  O   O3        1.0  0.72020  0.20950  0.89010  1.0000
  O   O4        1.0  0.27980  0.70950  0.60990  1.0000
  O   O5        1.0  0.17280  0.86400  0.04670  1.0000
  O   O6        1.0  0.82720  0.36400  0.45330  1.0000
  O   O7        1.0  0.82720  0.13600  0.95330  1.0000
  O   O8        1.0  0.17280  0.63600  0.54670  1.0000
  O   O9        1.0  0.34100  0.64850  0.54080  1.0000
  O   O10       1.0  0.65900  0.14850  0.95920  1.0000
  O   O11       1.0  0.65900  0.35150  0.45920  1.0000
  O   O12       1.0  0.34100  0.85150  0.04080  1.0000
  O   O13       1.0  0.22940  0.70880  0.48030  1.0000
  O   O14       1.0  0.77060  0.20880  0.01970  1.0000
  O   O15       1.0  0.77060  0.29120  0.51970  1.0000
  O   O16       1.0  0.22940  0.79120  0.98030  1.0000
  O   O17       1.0  0.23810  0.55520  0.49080  1.0000
  O   O18       1.0  0.76190  0.05520  0.00920  1.0000
  O   O19       1.0  0.76190  0.44480  0.50920  1.0000
  O   O20       1.0  0.23810  0.94480  0.99080  1.0000
  O   O21       1.0  0.37070  0.97210  0.16740  1.0000
  O   O22       1.0  0.62930  0.47210  0.33260  1.0000
  O   O23       1.0  0.62930  0.02790  0.83260  1.0000
  O   O24       1.0  0.37070  0.52790  0.66740  1.0000
  O   O25       1.0  0.11470  0.93680  0.03470  1.0000
  O   O26       1.0  0.88530  0.43680  0.46530  1.0000
  O   O27       1.0  0.88530  0.06320  0.96530  1.0000
  O   O28       1.0  0.11470  0.56320  0.53470  1.0000
  C   C5        1.0  0.24100  0.46150  0.45040  1.0000
  C   C6        1.0  0.75900  0.96150  0.04960  1.0000
  C   C7        1.0  0.75900  0.53850  0.54960  1.0000
  C   C8        1.0  0.24100  0.03850  0.95040  1.0000
  O   O29       1.0  0.39460  0.56940  0.55050  1.0000
  O   O30       1.0  0.60540  0.06940  0.94950  1.0000
  O   O31       1.0  0.60540  0.43060  0.44950  1.0000
  O   O32       1.0  0.39460  0.93060  0.05050  1.0000
  O   O33       1.0  0.35810  0.81500  0.17160  1.0000
  O   O34       1.0  0.64190  0.31500  0.32840  1.0000
  O   O35       1.0  0.64190  0.18500  0.82840  1.0000
  O   O36       1.0  0.35810  0.68500  0.67160  1.0000
  O   O37       1.0  0.30000  0.92990  0.11210  1.0000
  O   O38       1.0  0.70000  0.42990  0.38790  1.0000
  O   O39       1.0  0.70000  0.07010  0.88790  1.0000
  O   O40       1.0  0.30000  0.57010  0.61210  1.0000
  C   C9        1.0  0.36430  0.60700  0.52250  1.0000
  C   C10       1.0  0.63570  0.10700  0.97750  1.0000
  C   C11       1.0  0.63570  0.39300  0.47750  1.0000
  C   C12       1.0  0.36430  0.89300  0.02250  1.0000
  C   C13       1.0  0.19540  0.75880  0.39480  1.0000
  C   C14       1.0  0.80460  0.25880  0.10520  1.0000
  C   C15       1.0  0.80460  0.24120  0.60520  1.0000
  C   C16       1.0  0.19540  0.74120  0.89480  1.0000
  O   O41       1.0  0.16410  0.66510  0.41150  1.0000
  O   O42       1.0  0.83590  0.16510  0.08850  1.0000
  O   O43       1.0  0.83590  0.33490  0.58850  1.0000
  O   O44       1.0  0.16410  0.83490  0.91150  1.0000
  O   O45       1.0  0.16250  0.51560  0.43850  1.0000
  O   O46       1.0  0.83750  0.01560  0.06150  1.0000
  O   O47       1.0  0.83750  0.48440  0.56150  1.0000
  O   O48       1.0  0.16250  0.98440  0.93850  1.0000
  C   C17       1.0  0.27800  0.12050  0.18700  1.0000
  C   C18       1.0  0.72200  0.62050  0.31300  1.0000
  C   C19       1.0  0.72200  0.87950  0.81300  1.0000
  C   C20       1.0  0.27800  0.37950  0.68700  1.0000
  H   H1        1.0  0.29230  0.15200  0.21250  1.0000
  H   H2        1.0  0.70770  0.65200  0.28750  1.0000
  H   H3        1.0  0.70770  0.84800  0.78750  1.0000
  H   H4        1.0  0.29230  0.34800  0.71250  1.0000
  C   C21       1.0  0.31700  0.78380  0.15500  1.0000
  C   C22       1.0  0.68300  0.28380  0.34500  1.0000
  C   C23       1.0  0.68300  0.21620  0.84500  1.0000
  C   C24       1.0  0.31700  0.71620  0.65500  1.0000
  C   C25       1.0  0.32230  0.97440  0.14200  1.0000
  C   C26       1.0  0.67770  0.47440  0.35800  1.0000
  C   C27       1.0  0.67770  0.02560  0.85800  1.0000
  C   C28       1.0  0.32230  0.52560  0.64200  1.0000
  C   C29       1.0  0.28810  0.02570  0.14500  1.0000
  C   C30       1.0  0.71190  0.52570  0.35500  1.0000
  C   C31       1.0  0.71190  0.97430  0.85500  1.0000
  C   C32       1.0  0.28810  0.47430  0.64500  1.0000
  C   C33       1.0  0.15750  0.89810  0.12820  1.0000
  C   C34       1.0  0.84250  0.39810  0.37180  1.0000
  C   C35       1.0  0.84250  0.10190  0.87180  1.0000
  C   C36       1.0  0.15750  0.60190  0.62820  1.0000
  N   N1        1.0  0.19270  0.17080  0.15830  1.0000
  N   N2        1.0  0.80730  0.67080  0.34170  1.0000
  N   N3        1.0  0.80730  0.82920  0.84170  1.0000
  N   N4        1.0  0.19270  0.32920  0.65830  1.0000
  C   C37       1.0  0.31280  0.73340  0.19070  1.0000
  C   C38       1.0  0.68720  0.23340  0.30930  1.0000
  C   C39       1.0  0.68720  0.26660  0.80930  1.0000
  C   C40       1.0  0.31280  0.76660  0.69070  1.0000
  C   C41       1.0  0.24070  0.36750  0.40340  1.0000
  C   C42       1.0  0.75930  0.86750  0.09660  1.0000
  C   C43       1.0  0.75930  0.63250  0.59660  1.0000
  C   C44       1.0  0.24070  0.13250  0.90340  1.0000
  H   H5        1.0  0.22160  0.33590  0.38050  1.0000
  H   H6        1.0  0.77840  0.83590  0.11950  1.0000
  H   H7        1.0  0.77840  0.66410  0.61950  1.0000
  H   H8        1.0  0.22160  0.16410  0.88050  1.0000
  C   C45       1.0  0.13840  0.15980  0.14240  1.0000
  C   C46       1.0  0.86160  0.65980  0.35760  1.0000
  C   C47       1.0  0.86160  0.84020  0.85760  1.0000
  C   C48       1.0  0.13840  0.34020  0.64240  1.0000
  C   C49       1.0  0.30270  0.64370  0.37340  1.0000
  C   C50       1.0  0.69730  0.14370  0.12660  1.0000
  C   C51       1.0  0.69730  0.35630  0.62660  1.0000
  C   C52       1.0  0.30270  0.85630  0.87340  1.0000
  H   H9        1.0  0.27990  0.67390  0.35190  1.0000
  H   H10       1.0  0.72010  0.17390  0.14810  1.0000
  H   H11       1.0  0.72010  0.32610  0.64810  1.0000
  H   H12       1.0  0.27990  0.82610  0.85190  1.0000
  C   C53       1.0  0.21150  0.51570  0.46130  1.0000
  C   C54       1.0  0.78850  0.01570  0.03870  1.0000
  C   C55       1.0  0.78850  0.48430  0.53870  1.0000
  C   C56       1.0  0.21150  0.98430  0.96130  1.0000
  C   C57       1.0  0.21410  0.41570  0.41500  1.0000
  C   C58       1.0  0.78590  0.91570  0.08500  1.0000
  C   C59       1.0  0.78590  0.58430  0.58500  1.0000
  C   C60       1.0  0.21410  0.08430  0.91500  1.0000
  H   H13       1.0  0.17680  0.41780  0.39880  1.0000
  H   H14       1.0  0.82320  0.91780  0.10120  1.0000
  H   H15       1.0  0.82320  0.58220  0.60120  1.0000
  H   H16       1.0  0.17680  0.08220  0.89880  1.0000
  C   C61       1.0  0.14760  0.90030  0.06600  1.0000
  C   C62       1.0  0.85240  0.40030  0.43400  1.0000
  C   C63       1.0  0.85240  0.09970  0.93400  1.0000
  C   C64       1.0  0.14760  0.59970  0.56600  1.0000
  C   C65       1.0  0.31820  0.64610  0.42910  1.0000
  C   C66       1.0  0.68180  0.14610  0.07090  1.0000
  C   C67       1.0  0.68180  0.35390  0.57090  1.0000
  C   C68       1.0  0.31820  0.85390  0.92910  1.0000
  H   H17       1.0  0.30370  0.67880  0.44300  1.0000
  H   H18       1.0  0.69630  0.17880  0.05700  1.0000
  H   H19       1.0  0.69630  0.32120  0.55700  1.0000
  H   H20       1.0  0.30370  0.82120  0.94300  1.0000
  C   C69       1.0  0.19610  0.70600  0.43260  1.0000
  C   C70       1.0  0.80390  0.20600  0.06740  1.0000
  C   C71       1.0  0.80390  0.29400  0.56740  1.0000
  C   C72       1.0  0.19610  0.79400  0.93260  1.0000
  C   C73       1.0  0.18780  0.85490  0.15920  1.0000
  C   C74       1.0  0.81220  0.35490  0.34080  1.0000
  C   C75       1.0  0.81220  0.14510  0.84080  1.0000
  C   C76       1.0  0.18780  0.64510  0.65920  1.0000
  H   H21       1.0  0.20310  0.82410  0.14390  1.0000
  H   H22       1.0  0.79690  0.32410  0.35610  1.0000
  H   H23       1.0  0.79690  0.17590  0.85610  1.0000
  H   H24       1.0  0.20310  0.67590  0.64390  1.0000
  C   C77       1.0  0.22660  0.12200  0.15430  1.0000
  C   C78       1.0  0.77340  0.62200  0.34570  1.0000
  C   C79       1.0  0.77340  0.87800  0.84570  1.0000
  C   C80       1.0  0.22660  0.37800  0.65430  1.0000
  C   C81       1.0  0.23770  0.03030  0.11210  1.0000
  C   C82       1.0  0.76230  0.53030  0.38790  1.0000
  C   C83       1.0  0.76230  0.96970  0.88790  1.0000
  C   C84       1.0  0.23770  0.46970  0.61210  1.0000
  H   H25       1.0  0.22320  0.99960  0.08580  1.0000
  H   H26       1.0  0.77680  0.49960  0.41420  1.0000
  H   H27       1.0  0.77680  0.00040  0.91420  1.0000
  H   H28       1.0  0.22320  0.50040  0.58580  1.0000
  C   C85       1.0  0.30920  0.07270  0.18280  1.0000
  C   C86       1.0  0.69080  0.57270  0.31720  1.0000
  C   C87       1.0  0.69080  0.92730  0.81720  1.0000
  C   C88       1.0  0.30920  0.42730  0.68280  1.0000
  H   H29       1.0  0.34520  0.07130  0.20550  1.0000
  H   H30       1.0  0.65480  0.57130  0.29450  1.0000
  H   H31       1.0  0.65480  0.92870  0.79450  1.0000
  H   H32       1.0  0.34520  0.42870  0.70550  1.0000
  C   C89       1.0  0.20630  0.07870  0.11570  1.0000
  C   C90       1.0  0.79370  0.57870  0.38430  1.0000
  C   C91       1.0  0.79370  0.92130  0.88430  1.0000
  C   C92       1.0  0.20630  0.42130  0.61570  1.0000
  H   H33       1.0  0.17100  0.08160  0.09140  1.0000
  H   H34       1.0  0.82900  0.58160  0.40860  1.0000
  H   H35       1.0  0.82900  0.91840  0.90860  1.0000
  H   H36       1.0  0.17100  0.41840  0.59140  1.0000
  C   C93       1.0  0.21220  0.23020  0.17730  1.0000
  C   C94       1.0  0.78780  0.73020  0.32270  1.0000
  C   C95       1.0  0.78780  0.76980  0.82270  1.0000
  C   C96       1.0  0.21220  0.26980  0.67730  1.0000
  C   C97       1.0  0.29420  0.36500  0.42460  1.0000
  C   C98       1.0  0.70580  0.86500  0.07540  1.0000
  C   C99       1.0  0.70580  0.63500  0.57540  1.0000
  C   C100      1.0  0.29420  0.13500  0.92460  1.0000
  C   C101      1.0  0.12910  0.94120  0.14590  1.0000
  C   C102      1.0  0.87090  0.44120  0.35410  1.0000
  C   C103      1.0  0.87090  0.05880  0.85410  1.0000
  C   C104      1.0  0.12910  0.55880  0.64590  1.0000
  H   H37       1.0  0.10590  0.96900  0.12170  1.0000
  H   H38       1.0  0.89410  0.46900  0.37830  1.0000
  H   H39       1.0  0.89410  0.03100  0.87830  1.0000
  H   H40       1.0  0.10590  0.53100  0.62170  1.0000
  C   C105      1.0  0.17160  0.89990  0.23420  1.0000
  C   C106      1.0  0.82840  0.39990  0.26580  1.0000
  C   C107      1.0  0.82840  0.10010  0.76580  1.0000
  C   C108      1.0  0.17160  0.60010  0.73420  1.0000
  C   C109      1.0  0.16050  0.76030  0.34270  1.0000
  C   C110      1.0  0.83950  0.26030  0.15730  1.0000
  C   C111      1.0  0.83950  0.23970  0.65730  1.0000
  C   C112      1.0  0.16050  0.73970  0.84270  1.0000
  H   H41       1.0  0.13820  0.72630  0.32970  1.0000
  H   H42       1.0  0.86180  0.22630  0.17030  1.0000
  H   H43       1.0  0.86180  0.27370  0.67030  1.0000
  H   H44       1.0  0.13820  0.77370  0.82970  1.0000
  C   C113      1.0  0.25950  0.14500  0.36490  1.0000
  C   C114      1.0  0.74050  0.64500  0.13510  1.0000
  C   C115      1.0  0.74050  0.85500  0.63510  1.0000
  C   C116      1.0  0.25950  0.35500  0.86490  1.0000
  N   N5        1.0  0.30250  0.58830  0.29070  1.0000
  N   N6        1.0  0.69750  0.08830  0.20930  1.0000
  N   N7        1.0  0.69750  0.41170  0.70930  1.0000
  N   N8        1.0  0.30250  0.91170  0.79070  1.0000
  C   C117      1.0  0.32100  0.59530  0.34800  1.0000
  C   C118      1.0  0.67900  0.09530  0.15200  1.0000
  C   C119      1.0  0.67900  0.40470  0.65200  1.0000
  C   C120      1.0  0.32100  0.90470  0.84800  1.0000
  C   C121      1.0  0.30590  0.63600  0.25650  1.0000
  C   C122      1.0  0.69410  0.13600  0.24350  1.0000
  C   C123      1.0  0.69410  0.36400  0.74350  1.0000
  C   C124      1.0  0.30590  0.86400  0.75650  1.0000
  C   C125      1.0  0.29520  0.45850  0.47170  1.0000
  C   C126      1.0  0.70480  0.95850  0.02830  1.0000
  C   C127      1.0  0.70480  0.54150  0.52830  1.0000
  C   C128      1.0  0.29520  0.04150  0.97170  1.0000
  H   H45       1.0  0.31420  0.48950  0.49550  1.0000
  H   H46       1.0  0.68580  0.98950  0.00450  1.0000
  H   H47       1.0  0.68580  0.51050  0.50450  1.0000
  H   H48       1.0  0.31420  0.01050  0.99550  1.0000
  C   C129      1.0  0.27130  0.69250  0.17290  1.0000
  C   C130      1.0  0.72870  0.19250  0.32710  1.0000
  C   C131      1.0  0.72870  0.30750  0.82710  1.0000
  C   C132      1.0  0.27130  0.80750  0.67290  1.0000
  H   H49       1.0  0.24500  0.69720  0.13810  1.0000
  H   H50       1.0  0.75500  0.19720  0.36190  1.0000
  H   H51       1.0  0.75500  0.30280  0.86190  1.0000
  H   H52       1.0  0.24500  0.80280  0.63810  1.0000
  C   C133      1.0  0.26880  0.64310  0.20750  1.0000
  C   C134      1.0  0.73120  0.14310  0.29250  1.0000
  C   C135      1.0  0.73120  0.35690  0.79250  1.0000
  C   C136      1.0  0.26880  0.85690  0.70750  1.0000
  H   H53       1.0  0.24040  0.61520  0.19560  1.0000
  H   H54       1.0  0.75960  0.11520  0.30440  1.0000
  H   H55       1.0  0.75960  0.38480  0.80440  1.0000
  H   H56       1.0  0.24040  0.88480  0.69560  1.0000
  C   C137      1.0  0.28560  0.52850  0.26930  1.0000
  C   C138      1.0  0.71440  0.02850  0.23070  1.0000
  C   C139      1.0  0.71440  0.47150  0.73070  1.0000
  C   C140      1.0  0.28560  0.97150  0.76930  1.0000
  C   C141      1.0  0.19580  0.85730  0.21290  1.0000
  C   C142      1.0  0.80420  0.35730  0.28710  1.0000
  C   C143      1.0  0.80420  0.14270  0.78710  1.0000
  C   C144      1.0  0.19580  0.64270  0.71290  1.0000
  H   H57       1.0  0.21860  0.82870  0.23660  1.0000
  H   H58       1.0  0.78140  0.32870  0.26340  1.0000
  H   H59       1.0  0.78140  0.17130  0.76340  1.0000
  H   H60       1.0  0.21860  0.67130  0.73660  1.0000
  N   N9        1.0  0.18420  0.90690  0.29360  1.0000
  N   N10       1.0  0.81580  0.40690  0.20640  1.0000
  N   N11       1.0  0.81580  0.09310  0.70640  1.0000
  N   N12       1.0  0.18420  0.59310  0.79360  1.0000
  C   C145      1.0  0.35020  0.72460  0.23990  1.0000
  C   C146      1.0  0.64980  0.22460  0.26010  1.0000
  C   C147      1.0  0.64980  0.27540  0.76010  1.0000
  C   C148      1.0  0.35020  0.77540  0.73990  1.0000
  H   H61       1.0  0.37910  0.75200  0.25160  1.0000
  H   H62       1.0  0.62090  0.25200  0.24840  1.0000
  H   H63       1.0  0.62090  0.24800  0.74840  1.0000
  H   H64       1.0  0.37910  0.74800  0.75160  1.0000
  C   C149      1.0  0.25750  0.41060  0.23190  1.0000
  C   C150      1.0  0.74250  0.91060  0.26810  1.0000
  C   C151      1.0  0.74250  0.58940  0.76810  1.0000
  C   C152      1.0  0.25750  0.08940  0.73190  1.0000
  C   C153      1.0  0.35680  0.55540  0.38270  1.0000
  C   C154      1.0  0.64320  0.05540  0.11730  1.0000
  C   C155      1.0  0.64320  0.44460  0.61730  1.0000
  C   C156      1.0  0.35680  0.94460  0.88270  1.0000
  H   H65       1.0  0.37100  0.52390  0.36710  1.0000
  H   H66       1.0  0.62900  0.02390  0.13290  1.0000
  H   H67       1.0  0.62900  0.47610  0.63290  1.0000
  H   H68       1.0  0.37100  0.97610  0.86710  1.0000
  C   C157      1.0  0.32220  0.41170  0.45920  1.0000
  C   C158      1.0  0.67780  0.91170  0.04080  1.0000
  C   C159      1.0  0.67780  0.58830  0.54080  1.0000
  C   C160      1.0  0.32220  0.08830  0.95920  1.0000
  H   H69       1.0  0.35960  0.41060  0.47380  1.0000
  H   H70       1.0  0.64040  0.91060  0.02620  1.0000
  H   H71       1.0  0.64040  0.58940  0.52620  1.0000
  H   H72       1.0  0.35960  0.08940  0.97380  1.0000
  C   C161      1.0  0.20680  0.96570  0.31410  1.0000
  C   C162      1.0  0.79320  0.46570  0.18590  1.0000
  C   C163      1.0  0.79320  0.03430  0.68590  1.0000
  C   C164      1.0  0.20680  0.53430  0.81410  1.0000
  C   C165      1.0  0.28780  0.24020  0.34180  1.0000
  C   C166      1.0  0.71220  0.74020  0.15820  1.0000
  C   C167      1.0  0.71220  0.75980  0.65820  1.0000
  C   C168      1.0  0.28780  0.25980  0.84180  1.0000
  H   H73       1.0  0.29540  0.26560  0.31600  1.0000
  H   H74       1.0  0.70460  0.76560  0.18400  1.0000
  H   H75       1.0  0.70460  0.73440  0.68400  1.0000
  H   H76       1.0  0.29540  0.23440  0.81600  1.0000
  C   C169      1.0  0.22490  0.85570  0.37880  1.0000
  C   C170      1.0  0.77510  0.35570  0.12120  1.0000
  C   C171      1.0  0.77510  0.14430  0.62120  1.0000
  C   C172      1.0  0.22490  0.64430  0.87880  1.0000
  H   H77       1.0  0.24720  0.88960  0.39200  1.0000
  H   H78       1.0  0.75280  0.38960  0.10800  1.0000
  H   H79       1.0  0.75280  0.11040  0.60800  1.0000
  H   H80       1.0  0.24720  0.61040  0.89200  1.0000
  C   C173      1.0  0.29750  0.26030  0.39110  1.0000
  C   C174      1.0  0.70250  0.76030  0.10890  1.0000
  C   C175      1.0  0.70250  0.73970  0.60890  1.0000
  C   C176      1.0  0.29750  0.23970  0.89110  1.0000
  N   N13       1.0  0.32180  0.31820  0.40930  1.0000
  N   N14       1.0  0.67820  0.81820  0.09070  1.0000
  N   N15       1.0  0.67820  0.68180  0.59070  1.0000
  N   N16       1.0  0.32180  0.18180  0.90930  1.0000
  C   C177      1.0  0.22880  0.80620  0.41240  1.0000
  C   C178      1.0  0.77120  0.30620  0.08760  1.0000
  C   C179      1.0  0.77120  0.19380  0.58760  1.0000
  C   C180      1.0  0.22880  0.69380  0.91240  1.0000
  H   H81       1.0  0.25480  0.80550  0.44780  1.0000
  H   H82       1.0  0.74520  0.30550  0.05220  1.0000
  H   H83       1.0  0.74520  0.19450  0.55220  1.0000
  H   H84       1.0  0.25480  0.69450  0.94780  1.0000
  C   C181      1.0  0.24450  0.43500  0.27430  1.0000
  C   C182      1.0  0.75550  0.93500  0.22570  1.0000
  C   C183      1.0  0.75550  0.56500  0.72570  1.0000
  C   C184      1.0  0.24450  0.06500  0.77430  1.0000
  H   H85       1.0  0.22420  0.41170  0.29060  1.0000
  H   H86       1.0  0.77580  0.91170  0.20940  1.0000
  H   H87       1.0  0.77580  0.58830  0.70940  1.0000
  H   H88       1.0  0.22420  0.08830  0.79060  1.0000
  C   C185      1.0  0.24330  0.34740  0.21490  1.0000
  C   C186      1.0  0.75670  0.84740  0.28510  1.0000
  C   C187      1.0  0.75670  0.65260  0.78510  1.0000
  C   C188      1.0  0.24330  0.15260  0.71490  1.0000
  C   C189      1.0  0.26050  0.49280  0.29380  1.0000
  C   C190      1.0  0.73950  0.99280  0.20620  1.0000
  C   C191      1.0  0.73950  0.50720  0.70620  1.0000
  C   C192      1.0  0.26050  0.00720  0.79380  1.0000
  H   H89       1.0  0.25340  0.50700  0.32500  1.0000
  H   H90       1.0  0.74660  0.00700  0.17500  1.0000
  H   H91       1.0  0.74660  0.49300  0.67500  1.0000
  H   H92       1.0  0.25340  0.99300  0.82500  1.0000
  C   C193      1.0  0.23570  0.99720  0.28940  1.0000
  C   C194      1.0  0.76430  0.49720  0.21060  1.0000
  C   C195      1.0  0.76430  0.00280  0.71060  1.0000
  C   C196      1.0  0.23570  0.50280  0.78940  1.0000
  H   H93       1.0  0.24410  0.97990  0.26000  1.0000
  H   H94       1.0  0.75590  0.47990  0.24000  1.0000
  H   H95       1.0  0.75590  0.02010  0.74000  1.0000
  H   H96       1.0  0.24410  0.52010  0.76000  1.0000
  C   C197      1.0  0.13700  0.94060  0.20130  1.0000
  C   C198      1.0  0.86300  0.44060  0.29870  1.0000
  C   C199      1.0  0.86300  0.05940  0.79870  1.0000
  C   C200      1.0  0.13700  0.55940  0.70130  1.0000
  H   H97       1.0  0.11860  0.96820  0.21630  1.0000
  H   H98       1.0  0.88140  0.46820  0.28370  1.0000
  H   H99       1.0  0.88140  0.03180  0.78370  1.0000
  H   H100      1.0  0.11860  0.53180  0.71630  1.0000
  C   C201      1.0  0.37210  0.55950  0.43790  1.0000
  C   C202      1.0  0.62790  0.05950  0.06210  1.0000
  C   C203      1.0  0.62790  0.44050  0.56210  1.0000
  C   C204      1.0  0.37210  0.94050  0.93790  1.0000
  H   H101      1.0  0.39680  0.53030  0.45830  1.0000
  H   H102      1.0  0.60320  0.03030  0.04170  1.0000
  H   H103      1.0  0.60320  0.46970  0.54170  1.0000
  H   H104      1.0  0.39680  0.96970  0.95830  1.0000
  C   C205      1.0  0.11700  0.11050  0.15980  1.0000
  C   C206      1.0  0.88300  0.61050  0.34020  1.0000
  C   C207      1.0  0.88300  0.88950  0.84020  1.0000
  C   C208      1.0  0.11700  0.38950  0.65980  1.0000
  H   H105      1.0  0.14010  0.08270  0.18430  1.0000
  H   H106      1.0  0.85990  0.58270  0.31570  1.0000
  H   H107      1.0  0.85990  0.91730  0.81570  1.0000
  H   H108      1.0  0.14010  0.41730  0.68430  1.0000
  C   C209      1.0  0.18630  0.26180  0.20910  1.0000
  C   C210      1.0  0.81370  0.76180  0.29090  1.0000
  C   C211      1.0  0.81370  0.73820  0.79090  1.0000
  C   C212      1.0  0.18630  0.23820  0.70910  1.0000
  H   H109      1.0  0.15890  0.24280  0.21850  1.0000
  H   H110      1.0  0.84110  0.74280  0.28150  1.0000
  H   H111      1.0  0.84110  0.75720  0.78150  1.0000
  H   H112      1.0  0.15890  0.25720  0.71850  1.0000
  C   C213      1.0  0.10360  0.20020  0.10630  1.0000
  C   C214      1.0  0.89640  0.70020  0.39370  1.0000
  C   C215      1.0  0.89640  0.79980  0.89370  1.0000
  C   C216      1.0  0.10360  0.29980  0.60630  1.0000
  H   H113      1.0  0.11730  0.23470  0.09390  1.0000
  H   H114      1.0  0.88270  0.73470  0.40610  1.0000
  H   H115      1.0  0.88270  0.76530  0.90610  1.0000
  H   H116      1.0  0.11730  0.26530  0.59390  1.0000
  C   C217      1.0  0.18970  0.85630  0.32730  1.0000
  C   C218      1.0  0.81030  0.35630  0.17270  1.0000
  C   C219      1.0  0.81030  0.14370  0.67270  1.0000
  C   C220      1.0  0.18970  0.64370  0.82730  1.0000
  C   C221      1.0  0.25020  0.25960  0.16280  1.0000
  C   C222      1.0  0.74980  0.75960  0.33720  1.0000
  C   C223      1.0  0.74980  0.74040  0.83720  1.0000
  C   C224      1.0  0.25020  0.24040  0.66280  1.0000
  H   H117      1.0  0.26620  0.24040  0.13960  1.0000
  H   H118      1.0  0.73380  0.74040  0.36040  1.0000
  H   H119      1.0  0.73380  0.75960  0.86040  1.0000
  H   H120      1.0  0.26620  0.25960  0.63960  1.0000
  C   C225      1.0  0.20160  0.32010  0.22590  1.0000
  C   C226      1.0  0.79840  0.82010  0.27410  1.0000
  C   C227      1.0  0.79840  0.67990  0.77410  1.0000
  C   C228      1.0  0.20160  0.17990  0.72590  1.0000
  H   H121      1.0  0.18320  0.34200  0.24520  1.0000
  H   H122      1.0  0.81680  0.84200  0.25480  1.0000
  H   H123      1.0  0.81680  0.65800  0.75480  1.0000
  H   H124      1.0  0.18320  0.15800  0.74520  1.0000
  C   C229      1.0  0.19030  0.99220  0.35300  1.0000
  C   C230      1.0  0.80970  0.49220  0.14700  1.0000
  C   C231      1.0  0.80970  0.00780  0.64700  1.0000
  C   C232      1.0  0.19030  0.50780  0.85300  1.0000
  H   H125      1.0  0.16670  0.97170  0.36710  1.0000
  H   H126      1.0  0.83330  0.47170  0.13290  1.0000
  H   H127      1.0  0.83330  0.02830  0.63290  1.0000
  H   H128      1.0  0.16670  0.52830  0.86710  1.0000
  C   C233      1.0  0.34810  0.67610  0.27470  1.0000
  C   C234      1.0  0.65190  0.17610  0.22530  1.0000
  C   C235      1.0  0.65190  0.32390  0.72530  1.0000
  C   C236      1.0  0.34810  0.82390  0.77470  1.0000
  H   H129      1.0  0.37470  0.67110  0.30930  1.0000
  H   H130      1.0  0.62530  0.17110  0.19070  1.0000
  H   H131      1.0  0.62530  0.32890  0.69070  1.0000
  H   H132      1.0  0.37470  0.82890  0.80930  1.0000
  C   C237      1.0  0.28530  0.22520  0.43130  1.0000
  C   C238      1.0  0.71470  0.72520  0.06870  1.0000
  C   C239      1.0  0.71470  0.77480  0.56870  1.0000
  C   C240      1.0  0.28530  0.27480  0.93130  1.0000
  H   H133      1.0  0.28980  0.24070  0.46660  1.0000
  H   H134      1.0  0.71020  0.74070  0.03340  1.0000
  H   H135      1.0  0.71020  0.75930  0.53340  1.0000
  H   H136      1.0  0.28980  0.25930  0.96660  1.0000
  C   C241      1.0  0.15600  0.80800  0.30850  1.0000
  C   C242      1.0  0.84400  0.30800  0.19150  1.0000
  C   C243      1.0  0.84400  0.19200  0.69150  1.0000
  C   C244      1.0  0.15600  0.69200  0.80850  1.0000
  H   H137      1.0  0.13060  0.80810  0.27280  1.0000
  H   H138      1.0  0.86940  0.30810  0.22720  1.0000
  H   H139      1.0  0.86940  0.19190  0.72720  1.0000
  H   H140      1.0  0.13060  0.69190  0.77280  1.0000
  C   C245      1.0  0.29750  0.50570  0.22640  1.0000
  C   C246      1.0  0.70250  0.00570  0.27360  1.0000
  C   C247      1.0  0.70250  0.49430  0.77360  1.0000
  C   C248      1.0  0.29750  0.99430  0.72640  1.0000
  H   H141      1.0  0.31570  0.53040  0.20870  1.0000
  H   H142      1.0  0.68430  0.03040  0.29130  1.0000
  H   H143      1.0  0.68430  0.46960  0.79130  1.0000
  H   H144      1.0  0.31570  0.96960  0.70870  1.0000
  C   C249      1.0  0.26630  0.16680  0.41600  1.0000
  C   C250      1.0  0.73370  0.66680  0.08400  1.0000
  C   C251      1.0  0.73370  0.83320  0.58400  1.0000
  C   C252      1.0  0.26630  0.33320  0.91600  1.0000
  H   H145      1.0  0.25800  0.14170  0.44160  1.0000
  H   H146      1.0  0.74200  0.64170  0.05840  1.0000
  H   H147      1.0  0.74200  0.85830  0.55840  1.0000
  H   H148      1.0  0.25800  0.35830  0.94160  1.0000
  C   C253      1.0  0.28380  0.44820  0.20810  1.0000
  C   C254      1.0  0.71620  0.94820  0.29190  1.0000
  C   C255      1.0  0.71620  0.55180  0.79190  1.0000
  C   C256      1.0  0.28380  0.05180  0.70810  1.0000
  H   H149      1.0  0.29280  0.43380  0.17800  1.0000
  H   H150      1.0  0.70720  0.93380  0.32200  1.0000
  H   H151      1.0  0.70720  0.56620  0.82200  1.0000
  H   H152      1.0  0.29280  0.06620  0.67800  1.0000
  C   C257      1.0  0.26680  0.18380  0.32530  1.0000
  C   C258      1.0  0.73320  0.68380  0.17470  1.0000
  C   C259      1.0  0.73320  0.81620  0.67470  1.0000
  C   C260      1.0  0.26680  0.31620  0.82530  1.0000
  H   H153      1.0  0.25770  0.17150  0.28830  1.0000
  H   H154      1.0  0.74230  0.67150  0.21170  1.0000
  H   H155      1.0  0.74230  0.82850  0.71170  1.0000
  H   H156      1.0  0.25770  0.32850  0.78830  1.0000
  C   C261      1.0  0.24010  0.08260  0.34830  1.0000
  C   C262      1.0  0.75990  0.58260  0.15170  1.0000
  C   C263      1.0  0.75990  0.91740  0.65170  1.0000
  C   C264      1.0  0.24010  0.41740  0.84830  1.0000
  O   O49       1.0  0.95330  0.08290  0.10310  1.0000
  O   O50       1.0  0.04670  0.58290  0.39690  1.0000
  O   O51       1.0  0.04670  0.91710  0.89690  1.0000
  O   O52       1.0  0.95330  0.41710  0.60310  1.0000
  O   O53       1.0  0.94250  0.16470  0.05280  1.0000
  O   O54       1.0  0.05750  0.66470  0.44720  1.0000
  O   O55       1.0  0.05750  0.83530  0.94720  1.0000
  O   O56       1.0  0.94250  0.33530  0.55280  1.0000
  O   O57       1.0  0.51630  0.40310  0.33780  1.0000
  O   O58       1.0  0.48370  0.90310  0.16220  1.0000
  O   O59       1.0  0.48370  0.59690  0.66220  1.0000
  O   O60       1.0  0.51630  0.09690  0.83780  1.0000
  C   C265      1.0  0.97120  0.13010  0.08630  1.0000
  C   C266      1.0  0.02880  0.63010  0.41370  1.0000
  C   C267      1.0  0.02880  0.86990  0.91370  1.0000
  C   C268      1.0  0.97120  0.36990  0.58630  1.0000
  C   C269      1.0  0.02900  0.13980  0.10620  1.0000
  C   C270      1.0  0.97100  0.63980  0.39380  1.0000
  C   C271      1.0  0.97100  0.86020  0.89380  1.0000
  C   C272      1.0  0.02900  0.36020  0.60620  1.0000
  C   C273      1.0  0.06520  0.10050  0.14360  1.0000
  C   C274      1.0  0.93480  0.60050  0.35640  1.0000
  C   C275      1.0  0.93480  0.89950  0.85640  1.0000
  C   C276      1.0  0.06520  0.39950  0.64360  1.0000
  H   H157      1.0  0.05230  0.06640  0.15740  1.0000
  H   H158      1.0  0.94770  0.56640  0.34260  1.0000
  H   H159      1.0  0.94770  0.93360  0.84260  1.0000
  H   H160      1.0  0.05230  0.43360  0.65740  1.0000
  O   O61       1.0  0.54570  0.31860  0.37930  1.0000
  O   O62       1.0  0.45430  0.81860  0.12070  1.0000
  O   O63       1.0  0.45430  0.68140  0.62070  1.0000
  O   O64       1.0  0.54570  0.18140  0.87930  1.0000
  C   C277      1.0  0.05040  0.19090  0.08870  1.0000
  C   C278      1.0  0.94960  0.69090  0.41130  1.0000
  C   C279      1.0  0.94960  0.80910  0.91130  1.0000
  C   C280      1.0  0.05040  0.30910  0.58870  1.0000
  H   H161      1.0  0.02750  0.21900  0.06450  1.0000
  H   H162      1.0  0.97250  0.71900  0.43550  1.0000
  H   H163      1.0  0.97250  0.78100  0.93550  1.0000
  H   H164      1.0  0.02750  0.28100  0.56450  1.0000
  C   C281      1.0  0.50900  0.35700  0.36200  1.0000
  C   C282      1.0  0.49100  0.85700  0.13800  1.0000
  C   C283      1.0  0.49100  0.64300  0.63800  1.0000
  C   C284      1.0  0.50900  0.14300  0.86200  1.0000
  C   C285      1.0  0.36800  0.32990  0.39580  1.0000
  C   C286      1.0  0.63200  0.82990  0.10420  1.0000
  C   C287      1.0  0.63200  0.67010  0.60420  1.0000
  C   C288      1.0  0.36800  0.17010  0.89580  1.0000
  C   C289      1.0  0.26500  0.31660  0.18170  1.0000
  C   C290      1.0  0.73500  0.81660  0.31830  1.0000
  C   C291      1.0  0.73500  0.68340  0.81830  1.0000
  C   C292      1.0  0.26500  0.18340  0.68170  1.0000
  H   H165      1.0  0.29160  0.33610  0.17140  1.0000
  H   H166      1.0  0.70840  0.83610  0.32860  1.0000
  H   H167      1.0  0.70840  0.66390  0.82860  1.0000
  H   H168      1.0  0.29160  0.16390  0.67140  1.0000
  C   C293      1.0  0.41910  0.39150  0.35680  1.0000
  C   C294      1.0  0.58090  0.89150  0.14320  1.0000
  C   C295      1.0  0.58090  0.60850  0.64320  1.0000
  C   C296      1.0  0.41910  0.10850  0.85680  1.0000
  H   H169      1.0  0.42290  0.42720  0.33820  1.0000
  H   H170      1.0  0.57710  0.92720  0.16180  1.0000
  H   H171      1.0  0.57710  0.57280  0.66180  1.0000
  H   H172      1.0  0.42290  0.07280  0.83820  1.0000
  C   C297      1.0  0.37380  0.38150  0.37040  1.0000
  C   C298      1.0  0.62620  0.88150  0.12960  1.0000
  C   C299      1.0  0.62620  0.61850  0.62960  1.0000
  C   C300      1.0  0.37380  0.11850  0.87040  1.0000
  H   H173      1.0  0.34680  0.41130  0.36170  1.0000
  H   H174      1.0  0.65320  0.91130  0.13830  1.0000
  H   H175      1.0  0.65320  0.58870  0.63830  1.0000
  H   H176      1.0  0.34680  0.08870  0.86170  1.0000
  C   C301      1.0  0.20910  0.05090  0.37190  1.0000
  C   C302      1.0  0.79090  0.55090  0.12810  1.0000
  C   C303      1.0  0.79090  0.94910  0.62810  1.0000
  C   C304      1.0  0.20910  0.44910  0.87190  1.0000
  H   H177      1.0  0.20020  0.06860  0.40090  1.0000
  H   H178      1.0  0.79980  0.56860  0.09910  1.0000
  H   H179      1.0  0.79980  0.93140  0.59910  1.0000
  H   H180      1.0  0.20020  0.43140  0.90090  1.0000
  C   C305      1.0  0.25260  0.05430  0.30740  1.0000
  C   C306      1.0  0.74740  0.55430  0.19260  1.0000
  C   C307      1.0  0.74740  0.94570  0.69260  1.0000
  C   C308      1.0  0.25260  0.44570  0.80740  1.0000
  H   H181      1.0  0.27390  0.07520  0.29070  1.0000
  H   H182      1.0  0.72610  0.57520  0.20930  1.0000
  H   H183      1.0  0.72610  0.92480  0.70930  1.0000
  H   H184      1.0  0.27390  0.42480  0.79070  1.0000
  C   C309      1.0  0.45080  0.29380  0.39500  1.0000
  C   C310      1.0  0.54920  0.79380  0.10500  1.0000
  C   C311      1.0  0.54920  0.70620  0.60500  1.0000
  C   C312      1.0  0.45080  0.20620  0.89500  1.0000
  H   H185      1.0  0.47610  0.26220  0.40240  1.0000
  H   H186      1.0  0.52390  0.76220  0.09760  1.0000
  H   H187      1.0  0.52390  0.73780  0.59760  1.0000
  H   H188      1.0  0.47610  0.23780  0.90240  1.0000
  C   C313      1.0  0.40700  0.28560  0.40750  1.0000
  C   C314      1.0  0.59300  0.78560  0.09250  1.0000
  C   C315      1.0  0.59300  0.71440  0.59250  1.0000
  C   C316      1.0  0.40700  0.21440  0.90750  1.0000
  H   H189      1.0  0.40250  0.24920  0.42460  1.0000
  H   H190      1.0  0.59750  0.74920  0.07540  1.0000
  H   H191      1.0  0.59750  0.75080  0.57540  1.0000
  H   H192      1.0  0.40250  0.25080  0.92460  1.0000
  C   C317      1.0  0.46020  0.34600  0.37180  1.0000
  C   C318      1.0  0.53980  0.84600  0.12820  1.0000
  C   C319      1.0  0.53980  0.65400  0.62820  1.0000
  C   C320      1.0  0.46020  0.15400  0.87180  1.0000
