data_image0
_chemical_formula_structural       Fe8P4O38H2O2H2C12
_chemical_formula_sum              "Fe8 P4 O40 H4 C12"
_cell_length_a       7.5943
_cell_length_b       7.8172
_cell_length_c       18.318
_cell_angle_alpha    90
_cell_angle_beta     99.111
_cell_angle_gamma    90

_space_group_name_H-M_alt    "P 1"
_space_group_IT_number       1

loop_
  _space_group_symop_operation_xyz
  'x, y, z'

loop_
  _atom_site_type_symbol
  _atom_site_label
  _atom_site_symmetry_multiplicity
  _atom_site_fract_x
  _atom_site_fract_y
  _atom_site_fract_z
  _atom_site_occupancy
  Fe  Fe1       1.0  0.36475  0.21560  0.38359  1.0000
  Fe  Fe2       1.0  0.63525  0.71560  0.61641  1.0000
  Fe  Fe3       1.0  0.71230  0.95835  0.43997  1.0000
  Fe  Fe4       1.0  0.28770  0.45835  0.56003  1.0000
  Fe  Fe5       1.0  0.62826  0.08735  0.11549  1.0000
  Fe  Fe6       1.0  0.37174  0.58735  0.88451  1.0000
  Fe  Fe7       1.0  0.27920  0.34940  0.05819  1.0000
  Fe  Fe8       1.0  0.72080  0.84940  0.94181  1.0000
  P   P1        1.0  0.44970  0.72850  0.05537  1.0000
  P   P2        1.0  0.55030  0.22850  0.94463  1.0000
  P   P3        1.0  0.55860  0.57520  0.44558  1.0000
  P   P4        1.0  0.44140  0.07520  0.55442  1.0000
  O   O1        1.0  0.43130  0.46150  0.39380  1.0000
  O   O2        1.0  0.56870  0.96150  0.60620  1.0000
  O   O3        1.0  0.18830  0.00730  0.36490  1.0000
  O   O4        1.0  0.81170  0.50730  0.63510  1.0000
  O   O5        1.0  0.57690  0.09640  0.34030  1.0000
  O   O6        1.0  0.42310  0.59640  0.65970  1.0000
  O   O7        1.0  0.49650  0.58990  0.52070  1.0000
  O   O8        1.0  0.50350  0.08990  0.47930  1.0000
  O   O9        1.0  0.30140  0.25950  0.26140  1.0000
  O   O10       1.0  0.69860  0.75950  0.73860  1.0000
  O   O11       1.0  0.13860  0.29090  0.44560  1.0000
  O   O12       1.0  0.86140  0.79090  0.55440  1.0000
  O   O13       1.0  0.57620  0.74630  0.41090  1.0000
  O   O14       1.0  0.42380  0.24630  0.58910  1.0000
  O   O15       1.0  0.94210  0.89600  0.39570  1.0000
  O   O16       1.0  0.05790  0.39600  0.60430  1.0000
  O   O17       1.0  0.87900  0.17780  0.46740  1.0000
  O   O18       1.0  0.12100  0.67780  0.53260  1.0000
  O   O19       1.0  0.58190  0.83500  0.10750  1.0000
  O   O20       1.0  0.41810  0.33500  0.89250  1.0000
  O   O21       1.0  0.80390  0.28740  0.13390  1.0000
  O   O22       1.0  0.19610  0.78740  0.86610  1.0000
  O   O23       1.0  0.40950  0.20100  0.15720  1.0000
  O   O24       1.0  0.59050  0.70100  0.84280  1.0000
  O   O25       1.0  0.51520  0.70710  0.98130  1.0000
  O   O26       1.0  0.48480  0.20710  0.01870  1.0000
  O   O27       1.0  0.68980  0.04200  0.23670  1.0000
  O   O28       1.0  0.31020  0.54200  0.76330  1.0000
  O   O29       1.0  0.85580  0.01570  0.04970  1.0000
  O   O30       1.0  0.14420  0.51570  0.95030  1.0000
  O   O31       1.0  0.41480  0.55720  0.08920  1.0000
  O   O32       1.0  0.58520  0.05720  0.91080  1.0000
  O   O33       1.0  0.05230  0.40520  0.10880  1.0000
  O   O34       1.0  0.94770  0.90520  0.89120  1.0000
  O   O35       1.0  0.11020  0.13780  0.02660  1.0000
  O   O36       1.0  0.88980  0.63780  0.97340  1.0000
  O   O37       1.0  0.26290  0.82310  0.04310  1.0000
  O   O38       1.0  0.73710  0.32310  0.95690  1.0000
  H   H1        1.0  0.27360  0.91740  0.02480  1.0000
  H   H2        1.0  0.72640  0.41740  0.97520  1.0000
  O   O39       1.0  0.75140  0.49520  0.45610  1.0000
  O   O40       1.0  0.24860  0.99520  0.54390  1.0000
  H   H3        1.0  0.74960  0.40040  0.47510  1.0000
  H   H4        1.0  0.25040  0.90040  0.52490  1.0000
  C   C1        1.0  0.94050  0.29050  0.10310  1.0000
  C   C2        1.0  0.05950  0.79050  0.89690  1.0000
  C   C3        1.0  0.97180  0.13180  0.05540  1.0000
  C   C4        1.0  0.02820  0.63180  0.94460  1.0000
  C   C5        1.0  0.02320  0.17690  0.44160  1.0000
  C   C6        1.0  0.97680  0.67690  0.55840  1.0000
  C   C7        1.0  0.05270  0.01470  0.39600  1.0000
  C   C8        1.0  0.94730  0.51470  0.60400  1.0000
  C   C9        1.0  0.41340  0.19800  0.22740  1.0000
  C   C10       1.0  0.58660  0.69800  0.77260  1.0000
  C   C11       1.0  0.57780  0.10190  0.27210  1.0000
  C   C12       1.0  0.42220  0.60190  0.72790  1.0000
