data_image0
_chemical_formula_structural       Ti4O32C14
_chemical_formula_sum              "Ti4 O32 C14"
_cell_length_a       9.5187
_cell_length_b       11.4926
_cell_length_c       11.6349
_cell_angle_alpha    67.405
_cell_angle_beta     81.407
_cell_angle_gamma    66.906

_space_group_name_H-M_alt    "P 1"
_space_group_IT_number       1

loop_
  _space_group_symop_operation_xyz
  'x, y, z'

loop_
  _atom_site_type_symbol
  _atom_site_label
  _atom_site_symmetry_multiplicity
  _atom_site_fract_x
  _atom_site_fract_y
  _atom_site_fract_z
  _atom_site_occupancy
  Ti  Ti1       1.0  0.00720  0.85980  0.71530  1.0000
  Ti  Ti2       1.0  0.99280  0.14020  0.28470  1.0000
  Ti  Ti3       1.0  0.28740  0.89160  0.48460  1.0000
  Ti  Ti4       1.0  0.71260  0.10840  0.51540  1.0000
  O   O1        1.0  0.13650  0.85660  0.57920  1.0000
  O   O2        1.0  0.86350  0.14340  0.42080  1.0000
  O   O3        1.0  0.82480  0.95290  0.64120  1.0000
  O   O4        1.0  0.17520  0.04710  0.35880  1.0000
  O   O5        1.0  0.20170  0.78660  0.82460  1.0000
  O   O6        1.0  0.79830  0.21340  0.17540  1.0000
  O   O7        1.0  0.00120  0.02390  0.73760  1.0000
  O   O8        1.0  0.99880  0.97610  0.26240  1.0000
  O   O9        1.0  0.34360  0.85300  0.90410  1.0000
  O   O10       1.0  0.65640  0.14700  0.09590  1.0000
  O   O11       1.0  0.10810  0.10970  0.82600  1.0000
  O   O12       1.0  0.89190  0.89030  0.17400  1.0000
  O   O13       1.0  0.02710  0.66900  0.74530  1.0000
  O   O14       1.0  0.97290  0.33100  0.25470  1.0000
  O   O15       1.0  0.90850  0.80050  0.88830  1.0000
  O   O16       1.0  0.09150  0.19950  0.11170  1.0000
  O   O17       1.0  0.92050  0.51590  0.84360  1.0000
  O   O18       1.0  0.07950  0.48410  0.15640  1.0000
  O   O19       1.0  0.78740  0.66180  0.00010  1.0000
  O   O20       1.0  0.21260  0.33820  0.99990  1.0000
  O   O21       1.0  0.35060  0.76790  0.39150  1.0000
  O   O22       1.0  0.64940  0.23210  0.60850  1.0000
  O   O23       1.0  0.46040  0.72780  0.59520  1.0000
  O   O24       1.0  0.53960  0.27220  0.40480  1.0000
  O   O25       1.0  0.55760  0.60690  0.35200  1.0000
  O   O26       1.0  0.44240  0.39310  0.64800  1.0000
  O   O27       1.0  0.67210  0.55550  0.58230  1.0000
  O   O28       1.0  0.32790  0.44450  0.41770  1.0000
  O   O29       1.0  0.33120  0.99200  0.57840  1.0000
  O   O30       1.0  0.66880  0.00800  0.42160  1.0000
  O   O31       1.0  0.50310  0.06500  0.61020  1.0000
  O   O32       1.0  0.49690  0.93500  0.38980  1.0000
  C   C1        1.0  0.23110  0.87370  0.84870  1.0000
  C   C2        1.0  0.76890  0.12630  0.15130  1.0000
  C   C3        1.0  0.10570  0.01660  0.80200  1.0000
  C   C4        1.0  0.89430  0.98340  0.19800  1.0000
  C   C5        1.0  0.94410  0.61530  0.82950  1.0000
  C   C6        1.0  0.05590  0.38470  0.17050  1.0000
  C   C7        1.0  0.87250  0.69680  0.91620  1.0000
  C   C8        1.0  0.12750  0.30320  0.08380  1.0000
  C   C9        1.0  0.48460  0.67060  0.41700  1.0000
  C   C10       1.0  0.51540  0.32940  0.58300  1.0000
  C   C11       1.0  0.54670  0.64580  0.54310  1.0000
  C   C12       1.0  0.45330  0.35420  0.45690  1.0000
  C   C13       1.0  0.45260  0.01670  0.55420  1.0000
  C   C14       1.0  0.54740  0.98330  0.44580  1.0000
