data_image0
_chemical_formula_structural       Zn10O50H4O2H2O2H2O2H2N8C4H2C4H2C4H2C8H2C4H2C4H2C8H2C4H2C4H2C8H2C4H2C4H2C4
_chemical_formula_sum              "Zn10 O56 H34 N8 C64"
_cell_length_a       12.608
_cell_length_b       14.324
_cell_length_c       15.693
_cell_angle_alpha    63.256
_cell_angle_beta     81.245
_cell_angle_gamma    64.466

_space_group_name_H-M_alt    "P 1"
_space_group_IT_number       1

loop_
  _space_group_symop_operation_xyz
  'x, y, z'

loop_
  _atom_site_type_symbol
  _atom_site_label
  _atom_site_symmetry_multiplicity
  _atom_site_fract_x
  _atom_site_fract_y
  _atom_site_fract_z
  _atom_site_occupancy
  Zn  Zn1       1.0  0.57349  0.94063  0.59861  1.0000
  Zn  Zn2       1.0  0.42651  0.05937  0.40139  1.0000
  Zn  Zn3       1.0  0.63873  0.66921  0.90661  1.0000
  Zn  Zn4       1.0  0.36127  0.33079  0.09339  1.0000
  Zn  Zn5       1.0  0.19027  0.42782  0.86862  1.0000
  Zn  Zn6       1.0  0.80973  0.57218  0.13138  1.0000
  Zn  Zn7       1.0  0.07379  0.44884  0.09720  1.0000
  Zn  Zn8       1.0  0.92621  0.55116  0.90280  1.0000
  Zn  Zn9       1.0  0.46990  0.21038  0.52052  1.0000
  Zn  Zn10      1.0  0.53010  0.78962  0.47948  1.0000
  O   O1        1.0  0.44500  0.88510  0.68030  1.0000
  O   O2        1.0  0.55500  0.11490  0.31970  1.0000
  O   O3        1.0  0.55140  0.71170  0.79120  1.0000
  O   O4        1.0  0.44860  0.28830  0.20880  1.0000
  O   O5        1.0  0.33890  0.48730  0.00670  1.0000
  O   O6        1.0  0.66110  0.51270  0.99330  1.0000
  O   O7        1.0  0.14960  0.57240  0.03100  1.0000
  O   O8        1.0  0.85040  0.42760  0.96900  1.0000
  O   O9        1.0  0.97120  0.99450  0.89040  1.0000
  O   O10       1.0  0.02880  0.00550  0.10960  1.0000
  O   O11       1.0  0.04440  0.08670  0.76880  1.0000
  O   O12       1.0  0.95560  0.91330  0.23120  1.0000
  O   O13       1.0  0.46190  0.22890  0.03530  1.0000
  O   O14       1.0  0.53810  0.77110  0.96470  1.0000
  O   O15       1.0  0.34780  0.30910  0.90520  1.0000
  O   O16       1.0  0.65220  0.69090  0.09480  1.0000
  O   O17       1.0  0.49600  0.16980  0.65560  1.0000
  O   O18       1.0  0.50400  0.83020  0.34440  1.0000
  O   O19       1.0  0.59220  0.97830  0.70990  1.0000
  O   O20       1.0  0.40780  0.02170  0.29010  1.0000
  O   O21       1.0  0.86970  0.81440  0.98600  1.0000
  O   O22       1.0  0.13030  0.18560  0.01400  1.0000
  O   O23       1.0  0.82720  0.89580  0.08070  1.0000
  O   O24       1.0  0.17280  0.10420  0.91930  1.0000
  O   O25       1.0  0.13500  0.39120  0.78240  1.0000
  O   O26       1.0  0.86500  0.60880  0.21760  1.0000
  O   O27       1.0  0.95130  0.51300  0.78550  1.0000
  O   O28       1.0  0.04870  0.48700  0.21450  1.0000
  O   O29       1.0  0.66360  0.64790  0.54380  1.0000
  O   O30       1.0  0.33640  0.35210  0.45620  1.0000
  O   O31       1.0  0.67940  0.55280  0.46100  1.0000
  O   O32       1.0  0.32060  0.44720  0.53900  1.0000
  O   O33       1.0  0.08490  0.26590  0.46400  1.0000
  O   O34       1.0  0.91510  0.73410  0.53600  1.0000
  O   O35       1.0  0.19680  0.17760  0.59240  1.0000
  O   O36       1.0  0.80320  0.82240  0.40760  1.0000
  O   O37       1.0  0.98970  0.33270  0.16950  1.0000
  O   O38       1.0  0.01030  0.66730  0.83050  1.0000
  O   O39       1.0  0.80890  0.42180  0.20900  1.0000
  O   O40       1.0  0.19110  0.57820  0.79100  1.0000
  O   O41       1.0  0.61620  0.20210  0.45580  1.0000
  O   O42       1.0  0.38380  0.79790  0.54420  1.0000
  O   O43       1.0  0.69890  0.00960  0.52040  1.0000
  O   O44       1.0  0.30110  0.99040  0.47960  1.0000
  O   O45       1.0  0.10510  0.82060  0.44110  1.0000
  O   O46       1.0  0.89490  0.17940  0.55890  1.0000
  O   O47       1.0  0.18700  0.91990  0.33200  1.0000
  O   O48       1.0  0.81300  0.08010  0.66800  1.0000
  O   O49       1.0  0.71840  0.78540  0.65570  1.0000
  O   O50       1.0  0.28160  0.21460  0.34430  1.0000
  H   H1        1.0  0.74790  0.79970  0.61430  1.0000
  H   H2        1.0  0.25210  0.20030  0.38570  1.0000
  H   H3        1.0  0.72550  0.75980  0.70640  1.0000
  H   H4        1.0  0.27450  0.24020  0.29360  1.0000
  O   O51       1.0  0.77630  0.68850  0.84980  1.0000
  O   O52       1.0  0.22370  0.31150  0.15020  1.0000
  H   H5        1.0  0.77810  0.71990  0.86890  1.0000
  H   H6        1.0  0.22190  0.28010  0.13110  1.0000
  O   O53       1.0  0.08380  0.42060  0.97260  1.0000
  O   O54       1.0  0.91620  0.57940  0.02740  1.0000
  H   H7        1.0  0.08460  0.37020  0.98550  1.0000
  H   H8        1.0  0.91540  0.62980  0.01450  1.0000
  O   O55       1.0  0.43500  0.09050  0.51970  1.0000
  O   O56       1.0  0.56500  0.90950  0.48030  1.0000
  H   H9        1.0  0.38300  0.09380  0.54130  1.0000
  H   H10       1.0  0.61700  0.90620  0.45870  1.0000
  N   N1        1.0  0.04900  0.99910  0.83450  1.0000
  N   N2        1.0  0.95100  0.00090  0.16550  1.0000
  N   N3        1.0  0.80490  0.88950  0.01150  1.0000
  N   N4        1.0  0.19510  0.11050  0.98850  1.0000
  N   N5        1.0  0.10870  0.25410  0.54250  1.0000
  N   N6        1.0  0.89130  0.74590  0.45750  1.0000
  N   N7        1.0  0.10520  0.91170  0.38150  1.0000
  N   N8        1.0  0.89480  0.08830  0.61850  1.0000
  C   C1        1.0  0.34840  0.79730  0.81220  1.0000
  C   C2        1.0  0.65160  0.20270  0.18780  1.0000
  C   C3        1.0  0.34650  0.69270  0.87930  1.0000
  C   C4        1.0  0.65350  0.30730  0.12070  1.0000
  H   H11       1.0  0.41370  0.62540  0.89120  1.0000
  H   H12       1.0  0.58630  0.37460  0.10880  1.0000
  C   C5        1.0  0.24680  0.68730  0.92830  1.0000
  C   C6        1.0  0.75320  0.31270  0.07170  1.0000
  C   C7        1.0  0.14830  0.78900  0.91380  1.0000
  C   C8        1.0  0.85170  0.21100  0.08620  1.0000
  H   H13       1.0  0.08080  0.78750  0.94690  1.0000
  H   H14       1.0  0.91920  0.21250  0.05310  1.0000
  C   C9        1.0  0.15240  0.89310  0.84890  1.0000
  C   C10       1.0  0.84760  0.10690  0.15110  1.0000
  C   C11       1.0  0.24930  0.89900  0.79680  1.0000
  C   C12       1.0  0.75070  0.10100  0.20320  1.0000
  H   H15       1.0  0.24890  0.96930  0.75220  1.0000
  H   H16       1.0  0.75110  0.03070  0.24780  1.0000
  C   C13       1.0  0.45660  0.79940  0.75670  1.0000
  C   C14       1.0  0.54340  0.20060  0.24330  1.0000
  C   C15       1.0  0.24290  0.57460  0.99350  1.0000
  C   C16       1.0  0.75710  0.42540  0.00650  1.0000
  C   C17       1.0  0.52160  0.14640  0.92680  1.0000
  C   C18       1.0  0.47840  0.85360  0.07320  1.0000
  C   C19       1.0  0.49970  0.14820  0.84120  1.0000
  C   C20       1.0  0.50030  0.85180  0.15880  1.0000
  H   H17       1.0  0.43290  0.20640  0.80280  1.0000
  H   H18       1.0  0.56710  0.79360  0.19720  1.0000
  C   C21       1.0  0.57610  0.06440  0.81290  1.0000
  C   C22       1.0  0.42390  0.93560  0.18710  1.0000
  C   C23       1.0  0.67590  0.97760  0.86900  1.0000
  C   C24       1.0  0.32410  0.02240  0.13100  1.0000
  H   H19       1.0  0.72700  0.92020  0.85120  1.0000
  H   H20       1.0  0.27300  0.07980  0.14880  1.0000
  C   C25       1.0  0.69840  0.97810  0.95320  1.0000
  C   C26       1.0  0.30160  0.02190  0.04680  1.0000
  C   C27       1.0  0.62200  0.06090  0.98300  1.0000
  C   C28       1.0  0.37800  0.93910  0.01700  1.0000
  H   H21       1.0  0.63810  0.05880  0.03990  1.0000
  H   H22       1.0  0.36190  0.94120  0.96010  1.0000
  C   C29       1.0  0.43640  0.23510  0.95820  1.0000
  C   C30       1.0  0.56360  0.76490  0.04180  1.0000
  C   C31       1.0  0.55340  0.07060  0.71800  1.0000
  C   C32       1.0  0.44660  0.92940  0.28200  1.0000
  C   C33       1.0  0.98860  0.42780  0.67980  1.0000
  C   C34       1.0  0.01140  0.57220  0.32020  1.0000
  C   C35       1.0  0.87690  0.49740  0.63850  1.0000
  C   C36       1.0  0.12310  0.50260  0.36150  1.0000
  H   H23       1.0  0.82640  0.55220  0.65940  1.0000
  H   H24       1.0  0.17360  0.44780  0.34060  1.0000
  C   C37       1.0  0.83790  0.48760  0.56580  1.0000
  C   C38       1.0  0.16210  0.51240  0.43420  1.0000
  C   C39       1.0  0.91450  0.40490  0.53510  1.0000
  C   C40       1.0  0.08550  0.59510  0.46490  1.0000
  H   H25       1.0  0.89090  0.39630  0.48670  1.0000
  H   H26       1.0  0.10910  0.60370  0.51330  1.0000
  C   C41       1.0  0.02520  0.33710  0.57800  1.0000
  C   C42       1.0  0.97480  0.66290  0.42200  1.0000
  C   C43       1.0  0.06540  0.34560  0.65020  1.0000
  C   C44       1.0  0.93460  0.65440  0.34980  1.0000
  H   H27       1.0  0.14110  0.29780  0.67790  1.0000
  H   H28       1.0  0.85890  0.70220  0.32210  1.0000
  C   C45       1.0  0.02860  0.44520  0.75610  1.0000
  C   C46       1.0  0.97140  0.55480  0.24390  1.0000
  C   C47       1.0  0.71760  0.56810  0.51810  1.0000
  C   C48       1.0  0.28240  0.43190  0.48190  1.0000
  C   C49       1.0  0.90370  0.22020  0.29060  1.0000
  C   C50       1.0  0.09630  0.77980  0.70940  1.0000
  C   C51       1.0  0.80640  0.21420  0.34480  1.0000
  C   C52       1.0  0.19360  0.78580  0.65520  1.0000
  H   H29       1.0  0.74050  0.28150  0.33640  1.0000
  H   H30       1.0  0.25950  0.71850  0.66360  1.0000
  C   C53       1.0  0.80580  0.10980  0.41100  1.0000
  C   C54       1.0  0.19420  0.89020  0.58900  1.0000
  C   C55       1.0  0.90440  0.00930  0.42330  1.0000
  C   C56       1.0  0.09560  0.99070  0.57670  1.0000
  H   H31       1.0  0.90590  0.93830  0.46710  1.0000
  H   H32       1.0  0.09410  0.06170  0.53290  1.0000
  C   C57       1.0  0.99970  0.01680  0.36950  1.0000
  C   C58       1.0  0.00030  0.98320  0.63050  1.0000
  C   C59       1.0  0.00210  0.12040  0.30330  1.0000
  C   C60       1.0  0.99790  0.87960  0.69670  1.0000
  H   H33       1.0  0.06820  0.12260  0.26830  1.0000
  H   H34       1.0  0.93180  0.87740  0.73170  1.0000
  C   C61       1.0  0.90190  0.33300  0.21760  1.0000
  C   C62       1.0  0.09810  0.66700  0.78240  1.0000
  C   C63       1.0  0.69900  0.10440  0.46780  1.0000
  C   C64       1.0  0.30100  0.89560  0.53220  1.0000
