data_image0
_chemical_formula_structural       Li8S16O64H16C40H8C8H8
_chemical_formula_sum              "Li8 S16 O64 H32 C48"
_cell_length_a       18.13
_cell_length_b       9.0962
_cell_length_c       13.786
_cell_angle_alpha    90
_cell_angle_beta     90
_cell_angle_gamma    90

_space_group_name_H-M_alt    "P 1"
_space_group_IT_number       1

loop_
  _space_group_symop_operation_xyz
  'x, y, z'

loop_
  _atom_site_type_symbol
  _atom_site_label
  _atom_site_symmetry_multiplicity
  _atom_site_fract_x
  _atom_site_fract_y
  _atom_site_fract_z
  _atom_site_occupancy
  Li  Li1       1.0  0.25000  0.43470  0.75000  1.0000
  Li  Li2       1.0  0.75000  0.06530  0.25000  1.0000
  Li  Li3       1.0  0.75000  0.93470  0.75000  1.0000
  Li  Li4       1.0  0.25000  0.56530  0.25000  1.0000
  Li  Li5       1.0  0.75000  0.56530  0.25000  1.0000
  Li  Li6       1.0  0.25000  0.93470  0.75000  1.0000
  Li  Li7       1.0  0.25000  0.06530  0.25000  1.0000
  Li  Li8       1.0  0.75000  0.43470  0.75000  1.0000
  S   S1        1.0  0.14868  0.68790  0.69272  1.0000
  S   S2        1.0  0.85132  0.81210  0.19272  1.0000
  S   S3        1.0  0.85132  0.18790  0.80728  1.0000
  S   S4        1.0  0.14868  0.31210  0.30728  1.0000
  S   S5        1.0  0.64868  0.18790  0.69272  1.0000
  S   S6        1.0  0.35132  0.31210  0.19272  1.0000
  S   S7        1.0  0.35132  0.68790  0.80728  1.0000
  S   S8        1.0  0.64868  0.81210  0.30728  1.0000
  S   S9        1.0  0.85132  0.31210  0.30728  1.0000
  S   S10       1.0  0.14868  0.18790  0.80728  1.0000
  S   S11       1.0  0.14868  0.81210  0.19272  1.0000
  S   S12       1.0  0.85132  0.68790  0.69272  1.0000
  S   S13       1.0  0.35132  0.81210  0.30728  1.0000
  S   S14       1.0  0.64868  0.68790  0.80728  1.0000
  S   S15       1.0  0.64868  0.31210  0.19272  1.0000
  S   S16       1.0  0.35132  0.18790  0.69272  1.0000
  O   O1        1.0  0.18796  0.55350  0.66681  1.0000
  O   O2        1.0  0.81204  0.94650  0.16681  1.0000
  O   O3        1.0  0.81204  0.05350  0.83319  1.0000
  O   O4        1.0  0.18796  0.44650  0.33319  1.0000
  O   O5        1.0  0.68796  0.05350  0.66681  1.0000
  O   O6        1.0  0.31204  0.44650  0.16681  1.0000
  O   O7        1.0  0.31204  0.55350  0.83319  1.0000
  O   O8        1.0  0.68796  0.94650  0.33319  1.0000
  O   O9        1.0  0.81204  0.44650  0.33319  1.0000
  O   O10       1.0  0.18796  0.05350  0.83319  1.0000
  O   O11       1.0  0.18796  0.94650  0.16681  1.0000
  O   O12       1.0  0.81204  0.55350  0.66681  1.0000
  O   O13       1.0  0.31204  0.94650  0.33319  1.0000
  O   O14       1.0  0.68796  0.55350  0.83319  1.0000
  O   O15       1.0  0.68796  0.44650  0.16681  1.0000
  O   O16       1.0  0.31204  0.05350  0.66681  1.0000
  O   O17       1.0  0.19025  0.81787  0.66362  1.0000
  O   O18       1.0  0.80975  0.68213  0.16362  1.0000
  O   O19       1.0  0.80975  0.31787  0.83638  1.0000
  O   O20       1.0  0.19025  0.18213  0.33638  1.0000
  O   O21       1.0  0.69025  0.31787  0.66362  1.0000
  O   O22       1.0  0.30975  0.18213  0.16362  1.0000
  O   O23       1.0  0.30975  0.81787  0.83638  1.0000
  O   O24       1.0  0.69025  0.68213  0.33638  1.0000
  O   O25       1.0  0.80975  0.18213  0.33638  1.0000
  O   O26       1.0  0.19025  0.31787  0.83638  1.0000
  O   O27       1.0  0.19025  0.68213  0.16362  1.0000
  O   O28       1.0  0.80975  0.81787  0.66362  1.0000
  O   O29       1.0  0.30975  0.68213  0.33638  1.0000
  O   O30       1.0  0.69025  0.81787  0.83638  1.0000
  O   O31       1.0  0.69025  0.18213  0.16362  1.0000
  O   O32       1.0  0.30975  0.31787  0.66362  1.0000
  O   O33       1.0  0.12672  0.69008  0.79374  1.0000
  O   O34       1.0  0.87328  0.80992  0.29374  1.0000
  O   O35       1.0  0.87328  0.19008  0.70626  1.0000
  O   O36       1.0  0.12672  0.30992  0.20626  1.0000
  O   O37       1.0  0.62672  0.19008  0.79374  1.0000
  O   O38       1.0  0.37328  0.30992  0.29374  1.0000
  O   O39       1.0  0.37328  0.69008  0.70626  1.0000
  O   O40       1.0  0.62672  0.80992  0.20626  1.0000
  O   O41       1.0  0.87328  0.30992  0.20626  1.0000
  O   O42       1.0  0.12672  0.19008  0.70626  1.0000
  O   O43       1.0  0.12672  0.80992  0.29374  1.0000
  O   O44       1.0  0.87328  0.69008  0.79374  1.0000
  O   O45       1.0  0.37328  0.80992  0.20626  1.0000
  O   O46       1.0  0.62672  0.69008  0.70626  1.0000
  O   O47       1.0  0.62672  0.30992  0.29374  1.0000
  O   O48       1.0  0.37328  0.19008  0.79374  1.0000
  O   O49       1.0  0.13282  0.70543  0.47722  1.0000
  O   O50       1.0  0.86718  0.79457  0.97722  1.0000
  O   O51       1.0  0.86718  0.20543  0.02278  1.0000
  O   O52       1.0  0.13282  0.29457  0.52278  1.0000
  O   O53       1.0  0.63282  0.20543  0.47722  1.0000
  O   O54       1.0  0.36718  0.29457  0.97722  1.0000
  O   O55       1.0  0.36718  0.70543  0.02278  1.0000
  O   O56       1.0  0.63282  0.79457  0.52278  1.0000
  O   O57       1.0  0.86718  0.29457  0.52278  1.0000
  O   O58       1.0  0.13282  0.20543  0.02278  1.0000
  O   O59       1.0  0.13282  0.79457  0.97722  1.0000
  O   O60       1.0  0.86718  0.70543  0.47722  1.0000
  O   O61       1.0  0.36718  0.79457  0.52278  1.0000
  O   O62       1.0  0.63282  0.70543  0.02278  1.0000
  O   O63       1.0  0.63282  0.29457  0.97722  1.0000
  O   O64       1.0  0.36718  0.20543  0.47722  1.0000
  H   H1        1.0  0.12890  0.72300  0.41760  1.0000
  H   H2        1.0  0.87110  0.77700  0.91760  1.0000
  H   H3        1.0  0.87110  0.22300  0.08240  1.0000
  H   H4        1.0  0.12890  0.27700  0.58240  1.0000
  H   H5        1.0  0.62890  0.22300  0.41760  1.0000
  H   H6        1.0  0.37110  0.27700  0.91760  1.0000
  H   H7        1.0  0.37110  0.72300  0.08240  1.0000
  H   H8        1.0  0.62890  0.77700  0.58240  1.0000
  H   H9        1.0  0.87110  0.27700  0.58240  1.0000
  H   H10       1.0  0.12890  0.22300  0.08240  1.0000
  H   H11       1.0  0.12890  0.77700  0.91760  1.0000
  H   H12       1.0  0.87110  0.72300  0.41760  1.0000
  H   H13       1.0  0.37110  0.77700  0.58240  1.0000
  H   H14       1.0  0.62890  0.72300  0.08240  1.0000
  H   H15       1.0  0.62890  0.27700  0.91760  1.0000
  H   H16       1.0  0.37110  0.22300  0.41760  1.0000
  C   C1        1.0  0.06656  0.68891  0.62456  1.0000
  C   C2        1.0  0.93344  0.81109  0.12456  1.0000
  C   C3        1.0  0.93344  0.18891  0.87544  1.0000
  C   C4        1.0  0.06656  0.31109  0.37544  1.0000
  C   C5        1.0  0.56656  0.18891  0.62456  1.0000
  C   C6        1.0  0.43344  0.31109  0.12456  1.0000
  C   C7        1.0  0.43344  0.68891  0.87544  1.0000
  C   C8        1.0  0.56656  0.81109  0.37544  1.0000
  C   C9        1.0  0.93344  0.31109  0.37544  1.0000
  C   C10       1.0  0.06656  0.18891  0.87544  1.0000
  C   C11       1.0  0.06656  0.81109  0.12456  1.0000
  C   C12       1.0  0.93344  0.68891  0.62456  1.0000
  C   C13       1.0  0.43344  0.81109  0.37544  1.0000
  C   C14       1.0  0.56656  0.68891  0.87544  1.0000
  C   C15       1.0  0.56656  0.31109  0.12456  1.0000
  C   C16       1.0  0.43344  0.18891  0.62456  1.0000
  C   C17       1.0  0.06657  0.69925  0.52261  1.0000
  C   C18       1.0  0.93343  0.80075  0.02261  1.0000
  C   C19       1.0  0.93343  0.19925  0.97739  1.0000
  C   C20       1.0  0.06657  0.30075  0.47739  1.0000
  C   C21       1.0  0.56657  0.19925  0.52261  1.0000
  C   C22       1.0  0.43343  0.30075  0.02261  1.0000
  C   C23       1.0  0.43343  0.69925  0.97739  1.0000
  C   C24       1.0  0.56657  0.80075  0.47739  1.0000
  C   C25       1.0  0.93343  0.30075  0.47739  1.0000
  C   C26       1.0  0.06657  0.19925  0.97739  1.0000
  C   C27       1.0  0.06657  0.80075  0.02261  1.0000
  C   C28       1.0  0.93343  0.69925  0.52261  1.0000
  C   C29       1.0  0.43343  0.80075  0.47739  1.0000
  C   C30       1.0  0.56657  0.69925  0.97739  1.0000
  C   C31       1.0  0.56657  0.30075  0.02261  1.0000
  C   C32       1.0  0.43343  0.19925  0.52261  1.0000
  C   C33       1.0  0.00000  0.70300  0.47254  1.0000
  C   C34       1.0  0.00000  0.79700  0.97254  1.0000
  C   C35       1.0  0.00000  0.20300  0.02746  1.0000
  C   C36       1.0  0.00000  0.29700  0.52746  1.0000
  C   C37       1.0  0.50000  0.20300  0.47254  1.0000
  C   C38       1.0  0.50000  0.29700  0.97254  1.0000
  C   C39       1.0  0.50000  0.70300  0.02746  1.0000
  C   C40       1.0  0.50000  0.79700  0.52746  1.0000
  H   H17       1.0  0.00000  0.70800  0.40520  1.0000
  H   H18       1.0  0.00000  0.79200  0.90520  1.0000
  H   H19       1.0  0.00000  0.20800  0.09480  1.0000
  H   H20       1.0  0.00000  0.29200  0.59480  1.0000
  H   H21       1.0  0.50000  0.20800  0.40520  1.0000
  H   H22       1.0  0.50000  0.29200  0.90520  1.0000
  H   H23       1.0  0.50000  0.70800  0.09480  1.0000
  H   H24       1.0  0.50000  0.79200  0.59480  1.0000
  C   C41       1.0  0.00000  0.68289  0.67355  1.0000
  C   C42       1.0  0.00000  0.81711  0.17355  1.0000
  C   C43       1.0  0.00000  0.18289  0.82645  1.0000
  C   C44       1.0  0.00000  0.31711  0.32645  1.0000
  C   C45       1.0  0.50000  0.18289  0.67355  1.0000
  C   C46       1.0  0.50000  0.31711  0.17355  1.0000
  C   C47       1.0  0.50000  0.68289  0.82645  1.0000
  C   C48       1.0  0.50000  0.81711  0.32645  1.0000
  H   H25       1.0  0.00000  0.67460  0.74080  1.0000
  H   H26       1.0  0.00000  0.82540  0.24080  1.0000
  H   H27       1.0  0.00000  0.17460  0.75920  1.0000
  H   H28       1.0  0.00000  0.32540  0.25920  1.0000
  H   H29       1.0  0.50000  0.17460  0.74080  1.0000
  H   H30       1.0  0.50000  0.32540  0.24080  1.0000
  H   H31       1.0  0.50000  0.67460  0.75920  1.0000
  H   H32       1.0  0.50000  0.82540  0.25920  1.0000
