data_image0
_chemical_formula_structural       Mo20Ni4O76H8O4H8N8C8H4C4H4C4H4C4
_chemical_formula_sum              "Mo20 Ni4 O80 H28 N8 C20"
_cell_length_a       33.217
_cell_length_b       5.6416
_cell_length_c       13.9824
_cell_angle_alpha    90
_cell_angle_beta     99.407
_cell_angle_gamma    90

_space_group_name_H-M_alt    "P 1"
_space_group_IT_number       1

loop_
  _space_group_symop_operation_xyz
  'x, y, z'

loop_
  _atom_site_type_symbol
  _atom_site_label
  _atom_site_symmetry_multiplicity
  _atom_site_fract_x
  _atom_site_fract_y
  _atom_site_fract_z
  _atom_site_occupancy
  Mo  Mo1       1.0  0.31166  0.70332  0.40205  1.0000
  Mo  Mo2       1.0  0.31166  0.29668  0.90205  1.0000
  Mo  Mo3       1.0  0.81166  0.20332  0.40205  1.0000
  Mo  Mo4       1.0  0.81166  0.79668  0.90205  1.0000
  Mo  Mo5       1.0  0.21867  0.82786  0.43461  1.0000
  Mo  Mo6       1.0  0.21867  0.17214  0.93461  1.0000
  Mo  Mo7       1.0  0.71867  0.32786  0.43461  1.0000
  Mo  Mo8       1.0  0.71867  0.67214  0.93461  1.0000
  Mo  Mo9       1.0  0.25117  0.35852  0.25444  1.0000
  Mo  Mo10      1.0  0.25117  0.64148  0.75444  1.0000
  Mo  Mo11      1.0  0.75117  0.85852  0.25444  1.0000
  Mo  Mo12      1.0  0.75117  0.14148  0.75444  1.0000
  Mo  Mo13      1.0  0.19210  0.27989  0.60823  1.0000
  Mo  Mo14      1.0  0.19210  0.72011  0.10823  1.0000
  Mo  Mo15      1.0  0.69210  0.77989  0.60823  1.0000
  Mo  Mo16      1.0  0.69210  0.22011  0.10823  1.0000
  Mo  Mo17      1.0  0.28613  0.16463  0.57954  1.0000
  Mo  Mo18      1.0  0.28613  0.83537  0.07954  1.0000
  Mo  Mo19      1.0  0.78613  0.66463  0.57954  1.0000
  Mo  Mo20      1.0  0.78613  0.33537  0.07954  1.0000
  Ni  Ni1       1.0  0.41366  0.47859  0.49767  1.0000
  Ni  Ni2       1.0  0.41366  0.52141  0.99767  1.0000
  Ni  Ni3       1.0  0.91366  0.97859  0.49767  1.0000
  Ni  Ni4       1.0  0.91366  0.02141  0.99767  1.0000
  O   O1        1.0  0.46735  0.99170  0.35840  1.0000
  O   O2        1.0  0.46735  0.00830  0.85840  1.0000
  O   O3        1.0  0.96735  0.49170  0.35840  1.0000
  O   O4        1.0  0.96735  0.50830  0.85840  1.0000
  O   O5        1.0  0.44213  0.78800  0.47130  1.0000
  O   O6        1.0  0.44213  0.21200  0.97130  1.0000
  O   O7        1.0  0.94213  0.28800  0.47130  1.0000
  O   O8        1.0  0.94213  0.71200  0.97130  1.0000
  O   O9        1.0  0.35894  0.64040  0.47520  1.0000
  O   O10       1.0  0.35894  0.35960  0.97520  1.0000
  O   O11       1.0  0.85894  0.14040  0.47520  1.0000
  O   O12       1.0  0.85894  0.85960  0.97520  1.0000
  O   O13       1.0  0.28370  0.88620  0.49150  1.0000
  O   O14       1.0  0.28370  0.11380  0.99150  1.0000
  O   O15       1.0  0.78370  0.38620  0.49150  1.0000
  O   O16       1.0  0.78370  0.61380  0.99150  1.0000
  O   O17       1.0  0.30599  0.44860  0.31180  1.0000
  O   O18       1.0  0.30599  0.55140  0.81180  1.0000
  O   O19       1.0  0.80599  0.94860  0.31180  1.0000
  O   O20       1.0  0.80599  0.05140  0.81180  1.0000
  O   O21       1.0  0.32369  0.92990  0.33410  1.0000
  O   O22       1.0  0.32369  0.07010  0.83410  1.0000
  O   O23       1.0  0.82369  0.42990  0.33410  1.0000
  O   O24       1.0  0.82369  0.57010  0.83410  1.0000
  O   O25       1.0  0.22236  0.09830  0.52350  1.0000
  O   O26       1.0  0.22236  0.90170  0.02350  1.0000
  O   O27       1.0  0.72236  0.59830  0.52350  1.0000
  O   O28       1.0  0.72236  0.40170  0.02350  1.0000
  O   O29       1.0  0.21103  0.60140  0.51200  1.0000
  O   O30       1.0  0.21103  0.39860  0.01200  1.0000
  O   O31       1.0  0.71103  0.10140  0.51200  1.0000
  O   O32       1.0  0.71103  0.89860  0.01200  1.0000
  O   O33       1.0  0.17104  0.87760  0.37270  1.0000
  O   O34       1.0  0.17104  0.12240  0.87270  1.0000
  O   O35       1.0  0.67104  0.37760  0.37270  1.0000
  O   O36       1.0  0.67104  0.62240  0.87270  1.0000
  O   O37       1.0  0.24686  0.67080  0.35020  1.0000
  O   O38       1.0  0.24686  0.32920  0.85020  1.0000
  O   O39       1.0  0.74686  0.17080  0.35020  1.0000
  O   O40       1.0  0.74686  0.82920  0.85020  1.0000
  O   O41       1.0  0.23626  0.16910  0.33960  1.0000
  O   O42       1.0  0.23626  0.83090  0.83960  1.0000
  O   O43       1.0  0.73626  0.66910  0.33960  1.0000
  O   O44       1.0  0.73626  0.33090  0.83960  1.0000
  O   O45       1.0  0.19554  0.45930  0.19750  1.0000
  O   O46       1.0  0.19554  0.54070  0.69750  1.0000
  O   O47       1.0  0.69554  0.95930  0.19750  1.0000
  O   O48       1.0  0.69554  0.04070  0.69750  1.0000
  O   O49       1.0  0.26569  0.16890  0.17210  1.0000
  O   O50       1.0  0.26569  0.83110  0.67210  1.0000
  O   O51       1.0  0.76569  0.66890  0.17210  1.0000
  O   O52       1.0  0.76569  0.33110  0.67210  1.0000
  O   O53       1.0  0.25636  0.67350  0.16220  1.0000
  O   O54       1.0  0.25636  0.32650  0.66220  1.0000
  O   O55       1.0  0.75636  0.17350  0.16220  1.0000
  O   O56       1.0  0.75636  0.82650  0.66220  1.0000
  O   O57       1.0  0.17983  0.05850  0.67940  1.0000
  O   O58       1.0  0.17983  0.94150  0.17940  1.0000
  O   O59       1.0  0.67983  0.55850  0.67940  1.0000
  O   O60       1.0  0.67983  0.44150  0.17940  1.0000
  O   O61       1.0  0.14783  0.31290  0.52600  1.0000
  O   O62       1.0  0.14783  0.68710  0.02600  1.0000
  O   O63       1.0  0.64783  0.81290  0.52600  1.0000
  O   O64       1.0  0.64783  0.18710  0.02600  1.0000
  O   O65       1.0  0.29284  0.38470  0.50020  1.0000
  O   O66       1.0  0.29284  0.61530  0.00020  1.0000
  O   O67       1.0  0.79284  0.88470  0.50020  1.0000
  O   O68       1.0  0.79284  0.11530  0.00020  1.0000
  O   O69       1.0  0.33466  0.11830  0.63920  1.0000
  O   O70       1.0  0.33466  0.88170  0.13920  1.0000
  O   O71       1.0  0.83466  0.61830  0.63920  1.0000
  O   O72       1.0  0.83466  0.38170  0.13920  1.0000
  O   O73       1.0  0.38764  0.15650  0.50680  1.0000
  O   O74       1.0  0.38764  0.84350  0.00680  1.0000
  O   O75       1.0  0.88764  0.65650  0.50680  1.0000
  O   O76       1.0  0.88764  0.34350  0.00680  1.0000
  H   H1        1.0  0.36420  0.19380  0.53910  1.0000
  H   H2        1.0  0.36420  0.80620  0.03910  1.0000
  H   H3        1.0  0.86420  0.69380  0.53910  1.0000
  H   H4        1.0  0.86420  0.30620  0.03910  1.0000
  H   H5        1.0  0.39840  0.03050  0.49620  1.0000
  H   H6        1.0  0.39840  0.96950  0.99620  1.0000
  H   H7        1.0  0.89840  0.53050  0.49620  1.0000
  H   H8        1.0  0.89840  0.46950  0.99620  1.0000
  O   O77       1.0  0.47028  0.31160  0.52090  1.0000
  O   O78       1.0  0.47028  0.68840  0.02090  1.0000
  O   O79       1.0  0.97028  0.81160  0.52090  1.0000
  O   O80       1.0  0.97028  0.18840  0.02090  1.0000
  H   H9        1.0  0.49170  0.39950  0.50240  1.0000
  H   H10       1.0  0.49170  0.60050  0.00240  1.0000
  H   H11       1.0  0.99170  0.89950  0.50240  1.0000
  H   H12       1.0  0.99170  0.10050  0.00240  1.0000
  H   H13       1.0  0.46800  0.18870  0.47430  1.0000
  H   H14       1.0  0.46800  0.81130  0.97430  1.0000
  H   H15       1.0  0.96800  0.68870  0.47430  1.0000
  H   H16       1.0  0.96800  0.31130  0.97430  1.0000
  N   N1        1.0  0.41527  0.48730  0.15060  1.0000
  N   N2        1.0  0.41527  0.51270  0.65060  1.0000
  N   N3        1.0  0.91527  0.98730  0.15060  1.0000
  N   N4        1.0  0.91527  0.01270  0.65060  1.0000
  N   N5        1.0  0.41007  0.46150  0.34660  1.0000
  N   N6        1.0  0.41007  0.53850  0.84660  1.0000
  N   N7        1.0  0.91007  0.96150  0.34660  1.0000
  N   N8        1.0  0.91007  0.03850  0.84660  1.0000
  C   C1        1.0  0.43120  0.63200  0.31150  1.0000
  C   C2        1.0  0.43120  0.36800  0.81150  1.0000
  C   C3        1.0  0.93120  0.13200  0.31150  1.0000
  C   C4        1.0  0.93120  0.86800  0.81150  1.0000
  C   C5        1.0  0.43480  0.64420  0.21470  1.0000
  C   C6        1.0  0.43480  0.35580  0.71470  1.0000
  C   C7        1.0  0.93480  0.14420  0.21470  1.0000
  C   C8        1.0  0.93480  0.85580  0.71470  1.0000
  H   H17       1.0  0.45080  0.76190  0.19340  1.0000
  H   H18       1.0  0.45080  0.23810  0.69340  1.0000
  H   H19       1.0  0.95080  0.26190  0.19340  1.0000
  H   H20       1.0  0.95080  0.73810  0.69340  1.0000
  C   C9        1.0  0.39250  0.32300  0.18470  1.0000
  C   C10       1.0  0.39250  0.67700  0.68470  1.0000
  C   C11       1.0  0.89250  0.82300  0.18470  1.0000
  C   C12       1.0  0.89250  0.17700  0.68470  1.0000
  H   H21       1.0  0.37770  0.21640  0.14180  1.0000
  H   H22       1.0  0.37770  0.78360  0.64180  1.0000
  H   H23       1.0  0.87770  0.71640  0.14180  1.0000
  H   H24       1.0  0.87770  0.28360  0.64180  1.0000
  C   C13       1.0  0.39020  0.30740  0.28330  1.0000
  C   C14       1.0  0.39020  0.69260  0.78330  1.0000
  C   C15       1.0  0.89020  0.80740  0.28330  1.0000
  C   C16       1.0  0.89020  0.19260  0.78330  1.0000
  H   H25       1.0  0.37470  0.18820  0.30520  1.0000
  H   H26       1.0  0.37470  0.81180  0.80520  1.0000
  H   H27       1.0  0.87470  0.68820  0.30520  1.0000
  H   H28       1.0  0.87470  0.31180  0.80520  1.0000
  C   C17       1.0  0.44900  0.81770  0.38500  1.0000
  C   C18       1.0  0.44900  0.18230  0.88500  1.0000
  C   C19       1.0  0.94900  0.31770  0.38500  1.0000
  C   C20       1.0  0.94900  0.68230  0.88500  1.0000
