data_image0
_chemical_formula_structural       Pr32Sb96Cl112O152H8O40C24H8C8H8C16H8C8H8C16H8C8H8C16H8C8H8C8
_chemical_formula_sum              "Pr32 Sb96 Cl112 O192 H72 C112"
_cell_length_a       29.0009
_cell_length_b       23.0305
_cell_length_c       29.8285
_cell_angle_alpha    90
_cell_angle_beta     90
_cell_angle_gamma    90

_space_group_name_H-M_alt    "P 1"
_space_group_IT_number       1

loop_
  _space_group_symop_operation_xyz
  'x, y, z'

loop_
  _atom_site_type_symbol
  _atom_site_label
  _atom_site_symmetry_multiplicity
  _atom_site_fract_x
  _atom_site_fract_y
  _atom_site_fract_z
  _atom_site_occupancy
  Pr  Pr1       1.0  0.22864  0.15824  0.33348  1.0000
  Pr  Pr2       1.0  0.27136  0.84176  0.83348  1.0000
  Pr  Pr3       1.0  0.72864  0.34176  0.66652  1.0000
  Pr  Pr4       1.0  0.77136  0.65824  0.16652  1.0000
  Pr  Pr5       1.0  0.77136  0.84176  0.66652  1.0000
  Pr  Pr6       1.0  0.72864  0.15824  0.16652  1.0000
  Pr  Pr7       1.0  0.27136  0.65824  0.33348  1.0000
  Pr  Pr8       1.0  0.22864  0.34176  0.83348  1.0000
  Pr  Pr9       1.0  0.26836  0.18853  0.48840  1.0000
  Pr  Pr10      1.0  0.23164  0.81147  0.98840  1.0000
  Pr  Pr11      1.0  0.76836  0.31147  0.51160  1.0000
  Pr  Pr12      1.0  0.73164  0.68853  0.01160  1.0000
  Pr  Pr13      1.0  0.73164  0.81147  0.51160  1.0000
  Pr  Pr14      1.0  0.76836  0.18853  0.01160  1.0000
  Pr  Pr15      1.0  0.23164  0.68853  0.48840  1.0000
  Pr  Pr16      1.0  0.26836  0.31147  0.98840  1.0000
  Pr  Pr17      1.0  0.30595  0.33169  0.37473  1.0000
  Pr  Pr18      1.0  0.19405  0.66831  0.87473  1.0000
  Pr  Pr19      1.0  0.80595  0.16831  0.62527  1.0000
  Pr  Pr20      1.0  0.69405  0.83169  0.12527  1.0000
  Pr  Pr21      1.0  0.69405  0.66831  0.62527  1.0000
  Pr  Pr22      1.0  0.80595  0.33169  0.12527  1.0000
  Pr  Pr23      1.0  0.19405  0.83169  0.37473  1.0000
  Pr  Pr24      1.0  0.30595  0.16831  0.87473  1.0000
  Pr  Pr25      1.0  0.14471  0.30062  0.41913  1.0000
  Pr  Pr26      1.0  0.35530  0.69938  0.91913  1.0000
  Pr  Pr27      1.0  0.64470  0.19938  0.58087  1.0000
  Pr  Pr28      1.0  0.85530  0.80062  0.08087  1.0000
  Pr  Pr29      1.0  0.85530  0.69938  0.58087  1.0000
  Pr  Pr30      1.0  0.64470  0.30062  0.08087  1.0000
  Pr  Pr31      1.0  0.35530  0.80062  0.41913  1.0000
  Pr  Pr32      1.0  0.14471  0.19938  0.91913  1.0000
  Sb  Sb1       1.0  0.13808  0.26324  0.29875  1.0000
  Sb  Sb2       1.0  0.36192  0.73676  0.79875  1.0000
  Sb  Sb3       1.0  0.63808  0.23676  0.70125  1.0000
  Sb  Sb4       1.0  0.86192  0.76324  0.20125  1.0000
  Sb  Sb5       1.0  0.86192  0.73676  0.70125  1.0000
  Sb  Sb6       1.0  0.63808  0.26324  0.20125  1.0000
  Sb  Sb7       1.0  0.36192  0.76324  0.29875  1.0000
  Sb  Sb8       1.0  0.13808  0.23676  0.79875  1.0000
  Sb  Sb9       1.0  0.11125  0.15264  0.38311  1.0000
  Sb  Sb10      1.0  0.38875  0.84736  0.88311  1.0000
  Sb  Sb11      1.0  0.61125  0.34736  0.61689  1.0000
  Sb  Sb12      1.0  0.88875  0.65264  0.11689  1.0000
  Sb  Sb13      1.0  0.88875  0.84736  0.61689  1.0000
  Sb  Sb14      1.0  0.61125  0.15264  0.11689  1.0000
  Sb  Sb15      1.0  0.38875  0.65264  0.38311  1.0000
  Sb  Sb16      1.0  0.11125  0.34736  0.88311  1.0000
  Sb  Sb17      1.0  0.20292  0.07142  0.43535  1.0000
  Sb  Sb18      1.0  0.29708  0.92858  0.93535  1.0000
  Sb  Sb19      1.0  0.70292  0.42858  0.56465  1.0000
  Sb  Sb20      1.0  0.79708  0.57142  0.06465  1.0000
  Sb  Sb21      1.0  0.79708  0.92858  0.56465  1.0000
  Sb  Sb22      1.0  0.70292  0.07142  0.06465  1.0000
  Sb  Sb23      1.0  0.29708  0.57142  0.43535  1.0000
  Sb  Sb24      1.0  0.20292  0.42858  0.93535  1.0000
  Sb  Sb25      1.0  0.32289  0.09514  0.40357  1.0000
  Sb  Sb26      1.0  0.17711  0.90486  0.90357  1.0000
  Sb  Sb27      1.0  0.82289  0.40486  0.59643  1.0000
  Sb  Sb28      1.0  0.67711  0.59514  0.09643  1.0000
  Sb  Sb29      1.0  0.67711  0.90486  0.59643  1.0000
  Sb  Sb30      1.0  0.82289  0.09514  0.09643  1.0000
  Sb  Sb31      1.0  0.17711  0.59514  0.40357  1.0000
  Sb  Sb32      1.0  0.32289  0.40486  0.90357  1.0000
  Sb  Sb33      1.0  0.34879  0.20213  0.31785  1.0000
  Sb  Sb34      1.0  0.15121  0.79787  0.81785  1.0000
  Sb  Sb35      1.0  0.84879  0.29787  0.68215  1.0000
  Sb  Sb36      1.0  0.65121  0.70213  0.18215  1.0000
  Sb  Sb37      1.0  0.65121  0.79787  0.68215  1.0000
  Sb  Sb38      1.0  0.84879  0.20213  0.18215  1.0000
  Sb  Sb39      1.0  0.15121  0.70213  0.31785  1.0000
  Sb  Sb40      1.0  0.34879  0.29787  0.81785  1.0000
  Sb  Sb41      1.0  0.25717  0.28627  0.26559  1.0000
  Sb  Sb42      1.0  0.24283  0.71373  0.76559  1.0000
  Sb  Sb43      1.0  0.75717  0.21373  0.73441  1.0000
  Sb  Sb44      1.0  0.74283  0.78627  0.23441  1.0000
  Sb  Sb45      1.0  0.74283  0.71373  0.73441  1.0000
  Sb  Sb46      1.0  0.75717  0.28627  0.23441  1.0000
  Sb  Sb47      1.0  0.24283  0.78627  0.26559  1.0000
  Sb  Sb48      1.0  0.25717  0.21373  0.76559  1.0000
  Sb  Sb49      1.0  0.19663  0.39540  0.32945  1.0000
  Sb  Sb50      1.0  0.30337  0.60460  0.82945  1.0000
  Sb  Sb51      1.0  0.69663  0.10460  0.67055  1.0000
  Sb  Sb52      1.0  0.80337  0.89540  0.17055  1.0000
  Sb  Sb53      1.0  0.80337  0.60460  0.67055  1.0000
  Sb  Sb54      1.0  0.69663  0.39540  0.17055  1.0000
  Sb  Sb55      1.0  0.30337  0.89540  0.32945  1.0000
  Sb  Sb56      1.0  0.19663  0.10460  0.82945  1.0000
  Sb  Sb57      1.0  0.13990  0.18003  0.49915  1.0000
  Sb  Sb58      1.0  0.36010  0.81997  0.99915  1.0000
  Sb  Sb59      1.0  0.63990  0.31997  0.50085  1.0000
  Sb  Sb60      1.0  0.86010  0.68003  0.00085  1.0000
  Sb  Sb61      1.0  0.86010  0.81997  0.50085  1.0000
  Sb  Sb62      1.0  0.63990  0.18003  0.00085  1.0000
  Sb  Sb63      1.0  0.36010  0.68003  0.49915  1.0000
  Sb  Sb64      1.0  0.13990  0.31997  0.99915  1.0000
  Sb  Sb65      1.0  0.38142  0.22790  0.43410  1.0000
  Sb  Sb66      1.0  0.11858  0.77210  0.93410  1.0000
  Sb  Sb67      1.0  0.88142  0.27210  0.56590  1.0000
  Sb  Sb68      1.0  0.61858  0.72790  0.06590  1.0000
  Sb  Sb69      1.0  0.61858  0.77210  0.56590  1.0000
  Sb  Sb70      1.0  0.88142  0.22790  0.06590  1.0000
  Sb  Sb71      1.0  0.11858  0.72790  0.43410  1.0000
  Sb  Sb72      1.0  0.38142  0.27210  0.93410  1.0000
  Sb  Sb73      1.0  0.31952  0.33567  0.49879  1.0000
  Sb  Sb74      1.0  0.18048  0.66433  0.99879  1.0000
  Sb  Sb75      1.0  0.81952  0.16433  0.50121  1.0000
  Sb  Sb76      1.0  0.68048  0.83567  0.00121  1.0000
  Sb  Sb77      1.0  0.68048  0.66433  0.50121  1.0000
  Sb  Sb78      1.0  0.81952  0.33567  0.00121  1.0000
  Sb  Sb79      1.0  0.18048  0.83567  0.49879  1.0000
  Sb  Sb80      1.0  0.31952  0.16433  0.99879  1.0000
  Sb  Sb81      1.0  0.22934  0.42176  0.44766  1.0000
  Sb  Sb82      1.0  0.27066  0.57824  0.94766  1.0000
  Sb  Sb83      1.0  0.72934  0.07824  0.55234  1.0000
  Sb  Sb84      1.0  0.77066  0.92176  0.05234  1.0000
  Sb  Sb85      1.0  0.77066  0.57824  0.55234  1.0000
  Sb  Sb86      1.0  0.72934  0.42176  0.05234  1.0000
  Sb  Sb87      1.0  0.27066  0.92176  0.44766  1.0000
  Sb  Sb88      1.0  0.22934  0.07824  0.94766  1.0000
  Sb  Sb89      1.0  0.20022  0.31343  0.52960  1.0000
  Sb  Sb90      1.0  0.29978  0.68657  0.02960  1.0000
  Sb  Sb91      1.0  0.70022  0.18657  0.47040  1.0000
  Sb  Sb92      1.0  0.79978  0.81343  0.97040  1.0000
  Sb  Sb93      1.0  0.79978  0.68657  0.47040  1.0000
  Sb  Sb94      1.0  0.70022  0.31343  0.97040  1.0000
  Sb  Sb95      1.0  0.29978  0.81343  0.52960  1.0000
  Sb  Sb96      1.0  0.20022  0.18657  0.02960  1.0000
  Cl  Cl1       1.0  0.23597  0.24786  0.40445  1.0000
  Cl  Cl2       1.0  0.26403  0.75214  0.90445  1.0000
  Cl  Cl3       1.0  0.73597  0.25214  0.59555  1.0000
  Cl  Cl4       1.0  0.76403  0.74786  0.09555  1.0000
  Cl  Cl5       1.0  0.76403  0.75214  0.59555  1.0000
  Cl  Cl6       1.0  0.73597  0.24786  0.09555  1.0000
  Cl  Cl7       1.0  0.26403  0.74786  0.40445  1.0000
  Cl  Cl8       1.0  0.23597  0.25214  0.90445  1.0000
  Cl  Cl9       1.0  0.27704  0.14911  0.24682  1.0000
  Cl  Cl10      1.0  0.22296  0.85089  0.74682  1.0000
  Cl  Cl11      1.0  0.77704  0.35089  0.75318  1.0000
  Cl  Cl12      1.0  0.72296  0.64911  0.25318  1.0000
  Cl  Cl13      1.0  0.72296  0.85089  0.75318  1.0000
  Cl  Cl14      1.0  0.77704  0.14911  0.25318  1.0000
  Cl  Cl15      1.0  0.22296  0.64911  0.24682  1.0000
  Cl  Cl16      1.0  0.27704  0.35089  0.74682  1.0000
  Cl  Cl17      1.0  0.25004  0.02802  0.33874  1.0000
  Cl  Cl18      1.0  0.24996  0.97198  0.83874  1.0000
  Cl  Cl19      1.0  0.75004  0.47198  0.66126  1.0000
  Cl  Cl20      1.0  0.74996  0.52802  0.16126  1.0000
  Cl  Cl21      1.0  0.74996  0.97198  0.66126  1.0000
  Cl  Cl22      1.0  0.75004  0.02802  0.16126  1.0000
  Cl  Cl23      1.0  0.24996  0.52802  0.33874  1.0000
  Cl  Cl24      1.0  0.25004  0.47198  0.83874  1.0000
  Cl  Cl25      1.0  0.28439  0.06727  0.50806  1.0000
  Cl  Cl26      1.0  0.21561  0.93273  0.00806  1.0000
  Cl  Cl27      1.0  0.78439  0.43273  0.49194  1.0000
  Cl  Cl28      1.0  0.71561  0.56727  0.99194  1.0000
  Cl  Cl29      1.0  0.71561  0.93273  0.49194  1.0000
  Cl  Cl30      1.0  0.78439  0.06727  0.99194  1.0000
  Cl  Cl31      1.0  0.21561  0.56727  0.50806  1.0000
  Cl  Cl32      1.0  0.28439  0.43273  0.00806  1.0000
  Cl  Cl33      1.0  0.21662  0.18760  0.57488  1.0000
  Cl  Cl34      1.0  0.28338  0.81240  0.07488  1.0000
  Cl  Cl35      1.0  0.71662  0.31240  0.42512  1.0000
  Cl  Cl36      1.0  0.78338  0.68760  0.92512  1.0000
  Cl  Cl37      1.0  0.78338  0.81240  0.42512  1.0000
  Cl  Cl38      1.0  0.71662  0.18760  0.92512  1.0000
  Cl  Cl39      1.0  0.28338  0.68760  0.57488  1.0000
  Cl  Cl40      1.0  0.21662  0.31240  0.07488  1.0000
  Cl  Cl41      1.0  0.39278  0.36544  0.41828  1.0000
  Cl  Cl42      1.0  0.10722  0.63456  0.91828  1.0000
  Cl  Cl43      1.0  0.89278  0.13456  0.58172  1.0000
  Cl  Cl44      1.0  0.60722  0.86544  0.08172  1.0000
  Cl  Cl45      1.0  0.60722  0.63456  0.58172  1.0000
  Cl  Cl46      1.0  0.89278  0.36544  0.08172  1.0000
  Cl  Cl47      1.0  0.10722  0.86544  0.41828  1.0000
  Cl  Cl48      1.0  0.39278  0.13456  0.91828  1.0000
  Cl  Cl49      1.0  0.36097  0.33376  0.29002  1.0000
  Cl  Cl50      1.0  0.13903  0.66624  0.79002  1.0000
  Cl  Cl51      1.0  0.86097  0.16624  0.70998  1.0000
  Cl  Cl52      1.0  0.63903  0.83376  0.20998  1.0000
  Cl  Cl53      1.0  0.63903  0.66624  0.70998  1.0000
  Cl  Cl54      1.0  0.86097  0.33376  0.20998  1.0000
  Cl  Cl55      1.0  0.13903  0.83376  0.29002  1.0000
  Cl  Cl56      1.0  0.36097  0.16624  0.79002  1.0000
  Cl  Cl57      1.0  0.12838  0.42616  0.40779  1.0000
  Cl  Cl58      1.0  0.37162  0.57384  0.90779  1.0000
  Cl  Cl59      1.0  0.62838  0.07384  0.59221  1.0000
  Cl  Cl60      1.0  0.87162  0.92616  0.09221  1.0000
  Cl  Cl61      1.0  0.87162  0.57384  0.59221  1.0000
  Cl  Cl62      1.0  0.62838  0.42616  0.09221  1.0000
  Cl  Cl63      1.0  0.37162  0.92616  0.40779  1.0000
  Cl  Cl64      1.0  0.12838  0.07384  0.90779  1.0000
  Cl  Cl65      1.0  0.08632  0.31024  0.49629  1.0000
  Cl  Cl66      1.0  0.41368  0.68976  0.99629  1.0000
  Cl  Cl67      1.0  0.58632  0.18976  0.50371  1.0000
  Cl  Cl68      1.0  0.91368  0.81024  0.00371  1.0000
  Cl  Cl69      1.0  0.91368  0.68976  0.50371  1.0000
  Cl  Cl70      1.0  0.58632  0.31024  0.00371  1.0000
  Cl  Cl71      1.0  0.41368  0.81024  0.49629  1.0000
  Cl  Cl72      1.0  0.08632  0.18976  0.99629  1.0000
  Cl  Cl73      1.0  0.05967  0.27855  0.37289  1.0000
  Cl  Cl74      1.0  0.44033  0.72145  0.87289  1.0000
  Cl  Cl75      1.0  0.55967  0.22145  0.62711  1.0000
  Cl  Cl76      1.0  0.94033  0.77855  0.12711  1.0000
  Cl  Cl77      1.0  0.94033  0.72145  0.62711  1.0000
  Cl  Cl78      1.0  0.55967  0.27855  0.12711  1.0000
  Cl  Cl79      1.0  0.44033  0.77855  0.37289  1.0000
  Cl  Cl80      1.0  0.05967  0.22145  0.87289  1.0000
  Cl  Cl81      1.0  0.41622  0.12807  0.37290  1.0000
  Cl  Cl82      1.0  0.08378  0.87193  0.87290  1.0000
  Cl  Cl83      1.0  0.91622  0.37193  0.62710  1.0000
  Cl  Cl84      1.0  0.58378  0.62807  0.12710  1.0000
  Cl  Cl85      1.0  0.58378  0.87193  0.62710  1.0000
  Cl  Cl86      1.0  0.91622  0.12807  0.12710  1.0000
  Cl  Cl87      1.0  0.08378  0.62807  0.37290  1.0000
  Cl  Cl88      1.0  0.41622  0.37193  0.87290  1.0000
  Cl  Cl89      1.0  0.25714  0.41899  0.54567  1.0000
  Cl  Cl90      1.0  0.24286  0.58101  0.04567  1.0000
  Cl  Cl91      1.0  0.75714  0.08101  0.45433  1.0000
  Cl  Cl92      1.0  0.74286  0.91899  0.95433  1.0000
  Cl  Cl93      1.0  0.74286  0.58101  0.45433  1.0000
  Cl  Cl94      1.0  0.75714  0.41899  0.95433  1.0000
  Cl  Cl95      1.0  0.24286  0.91899  0.54567  1.0000
  Cl  Cl96      1.0  0.25714  0.08101  0.04567  1.0000
  Cl  Cl97      1.0  0.17234  0.35889  0.23678  1.0000
  Cl  Cl98      1.0  0.32766  0.64111  0.73678  1.0000
  Cl  Cl99      1.0  0.67234  0.14111  0.76322  1.0000
  Cl  Cl100     1.0  0.82766  0.85889  0.26322  1.0000
  Cl  Cl101     1.0  0.82766  0.64111  0.76322  1.0000
  Cl  Cl102     1.0  0.67234  0.35889  0.26322  1.0000
  Cl  Cl103     1.0  0.32766  0.85889  0.23678  1.0000
  Cl  Cl104     1.0  0.17234  0.14111  0.73678  1.0000
  Cl  Cl105     1.0  0.09827  0.07017  0.45585  1.0000
  Cl  Cl106     1.0  0.40173  0.92983  0.95585  1.0000
  Cl  Cl107     1.0  0.59827  0.42983  0.54415  1.0000
  Cl  Cl108     1.0  0.90173  0.57017  0.04415  1.0000
  Cl  Cl109     1.0  0.90173  0.92983  0.54415  1.0000
  Cl  Cl110     1.0  0.59827  0.07017  0.04415  1.0000
  Cl  Cl111     1.0  0.40173  0.57017  0.45585  1.0000
  Cl  Cl112     1.0  0.09827  0.42983  0.95585  1.0000
  O   O1        1.0  0.20280  0.24090  0.28570  1.0000
  O   O2        1.0  0.29720  0.75910  0.78570  1.0000
  O   O3        1.0  0.70280  0.25910  0.71430  1.0000
  O   O4        1.0  0.79720  0.74090  0.21430  1.0000
  O   O5        1.0  0.79720  0.75910  0.71430  1.0000
  O   O6        1.0  0.70280  0.24090  0.21430  1.0000
  O   O7        1.0  0.29720  0.74090  0.28570  1.0000
  O   O8        1.0  0.20280  0.25910  0.78570  1.0000
  O   O9        1.0  0.14930  0.21190  0.35160  1.0000
  O   O10       1.0  0.35070  0.78810  0.85160  1.0000
  O   O11       1.0  0.64930  0.28810  0.64840  1.0000
  O   O12       1.0  0.85070  0.71190  0.14840  1.0000
  O   O13       1.0  0.85070  0.78810  0.64840  1.0000
  O   O14       1.0  0.64930  0.21190  0.14840  1.0000
  O   O15       1.0  0.35070  0.71190  0.35160  1.0000
  O   O16       1.0  0.14930  0.28810  0.85160  1.0000
  O   O17       1.0  0.17120  0.11190  0.38550  1.0000
  O   O18       1.0  0.32880  0.88810  0.88550  1.0000
  O   O19       1.0  0.67120  0.38810  0.61450  1.0000
  O   O20       1.0  0.82880  0.61190  0.11450  1.0000
  O   O21       1.0  0.82880  0.88810  0.61450  1.0000
  O   O22       1.0  0.67120  0.11190  0.11450  1.0000
  O   O23       1.0  0.32880  0.61190  0.38550  1.0000
  O   O24       1.0  0.17120  0.38810  0.88550  1.0000
  O   O25       1.0  0.25700  0.11880  0.41660  1.0000
  O   O26       1.0  0.24300  0.88120  0.91660  1.0000
  O   O27       1.0  0.75700  0.38120  0.58340  1.0000
  O   O28       1.0  0.74300  0.61880  0.08340  1.0000
  O   O29       1.0  0.74300  0.88120  0.58340  1.0000
  O   O30       1.0  0.75700  0.11880  0.08340  1.0000
  O   O31       1.0  0.24300  0.61880  0.41660  1.0000
  O   O32       1.0  0.25700  0.38120  0.91660  1.0000
  O   O33       1.0  0.31150  0.14200  0.34880  1.0000
  O   O34       1.0  0.18850  0.85800  0.84880  1.0000
  O   O35       1.0  0.81150  0.35800  0.65120  1.0000
  O   O36       1.0  0.68850  0.64200  0.15120  1.0000
  O   O37       1.0  0.68850  0.85800  0.65120  1.0000
  O   O38       1.0  0.81150  0.14200  0.15120  1.0000
  O   O39       1.0  0.18850  0.64200  0.34880  1.0000
  O   O40       1.0  0.31150  0.35800  0.84880  1.0000
  O   O41       1.0  0.28850  0.24450  0.31630  1.0000
  O   O42       1.0  0.21150  0.75550  0.81630  1.0000
  O   O43       1.0  0.78850  0.25550  0.68370  1.0000
  O   O44       1.0  0.71150  0.74450  0.18370  1.0000
  O   O45       1.0  0.71150  0.75550  0.68370  1.0000
  O   O46       1.0  0.78850  0.24450  0.18370  1.0000
  O   O47       1.0  0.21150  0.74450  0.31630  1.0000
  O   O48       1.0  0.28850  0.25550  0.81630  1.0000
  O   O49       1.0  0.25180  0.35020  0.31040  1.0000
  O   O50       1.0  0.24820  0.64980  0.81040  1.0000
  O   O51       1.0  0.75180  0.14980  0.68960  1.0000
  O   O52       1.0  0.74820  0.85020  0.18960  1.0000
  O   O53       1.0  0.74820  0.64980  0.68960  1.0000
  O   O54       1.0  0.75180  0.35020  0.18960  1.0000
  O   O55       1.0  0.24820  0.85020  0.31040  1.0000
  O   O56       1.0  0.25180  0.14980  0.81040  1.0000
  O   O57       1.0  0.15990  0.32560  0.34240  1.0000
  O   O58       1.0  0.34010  0.67440  0.84240  1.0000
  O   O59       1.0  0.65990  0.17440  0.65760  1.0000
  O   O60       1.0  0.84010  0.82560  0.15760  1.0000
  O   O61       1.0  0.84010  0.67440  0.65760  1.0000
  O   O62       1.0  0.65990  0.32560  0.15760  1.0000
  O   O63       1.0  0.34010  0.82560  0.34240  1.0000
  O   O64       1.0  0.15990  0.17440  0.84240  1.0000
  O   O65       1.0  0.12100  0.19990  0.43670  1.0000
  O   O66       1.0  0.37900  0.80010  0.93670  1.0000
  O   O67       1.0  0.62100  0.30010  0.56330  1.0000
  O   O68       1.0  0.87900  0.69990  0.06330  1.0000
  O   O69       1.0  0.87900  0.80010  0.56330  1.0000
  O   O70       1.0  0.62100  0.19990  0.06330  1.0000
  O   O71       1.0  0.37900  0.69990  0.43670  1.0000
  O   O72       1.0  0.12100  0.30010  0.93670  1.0000
  O   O73       1.0  0.19370  0.13400  0.47930  1.0000
  O   O74       1.0  0.30630  0.86600  0.97930  1.0000
  O   O75       1.0  0.69370  0.36600  0.52070  1.0000
  O   O76       1.0  0.80630  0.63400  0.02070  1.0000
  O   O77       1.0  0.80630  0.86600  0.52070  1.0000
  O   O78       1.0  0.69370  0.13400  0.02070  1.0000
  O   O79       1.0  0.30630  0.63400  0.47930  1.0000
  O   O80       1.0  0.19370  0.36600  0.97930  1.0000
  O   O81       1.0  0.33800  0.16140  0.44340  1.0000
  O   O82       1.0  0.16200  0.83860  0.94340  1.0000
  O   O83       1.0  0.83800  0.33860  0.55660  1.0000
  O   O84       1.0  0.66200  0.66140  0.05660  1.0000
  O   O85       1.0  0.66200  0.83860  0.55660  1.0000
  O   O86       1.0  0.83800  0.16140  0.05660  1.0000
  O   O87       1.0  0.16200  0.66140  0.44340  1.0000
  O   O88       1.0  0.33800  0.33860  0.94340  1.0000
  O   O89       1.0  0.35710  0.24720  0.37310  1.0000
  O   O90       1.0  0.14290  0.75280  0.87310  1.0000
  O   O91       1.0  0.85710  0.25280  0.62690  1.0000
  O   O92       1.0  0.64290  0.74720  0.12690  1.0000
  O   O93       1.0  0.64290  0.75280  0.62690  1.0000
  O   O94       1.0  0.85710  0.24720  0.12690  1.0000
  O   O95       1.0  0.14290  0.74720  0.37310  1.0000
  O   O96       1.0  0.35710  0.25280  0.87310  1.0000
  O   O97       1.0  0.32650  0.27280  0.45400  1.0000
  O   O98       1.0  0.17350  0.72720  0.95400  1.0000
  O   O99       1.0  0.82650  0.22720  0.54600  1.0000
  O   O100      1.0  0.67350  0.77280  0.04600  1.0000
  O   O101      1.0  0.67350  0.72720  0.54600  1.0000
  O   O102      1.0  0.82650  0.27280  0.04600  1.0000
  O   O103      1.0  0.17350  0.77280  0.45400  1.0000
  O   O104      1.0  0.32650  0.22720  0.95400  1.0000
  O   O105      1.0  0.22850  0.38400  0.38810  1.0000
  O   O106      1.0  0.27150  0.61600  0.88810  1.0000
  O   O107      1.0  0.72850  0.11600  0.61190  1.0000
  O   O108      1.0  0.77150  0.88400  0.11190  1.0000
  O   O109      1.0  0.77150  0.61600  0.61190  1.0000
  O   O110      1.0  0.72850  0.38400  0.11190  1.0000
  O   O111      1.0  0.27150  0.88400  0.38810  1.0000
  O   O112      1.0  0.22850  0.11600  0.88810  1.0000
  O   O113      1.0  0.18100  0.24830  0.48960  1.0000
  O   O114      1.0  0.31900  0.75170  0.98960  1.0000
  O   O115      1.0  0.68100  0.25170  0.51040  1.0000
  O   O116      1.0  0.81900  0.74830  0.01040  1.0000
  O   O117      1.0  0.81900  0.75170  0.51040  1.0000
  O   O118      1.0  0.68100  0.24830  0.01040  1.0000
  O   O119      1.0  0.31900  0.74830  0.48960  1.0000
  O   O120      1.0  0.18100  0.25170  0.98960  1.0000
  O   O121      1.0  0.28830  0.37820  0.44990  1.0000
  O   O122      1.0  0.21170  0.62180  0.94990  1.0000
  O   O123      1.0  0.78830  0.12180  0.55010  1.0000
  O   O124      1.0  0.71170  0.87820  0.05010  1.0000
  O   O125      1.0  0.71170  0.62180  0.55010  1.0000
  O   O126      1.0  0.78830  0.37820  0.05010  1.0000
  O   O127      1.0  0.21170  0.87820  0.44990  1.0000
  O   O128      1.0  0.28830  0.12180  0.94990  1.0000
  O   O129      1.0  0.19260  0.35710  0.47240  1.0000
  O   O130      1.0  0.30740  0.64290  0.97240  1.0000
  O   O131      1.0  0.69260  0.14290  0.52760  1.0000
  O   O132      1.0  0.80740  0.85710  0.02760  1.0000
  O   O133      1.0  0.80740  0.64290  0.52760  1.0000
  O   O134      1.0  0.69260  0.35710  0.02760  1.0000
  O   O135      1.0  0.30740  0.85710  0.47240  1.0000
  O   O136      1.0  0.19260  0.14290  0.97240  1.0000
  O   O137      1.0  0.26400  0.28980  0.51610  1.0000
  O   O138      1.0  0.23600  0.71020  0.01610  1.0000
  O   O139      1.0  0.76400  0.21020  0.48390  1.0000
  O   O140      1.0  0.73600  0.78980  0.98390  1.0000
  O   O141      1.0  0.73600  0.71020  0.48390  1.0000
  O   O142      1.0  0.76400  0.28980  0.98390  1.0000
  O   O143      1.0  0.23600  0.78980  0.51610  1.0000
  O   O144      1.0  0.26400  0.21020  0.01610  1.0000
  O   O145      1.0  0.32420  0.43710  0.35890  1.0000
  O   O146      1.0  0.17580  0.56290  0.85890  1.0000
  O   O147      1.0  0.82420  0.06290  0.64110  1.0000
  O   O148      1.0  0.67580  0.93710  0.14110  1.0000
  O   O149      1.0  0.67580  0.56290  0.64110  1.0000
  O   O150      1.0  0.82420  0.43710  0.14110  1.0000
  O   O151      1.0  0.17580  0.93710  0.35890  1.0000
  O   O152      1.0  0.32420  0.06290  0.85890  1.0000
  H   H1        1.0  0.30190  0.46040  0.35480  1.0000
  H   H2        1.0  0.19810  0.53960  0.85480  1.0000
  H   H3        1.0  0.80190  0.03960  0.64520  1.0000
  H   H4        1.0  0.69810  0.96040  0.14520  1.0000
  H   H5        1.0  0.69810  0.53960  0.64520  1.0000
  H   H6        1.0  0.80190  0.46040  0.14520  1.0000
  H   H7        1.0  0.19810  0.96040  0.35480  1.0000
  H   H8        1.0  0.30190  0.03960  0.85480  1.0000
  O   O153      1.0  0.17060  0.80130  0.03950  1.0000
  O   O154      1.0  0.32940  0.19870  0.53950  1.0000
  O   O155      1.0  0.67060  0.69870  0.96050  1.0000
  O   O156      1.0  0.82940  0.30130  0.46050  1.0000
  O   O157      1.0  0.82940  0.19870  0.96050  1.0000
  O   O158      1.0  0.67060  0.80130  0.46050  1.0000
  O   O159      1.0  0.32940  0.30130  0.03950  1.0000
  O   O160      1.0  0.17060  0.69870  0.53950  1.0000
  O   O161      1.0  0.10270  0.76390  0.02280  1.0000
  O   O162      1.0  0.39730  0.23610  0.52280  1.0000
  O   O163      1.0  0.60270  0.73610  0.97720  1.0000
  O   O164      1.0  0.89730  0.26390  0.47720  1.0000
  O   O165      1.0  0.89730  0.23610  0.97720  1.0000
  O   O166      1.0  0.60270  0.76390  0.47720  1.0000
  O   O167      1.0  0.39730  0.26390  0.02280  1.0000
  O   O168      1.0  0.10270  0.73610  0.52280  1.0000
  O   O169      1.0  0.04790  0.92880  0.18380  1.0000
  O   O170      1.0  0.45210  0.07120  0.68380  1.0000
  O   O171      1.0  0.54790  0.57120  0.81620  1.0000
  O   O172      1.0  0.95210  0.42880  0.31620  1.0000
  O   O173      1.0  0.95210  0.07120  0.81620  1.0000
  O   O174      1.0  0.54790  0.92880  0.31620  1.0000
  O   O175      1.0  0.45210  0.42880  0.18380  1.0000
  O   O176      1.0  0.04790  0.57120  0.68380  1.0000
  O   O177      1.0  0.17490  0.10870  0.28600  1.0000
  O   O178      1.0  0.32510  0.89130  0.78600  1.0000
  O   O179      1.0  0.67490  0.39130  0.71400  1.0000
  O   O180      1.0  0.82510  0.60870  0.21400  1.0000
  O   O181      1.0  0.82510  0.89130  0.71400  1.0000
  O   O182      1.0  0.67490  0.10870  0.21400  1.0000
  O   O183      1.0  0.32510  0.60870  0.28600  1.0000
  O   O184      1.0  0.17490  0.39130  0.78600  1.0000
  O   O185      1.0  0.11860  0.16630  0.26400  1.0000
  O   O186      1.0  0.38140  0.83370  0.76400  1.0000
  O   O187      1.0  0.61860  0.33370  0.73600  1.0000
  O   O188      1.0  0.88140  0.66630  0.23600  1.0000
  O   O189      1.0  0.88140  0.83370  0.73600  1.0000
  O   O190      1.0  0.61860  0.16630  0.23600  1.0000
  O   O191      1.0  0.38140  0.66630  0.26400  1.0000
  O   O192      1.0  0.11860  0.33370  0.76400  1.0000
  C   C1        1.0  0.12840  0.79580  0.04640  1.0000
  C   C2        1.0  0.37160  0.20420  0.54640  1.0000
  C   C3        1.0  0.62840  0.70420  0.95360  1.0000
  C   C4        1.0  0.87160  0.29580  0.45360  1.0000
  C   C5        1.0  0.87160  0.20420  0.95360  1.0000
  C   C6        1.0  0.62840  0.79580  0.45360  1.0000
  C   C7        1.0  0.37160  0.29580  0.04640  1.0000
  C   C8        1.0  0.12840  0.70420  0.54640  1.0000
  C   C9        1.0  0.10810  0.83030  0.08390  1.0000
  C   C10       1.0  0.39190  0.16970  0.58390  1.0000
  C   C11       1.0  0.60810  0.66970  0.91610  1.0000
  C   C12       1.0  0.89190  0.33030  0.41610  1.0000
  C   C13       1.0  0.89190  0.16970  0.91610  1.0000
  C   C14       1.0  0.60810  0.83030  0.41610  1.0000
  C   C15       1.0  0.39190  0.33030  0.08390  1.0000
  C   C16       1.0  0.10810  0.66970  0.58390  1.0000
  C   C17       1.0  0.06480  0.81770  0.10210  1.0000
  C   C18       1.0  0.43520  0.18230  0.60210  1.0000
  C   C19       1.0  0.56480  0.68230  0.89790  1.0000
  C   C20       1.0  0.93520  0.31770  0.39790  1.0000
  C   C21       1.0  0.93520  0.18230  0.89790  1.0000
  C   C22       1.0  0.56480  0.81770  0.39790  1.0000
  C   C23       1.0  0.43520  0.31770  0.10210  1.0000
  C   C24       1.0  0.06480  0.68230  0.60210  1.0000
  H   H9        1.0  0.04820  0.78640  0.09070  1.0000
  H   H10       1.0  0.45180  0.21360  0.59070  1.0000
  H   H11       1.0  0.54820  0.71360  0.90930  1.0000
  H   H12       1.0  0.95180  0.28640  0.40930  1.0000
  H   H13       1.0  0.95180  0.21360  0.90930  1.0000
  H   H14       1.0  0.54820  0.78640  0.40930  1.0000
  H   H15       1.0  0.45180  0.28640  0.09070  1.0000
  H   H16       1.0  0.04820  0.71360  0.59070  1.0000
  C   C25       1.0  0.04650  0.84920  0.13520  1.0000
  C   C26       1.0  0.45350  0.15080  0.63520  1.0000
  C   C27       1.0  0.54650  0.65080  0.86480  1.0000
  C   C28       1.0  0.95350  0.34920  0.36480  1.0000
  C   C29       1.0  0.95350  0.15080  0.86480  1.0000
  C   C30       1.0  0.54650  0.84920  0.36480  1.0000
  C   C31       1.0  0.45350  0.34920  0.13520  1.0000
  C   C32       1.0  0.04650  0.65080  0.63520  1.0000
  H   H17       1.0  0.01810  0.83910  0.14720  1.0000
  H   H18       1.0  0.48190  0.16090  0.64720  1.0000
  H   H19       1.0  0.51810  0.66090  0.85280  1.0000
  H   H20       1.0  0.98190  0.33910  0.35280  1.0000
  H   H21       1.0  0.98190  0.16090  0.85280  1.0000
  H   H22       1.0  0.51810  0.83910  0.35280  1.0000
  H   H23       1.0  0.48190  0.33910  0.14720  1.0000
  H   H24       1.0  0.01810  0.66090  0.64720  1.0000
  C   C33       1.0  0.07010  0.89670  0.15150  1.0000
  C   C34       1.0  0.42990  0.10330  0.65150  1.0000
  C   C35       1.0  0.57010  0.60330  0.84850  1.0000
  C   C36       1.0  0.92990  0.39670  0.34850  1.0000
  C   C37       1.0  0.92990  0.10330  0.84850  1.0000
  C   C38       1.0  0.57010  0.89670  0.34850  1.0000
  C   C39       1.0  0.42990  0.39670  0.15150  1.0000
  C   C40       1.0  0.07010  0.60330  0.65150  1.0000
  C   C41       1.0  0.11280  0.91170  0.13290  1.0000
  C   C42       1.0  0.38720  0.08830  0.63290  1.0000
  C   C43       1.0  0.61280  0.58830  0.86710  1.0000
  C   C44       1.0  0.88720  0.41170  0.36710  1.0000
  C   C45       1.0  0.88720  0.08830  0.86710  1.0000
  C   C46       1.0  0.61280  0.91170  0.36710  1.0000
  C   C47       1.0  0.38720  0.41170  0.13290  1.0000
  C   C48       1.0  0.11280  0.58830  0.63290  1.0000
  H   H25       1.0  0.12830  0.94470  0.14270  1.0000
  H   H26       1.0  0.37170  0.05530  0.64270  1.0000
  H   H27       1.0  0.62830  0.55530  0.85730  1.0000
  H   H28       1.0  0.87170  0.44470  0.35730  1.0000
  H   H29       1.0  0.87170  0.05530  0.85730  1.0000
  H   H30       1.0  0.62830  0.94470  0.35730  1.0000
  H   H31       1.0  0.37170  0.44470  0.14270  1.0000
  H   H32       1.0  0.12830  0.55530  0.64270  1.0000
  C   C49       1.0  0.13150  0.87800  0.10060  1.0000
  C   C50       1.0  0.36850  0.12200  0.60060  1.0000
  C   C51       1.0  0.63150  0.62200  0.89940  1.0000
  C   C52       1.0  0.86850  0.37800  0.39940  1.0000
  C   C53       1.0  0.86850  0.12200  0.89940  1.0000
  C   C54       1.0  0.63150  0.87800  0.39940  1.0000
  C   C55       1.0  0.36850  0.37800  0.10060  1.0000
  C   C56       1.0  0.13150  0.62200  0.60060  1.0000
  H   H33       1.0  0.16060  0.88700  0.08940  1.0000
  H   H34       1.0  0.33940  0.11300  0.58940  1.0000
  H   H35       1.0  0.66060  0.61300  0.91060  1.0000
  H   H36       1.0  0.83940  0.38700  0.41060  1.0000
  H   H37       1.0  0.83940  0.11300  0.91060  1.0000
  H   H38       1.0  0.66060  0.88700  0.41060  1.0000
  H   H39       1.0  0.33940  0.38700  0.08940  1.0000
  H   H40       1.0  0.16060  0.61300  0.58940  1.0000
  C   C57       1.0  0.07210  0.97620  0.20300  1.0000
  C   C58       1.0  0.42790  0.02380  0.70300  1.0000
  C   C59       1.0  0.57210  0.52380  0.79700  1.0000
  C   C60       1.0  0.92790  0.47620  0.29700  1.0000
  C   C61       1.0  0.92790  0.02380  0.79700  1.0000
  C   C62       1.0  0.57210  0.97620  0.29700  1.0000
  C   C63       1.0  0.42790  0.47620  0.20300  1.0000
  C   C64       1.0  0.07210  0.52380  0.70300  1.0000
  C   C65       1.0  0.10740  0.96570  0.23230  1.0000
  C   C66       1.0  0.39260  0.03430  0.73230  1.0000
  C   C67       1.0  0.60740  0.53430  0.76770  1.0000
  C   C68       1.0  0.89260  0.46570  0.26770  1.0000
  C   C69       1.0  0.89260  0.03430  0.76770  1.0000
  C   C70       1.0  0.60740  0.96570  0.26770  1.0000
  C   C71       1.0  0.39260  0.46570  0.23230  1.0000
  C   C72       1.0  0.10740  0.53430  0.73230  1.0000
  H   H41       1.0  0.11690  0.92790  0.23840  1.0000
  H   H42       1.0  0.38310  0.07210  0.73840  1.0000
  H   H43       1.0  0.61690  0.57210  0.76160  1.0000
  H   H44       1.0  0.88310  0.42790  0.26160  1.0000
  H   H45       1.0  0.88310  0.07210  0.76160  1.0000
  H   H46       1.0  0.61690  0.92790  0.26160  1.0000
  H   H47       1.0  0.38310  0.42790  0.23840  1.0000
  H   H48       1.0  0.11690  0.57210  0.73840  1.0000
  C   C73       1.0  0.12860  0.01200  0.25260  1.0000
  C   C74       1.0  0.37140  0.98800  0.75260  1.0000
  C   C75       1.0  0.62860  0.48800  0.74740  1.0000
  C   C76       1.0  0.87140  0.51200  0.24740  1.0000
  C   C77       1.0  0.87140  0.98800  0.74740  1.0000
  C   C78       1.0  0.62860  0.01200  0.24740  1.0000
  C   C79       1.0  0.37140  0.51200  0.25260  1.0000
  C   C80       1.0  0.12860  0.48800  0.75260  1.0000
  H   H49       1.0  0.15290  0.00580  0.27230  1.0000
  H   H50       1.0  0.34710  0.99420  0.77230  1.0000
  H   H51       1.0  0.65290  0.49420  0.72770  1.0000
  H   H52       1.0  0.84710  0.50580  0.22770  1.0000
  H   H53       1.0  0.84710  0.99420  0.72770  1.0000
  H   H54       1.0  0.65290  0.00580  0.22770  1.0000
  H   H55       1.0  0.34710  0.50580  0.27230  1.0000
  H   H56       1.0  0.15290  0.49420  0.77230  1.0000
  C   C81       1.0  0.11370  0.06870  0.24380  1.0000
  C   C82       1.0  0.38630  0.93130  0.74380  1.0000
  C   C83       1.0  0.61370  0.43130  0.75620  1.0000
  C   C84       1.0  0.88630  0.56870  0.25620  1.0000
  C   C85       1.0  0.88630  0.93130  0.75620  1.0000
  C   C86       1.0  0.61370  0.06870  0.25620  1.0000
  C   C87       1.0  0.38630  0.56870  0.24380  1.0000
  C   C88       1.0  0.11370  0.43130  0.74380  1.0000
  C   C89       1.0  0.07810  0.07700  0.21480  1.0000
  C   C90       1.0  0.42190  0.92300  0.71480  1.0000
  C   C91       1.0  0.57810  0.42300  0.78520  1.0000
  C   C92       1.0  0.92190  0.57700  0.28520  1.0000
  C   C93       1.0  0.92190  0.92300  0.78520  1.0000
  C   C94       1.0  0.57810  0.07700  0.28520  1.0000
  C   C95       1.0  0.42190  0.57700  0.21480  1.0000
  C   C96       1.0  0.07810  0.42300  0.71480  1.0000
  H   H57       1.0  0.06780  0.11440  0.20880  1.0000
  H   H58       1.0  0.43220  0.88560  0.70880  1.0000
  H   H59       1.0  0.56780  0.38560  0.79120  1.0000
  H   H60       1.0  0.93220  0.61440  0.29120  1.0000
  H   H61       1.0  0.93220  0.88560  0.79120  1.0000
  H   H62       1.0  0.56780  0.11440  0.29120  1.0000
  H   H63       1.0  0.43220  0.61440  0.20880  1.0000
  H   H64       1.0  0.06780  0.38560  0.70880  1.0000
  C   C97       1.0  0.05710  0.03050  0.19450  1.0000
  C   C98       1.0  0.44290  0.96950  0.69450  1.0000
  C   C99       1.0  0.55710  0.46950  0.80550  1.0000
  C   C100      1.0  0.94290  0.53050  0.30550  1.0000
  C   C101      1.0  0.94290  0.96950  0.80550  1.0000
  C   C102      1.0  0.55710  0.03050  0.30550  1.0000
  C   C103      1.0  0.44290  0.53050  0.19450  1.0000
  C   C104      1.0  0.05710  0.46950  0.69450  1.0000
  H   H65       1.0  0.03270  0.03640  0.17480  1.0000
  H   H66       1.0  0.46730  0.96360  0.67480  1.0000
  H   H67       1.0  0.53270  0.46360  0.82520  1.0000
  H   H68       1.0  0.96730  0.53640  0.32520  1.0000
  H   H69       1.0  0.96730  0.96360  0.82520  1.0000
  H   H70       1.0  0.53270  0.03640  0.32520  1.0000
  H   H71       1.0  0.46730  0.53640  0.17480  1.0000
  H   H72       1.0  0.03270  0.46360  0.67480  1.0000
  C   C105      1.0  0.13670  0.11870  0.26660  1.0000
  C   C106      1.0  0.36330  0.88130  0.76660  1.0000
  C   C107      1.0  0.63670  0.38130  0.73340  1.0000
  C   C108      1.0  0.86330  0.61870  0.23340  1.0000
  C   C109      1.0  0.86330  0.88130  0.73340  1.0000
  C   C110      1.0  0.63670  0.11870  0.23340  1.0000
  C   C111      1.0  0.36330  0.61870  0.26660  1.0000
  C   C112      1.0  0.13670  0.38130  0.76660  1.0000
