data_image0
_chemical_formula_structural       CuN2C4N2C6O4C2O4H4
_chemical_formula_sum              "Cu1 N4 C12 O8 H4"
_cell_length_a       6.43
_cell_length_b       8.052
_cell_length_c       11.914
_cell_angle_alpha    95.26
_cell_angle_beta     94.99
_cell_angle_gamma    98.85

_space_group_name_H-M_alt    "P 1"
_space_group_IT_number       1

loop_
  _space_group_symop_operation_xyz
  'x, y, z'

loop_
  _atom_site_type_symbol
  _atom_site_label
  _atom_site_symmetry_multiplicity
  _atom_site_fract_x
  _atom_site_fract_y
  _atom_site_fract_z
  _atom_site_occupancy
  Cu  Cu1       1.0  0.50000  0.00000  0.00000  1.0000
  N   N1        1.0  0.68930  0.85206  0.93658  1.0000
  N   N2        1.0  0.31070  0.14794  0.06342  1.0000
  C   C1        1.0  0.83760  0.93740  0.88100  1.0000
  C   C2        1.0  0.16240  0.06260  0.11900  1.0000
  C   C3        1.0  0.97510  0.85150  0.82366  1.0000
  C   C4        1.0  0.02490  0.14850  0.17634  1.0000
  N   N3        1.0  0.96590  0.68370  0.82476  1.0000
  N   N4        1.0  0.03410  0.31630  0.17524  1.0000
  C   C5        1.0  0.81990  0.60290  0.88250  1.0000
  C   C6        1.0  0.18010  0.39710  0.11750  1.0000
  C   C7        1.0  0.67810  0.68670  0.93755  1.0000
  C   C8        1.0  0.32190  0.31330  0.06245  1.0000
  C   C9        1.0  0.84050  0.12680  0.89136  1.0000
  C   C10       1.0  0.15950  0.87320  0.10864  1.0000
  O   O1        1.0  0.69740  0.17803  0.94655  1.0000
  O   O2        1.0  0.30260  0.82197  0.05345  1.0000
  O   O3        1.0  0.97680  0.21659  0.84831  1.0000
  O   O4        1.0  0.02320  0.78341  0.15169  1.0000
  C   C11       1.0  0.14540  0.93740  0.75694  1.0000
  C   C12       1.0  0.85460  0.06260  0.24306  1.0000
  O   O5        1.0  0.32740  0.96990  0.80424  1.0000
  O   O6        1.0  0.67260  0.03010  0.19576  1.0000
  O   O7        1.0  0.08430  0.96200  0.65797  1.0000
  O   O8        1.0  0.91570  0.03800  0.34203  1.0000
  H   H1        1.0  0.81200  0.49300  0.88100  1.0000
  H   H2        1.0  0.18800  0.50700  0.11900  1.0000
  H   H3        1.0  0.57900  0.63100  0.98100  1.0000
  H   H4        1.0  0.42100  0.36900  0.01900  1.0000
