data_image0
_chemical_formula_structural       Nd2O2H6O18C6H4C4H4C4
_chemical_formula_sum              "Nd2 O20 H14 C14"
_cell_length_a       8.2017
_cell_length_b       10.0447
_cell_length_c       11.0222
_cell_angle_alpha    87.892
_cell_angle_beta     89.505
_cell_angle_gamma    73.464

_space_group_name_H-M_alt    "P 1"
_space_group_IT_number       1

loop_
  _space_group_symop_operation_xyz
  'x, y, z'

loop_
  _atom_site_type_symbol
  _atom_site_label
  _atom_site_symmetry_multiplicity
  _atom_site_fract_x
  _atom_site_fract_y
  _atom_site_fract_z
  _atom_site_occupancy
  Nd  Nd1       1.0  0.39086  0.33312  0.54647  1.0000
  Nd  Nd2       1.0  0.60914  0.66688  0.45353  1.0000
  O   O1        1.0  0.63340  0.15860  0.42710  1.0000
  O   O2        1.0  0.36660  0.84140  0.57290  1.0000
  H   H1        1.0  0.60900  0.08600  0.44500  1.0000
  H   H2        1.0  0.39100  0.91400  0.55500  1.0000
  H   H3        1.0  0.73000  0.31800  0.63700  1.0000
  H   H4        1.0  0.27000  0.68200  0.36300  1.0000
  H   H5        1.0  0.72100  0.19000  0.67500  1.0000
  H   H6        1.0  0.27900  0.81000  0.32500  1.0000
  O   O3        1.0  0.31580  0.24880  0.35490  1.0000
  O   O4        1.0  0.68420  0.75120  0.64510  1.0000
  O   O5        1.0  0.37570  0.22430  0.16020  1.0000
  O   O6        1.0  0.62430  0.77570  0.83980  1.0000
  O   O7        1.0  0.53340  0.44180  0.38960  1.0000
  O   O8        1.0  0.46660  0.55820  0.61040  1.0000
  O   O9        1.0  0.72760  0.50070  0.27910  1.0000
  O   O10       1.0  0.27240  0.49930  0.72090  1.0000
  O   O11       1.0  0.58830  0.91520  0.40460  1.0000
  O   O12       1.0  0.41170  0.08480  0.59540  1.0000
  O   O13       1.0  0.65720  0.79910  0.23890  1.0000
  O   O14       1.0  0.34280  0.20090  0.76110  1.0000
  O   O15       1.0  0.09050  0.33510  0.56910  1.0000
  O   O16       1.0  0.90950  0.66490  0.43090  1.0000
  O   O17       1.0  0.81790  0.45680  0.54630  1.0000
  O   O18       1.0  0.18210  0.54320  0.45370  1.0000
  O   O19       1.0  0.66410  0.27220  0.66320  1.0000
  O   O20       1.0  0.33590  0.72780  0.33680  1.0000
  C   C1        1.0  0.61110  0.16850  0.29900  1.0000
  C   C2        1.0  0.38890  0.83150  0.70100  1.0000
  C   C3        1.0  0.41930  0.21730  0.26860  1.0000
  C   C4        1.0  0.58070  0.78270  0.73140  1.0000
  C   C5        1.0  0.69880  0.27520  0.25000  1.0000
  C   C6        1.0  0.30120  0.72480  0.75000  1.0000
  H   H7        1.0  0.82070  0.23520  0.25900  1.0000
  H   H8        1.0  0.17930  0.76480  0.74100  1.0000
  H   H9        1.0  0.67480  0.29070  0.16380  1.0000
  H   H10       1.0  0.32520  0.70930  0.83620  1.0000
  C   C7        1.0  0.64960  0.41410  0.30870  1.0000
  C   C8        1.0  0.35040  0.58590  0.69130  1.0000
  C   C9        1.0  0.69400  0.02800  0.24200  1.0000
  C   C10       1.0  0.30600  0.97200  0.75800  1.0000
  H   H11       1.0  0.66640  0.03650  0.15620  1.0000
  H   H12       1.0  0.33360  0.96350  0.84380  1.0000
  H   H13       1.0  0.81650  0.00790  0.24920  1.0000
  H   H14       1.0  0.18350  0.99210  0.75080  1.0000
  C   C11       1.0  0.64200  0.90710  0.29660  1.0000
  C   C12       1.0  0.35800  0.09290  0.70340  1.0000
  C   C13       1.0  0.97490  0.43990  0.53350  1.0000
  C   C14       1.0  0.02510  0.56010  0.46650  1.0000
