data_image0
_chemical_formula_structural       Eu4O36H8N8C8H8C4H8C8H8C4H8C4H8C4H8C8H8C4
_chemical_formula_sum              "Eu4 O36 H64 N8 C44"
_cell_length_a       12.77
_cell_length_b       9.3885
_cell_length_c       14.407
_cell_angle_alpha    90
_cell_angle_beta     95.95
_cell_angle_gamma    90

_space_group_name_H-M_alt    "P 1"
_space_group_IT_number       1

loop_
  _space_group_symop_operation_xyz
  'x, y, z'

loop_
  _atom_site_type_symbol
  _atom_site_label
  _atom_site_symmetry_multiplicity
  _atom_site_fract_x
  _atom_site_fract_y
  _atom_site_fract_z
  _atom_site_occupancy
  Eu  Eu1       1.0  0.39933  0.01043  0.79370  1.0000
  Eu  Eu2       1.0  0.10067  0.51043  0.70630  1.0000
  Eu  Eu3       1.0  0.60067  0.98957  0.20630  1.0000
  Eu  Eu4       1.0  0.89933  0.48957  0.29370  1.0000
  O   O1        1.0  0.44000  0.23070  0.86504  1.0000
  O   O2        1.0  0.06000  0.73070  0.63496  1.0000
  O   O3        1.0  0.56000  0.76930  0.13496  1.0000
  O   O4        1.0  0.94000  0.26930  0.36504  1.0000
  O   O5        1.0  0.54430  0.41610  0.89650  1.0000
  O   O6        1.0  0.95570  0.91610  0.60350  1.0000
  O   O7        1.0  0.45570  0.58390  0.10350  1.0000
  O   O8        1.0  0.04430  0.08390  0.39650  1.0000
  O   O9        1.0  0.34249  0.05500  0.63395  1.0000
  O   O10       1.0  0.15751  0.55500  0.86605  1.0000
  O   O11       1.0  0.65751  0.94500  0.36605  1.0000
  O   O12       1.0  0.84249  0.44500  0.13395  1.0000
  O   O13       1.0  0.30170  0.22990  0.53193  1.0000
  O   O14       1.0  0.19830  0.72990  0.96807  1.0000
  O   O15       1.0  0.69830  0.77010  0.46807  1.0000
  O   O16       1.0  0.80170  0.27010  0.03193  1.0000
  O   O17       1.0  0.56837  0.96730  0.87633  1.0000
  O   O18       1.0  0.93163  0.46730  0.62367  1.0000
  O   O19       1.0  0.43163  0.03270  0.12367  1.0000
  O   O20       1.0  0.06837  0.53270  0.37633  1.0000
  O   O21       1.0  0.69430  0.80860  0.91820  1.0000
  O   O22       1.0  0.80570  0.30860  0.58180  1.0000
  O   O23       1.0  0.30570  0.19140  0.08180  1.0000
  O   O24       1.0  0.19430  0.69140  0.41820  1.0000
  O   O25       1.0  0.30400  0.79540  0.76353  1.0000
  O   O26       1.0  0.19600  0.29540  0.73647  1.0000
  O   O27       1.0  0.69600  0.20460  0.23647  1.0000
  O   O28       1.0  0.80400  0.70460  0.26353  1.0000
  O   O29       1.0  0.27460  0.58720  0.69253  1.0000
  O   O30       1.0  0.22540  0.08720  0.80747  1.0000
  O   O31       1.0  0.72540  0.41280  0.30747  1.0000
  O   O32       1.0  0.77460  0.91280  0.19253  1.0000
  O   O33       1.0  0.36940  0.91150  0.94515  1.0000
  O   O34       1.0  0.13060  0.41150  0.55485  1.0000
  O   O35       1.0  0.63060  0.08850  0.05485  1.0000
  O   O36       1.0  0.86940  0.58850  0.44515  1.0000
  H   H1        1.0  0.39300  0.94950  0.99680  1.0000
  H   H2        1.0  0.10700  0.44950  0.50320  1.0000
  H   H3        1.0  0.60700  0.05050  0.00320  1.0000
  H   H4        1.0  0.89300  0.55050  0.49680  1.0000
  H   H5        1.0  0.31540  0.85940  0.94560  1.0000
  H   H6        1.0  0.18460  0.35940  0.55440  1.0000
  H   H7        1.0  0.68460  0.14060  0.05440  1.0000
  H   H8        1.0  0.81540  0.64060  0.44560  1.0000
  N   N1        1.0  0.52150  0.17620  0.70440  1.0000
  N   N2        1.0  0.97850  0.67620  0.79560  1.0000
  N   N3        1.0  0.47850  0.82380  0.29560  1.0000
  N   N4        1.0  0.02150  0.32380  0.20440  1.0000
  N   N5        1.0  0.50590  0.80910  0.71780  1.0000
  N   N6        1.0  0.99410  0.30910  0.78220  1.0000
  N   N7        1.0  0.49410  0.19090  0.28220  1.0000
  N   N8        1.0  0.00590  0.69090  0.21780  1.0000
  C   C1        1.0  0.51880  0.30790  0.85200  1.0000
  C   C2        1.0  0.98120  0.80790  0.64800  1.0000
  C   C3        1.0  0.48120  0.69210  0.14800  1.0000
  C   C4        1.0  0.01880  0.19210  0.35200  1.0000
  C   C5        1.0  0.58440  0.26350  0.77480  1.0000
  C   C6        1.0  0.91560  0.76350  0.72520  1.0000
  C   C7        1.0  0.41560  0.73650  0.22520  1.0000
  C   C8        1.0  0.08440  0.23650  0.27480  1.0000
  H   H9        1.0  0.60990  0.34760  0.74520  1.0000
  H   H10       1.0  0.89010  0.84760  0.75480  1.0000
  H   H11       1.0  0.39010  0.65240  0.25480  1.0000
  H   H12       1.0  0.10990  0.15240  0.24520  1.0000
  H   H13       1.0  0.64500  0.20930  0.80120  1.0000
  H   H14       1.0  0.85500  0.70930  0.69880  1.0000
  H   H15       1.0  0.35500  0.79070  0.19880  1.0000
  H   H16       1.0  0.14500  0.29070  0.30120  1.0000
  C   C9        1.0  0.44280  0.26760  0.65000  1.0000
  C   C10       1.0  0.05720  0.76760  0.85000  1.0000
  C   C11       1.0  0.55720  0.73240  0.35000  1.0000
  C   C12       1.0  0.94280  0.23240  0.15000  1.0000
  H   H17       1.0  0.47730  0.32260  0.60500  1.0000
  H   H18       1.0  0.02270  0.82260  0.89500  1.0000
  H   H19       1.0  0.52270  0.67740  0.39500  1.0000
  H   H20       1.0  0.97730  0.17740  0.10500  1.0000
  H   H21       1.0  0.41290  0.33380  0.69180  1.0000
  H   H22       1.0  0.08710  0.83380  0.80820  1.0000
  H   H23       1.0  0.58710  0.66620  0.30820  1.0000
  H   H24       1.0  0.91290  0.16620  0.19180  1.0000
  C   C13       1.0  0.35570  0.17960  0.59950  1.0000
  C   C14       1.0  0.14430  0.67960  0.90050  1.0000
  C   C15       1.0  0.64430  0.82040  0.40050  1.0000
  C   C16       1.0  0.85570  0.32040  0.09950  1.0000
  C   C17       1.0  0.59180  0.11430  0.63810  1.0000
  C   C18       1.0  0.90820  0.61430  0.86190  1.0000
  C   C19       1.0  0.40820  0.88570  0.36190  1.0000
  C   C20       1.0  0.09180  0.38570  0.13810  1.0000
  H   H25       1.0  0.64330  0.18570  0.62530  1.0000
  H   H26       1.0  0.85670  0.68570  0.87470  1.0000
  H   H27       1.0  0.35670  0.81430  0.37470  1.0000
  H   H28       1.0  0.14330  0.31430  0.12530  1.0000
  H   H29       1.0  0.54970  0.09320  0.57980  1.0000
  H   H30       1.0  0.95030  0.59320  0.92020  1.0000
  H   H31       1.0  0.45030  0.90680  0.42020  1.0000
  H   H32       1.0  0.04970  0.40680  0.07980  1.0000
  C   C21       1.0  0.64960  0.98020  0.67200  1.0000
  C   C22       1.0  0.85040  0.48020  0.82800  1.0000
  C   C23       1.0  0.35040  0.01980  0.32800  1.0000
  C   C24       1.0  0.14960  0.51980  0.17200  1.0000
  H   H33       1.0  0.66960  0.98890  0.73860  1.0000
  H   H34       1.0  0.83040  0.48890  0.76140  1.0000
  H   H35       1.0  0.33040  0.01110  0.26140  1.0000
  H   H36       1.0  0.16960  0.51110  0.23860  1.0000
  H   H37       1.0  0.71380  0.97330  0.64180  1.0000
  H   H38       1.0  0.78620  0.47330  0.85820  1.0000
  H   H39       1.0  0.28620  0.02670  0.35820  1.0000
  H   H40       1.0  0.21380  0.52670  0.14180  1.0000
  C   C25       1.0  0.58760  0.84340  0.65420  1.0000
  C   C26       1.0  0.91240  0.34340  0.84580  1.0000
  C   C27       1.0  0.41240  0.15660  0.34580  1.0000
  C   C28       1.0  0.08760  0.65660  0.15420  1.0000
  H   H41       1.0  0.55320  0.84700  0.59100  1.0000
  H   H42       1.0  0.94680  0.34700  0.90900  1.0000
  H   H43       1.0  0.44680  0.15300  0.40900  1.0000
  H   H44       1.0  0.05320  0.65300  0.09100  1.0000
  H   H45       1.0  0.63730  0.76500  0.65700  1.0000
  H   H46       1.0  0.86270  0.26500  0.84300  1.0000
  H   H47       1.0  0.36270  0.23500  0.34300  1.0000
  H   H48       1.0  0.13730  0.73500  0.15700  1.0000
  C   C29       1.0  0.55630  0.74100  0.80290  1.0000
  C   C30       1.0  0.94370  0.24100  0.69710  1.0000
  C   C31       1.0  0.44370  0.25900  0.19710  1.0000
  C   C32       1.0  0.05630  0.75900  0.30290  1.0000
  H   H49       1.0  0.60660  0.67100  0.78550  1.0000
  H   H50       1.0  0.89340  0.17100  0.71450  1.0000
  H   H51       1.0  0.39340  0.32900  0.21450  1.0000
  H   H52       1.0  0.10660  0.82900  0.28550  1.0000
  H   H53       1.0  0.50310  0.69120  0.83380  1.0000
  H   H54       1.0  0.99690  0.19120  0.66620  1.0000
  H   H55       1.0  0.49690  0.30880  0.16620  1.0000
  H   H56       1.0  0.00310  0.80880  0.33380  1.0000
  C   C33       1.0  0.61250  0.84580  0.87060  1.0000
  C   C34       1.0  0.88750  0.34580  0.62940  1.0000
  C   C35       1.0  0.38750  0.15420  0.12940  1.0000
  C   C36       1.0  0.11250  0.65420  0.37060  1.0000
  C   C37       1.0  0.43090  0.70710  0.66900  1.0000
  C   C38       1.0  0.06910  0.20710  0.83100  1.0000
  C   C39       1.0  0.56910  0.29290  0.33100  1.0000
  C   C40       1.0  0.93090  0.79290  0.16900  1.0000
  H   H57       1.0  0.46380  0.61390  0.66910  1.0000
  H   H58       1.0  0.03620  0.11390  0.83090  1.0000
  H   H59       1.0  0.53620  0.38610  0.33090  1.0000
  H   H60       1.0  0.96380  0.88610  0.16910  1.0000
  H   H61       1.0  0.41570  0.73690  0.60460  1.0000
  H   H62       1.0  0.08430  0.23690  0.89540  1.0000
  H   H63       1.0  0.58430  0.26310  0.39540  1.0000
  H   H64       1.0  0.91570  0.76310  0.10460  1.0000
  C   C41       1.0  0.32920  0.69510  0.71260  1.0000
  C   C42       1.0  0.17080  0.19510  0.78740  1.0000
  C   C43       1.0  0.67080  0.30490  0.28740  1.0000
  C   C44       1.0  0.82920  0.80490  0.21260  1.0000
