data_image0
_chemical_formula_structural       Zn16N80C32N32C32N16C16N16C16
_chemical_formula_sum              "Zn16 N144 C96"
_cell_length_a       29.3462
_cell_length_b       12.4029
_cell_length_c       23.4734
_cell_angle_alpha    90
_cell_angle_beta     90
_cell_angle_gamma    90

_space_group_name_H-M_alt    "P 1"
_space_group_IT_number       1

loop_
  _space_group_symop_operation_xyz
  'x, y, z'

loop_
  _atom_site_type_symbol
  _atom_site_label
  _atom_site_symmetry_multiplicity
  _atom_site_fract_x
  _atom_site_fract_y
  _atom_site_fract_z
  _atom_site_occupancy
  Zn  Zn1       1.0  0.00000  0.00000  0.97616  1.0000
  Zn  Zn2       1.0  0.25000  0.25000  0.22616  1.0000
  Zn  Zn3       1.0  0.00000  0.50000  0.47616  1.0000
  Zn  Zn4       1.0  0.25000  0.75000  0.72616  1.0000
  Zn  Zn5       1.0  0.50000  0.00000  0.47616  1.0000
  Zn  Zn6       1.0  0.75000  0.25000  0.72616  1.0000
  Zn  Zn7       1.0  0.50000  0.50000  0.97616  1.0000
  Zn  Zn8       1.0  0.75000  0.75000  0.22616  1.0000
  Zn  Zn9       1.0  0.00000  0.50000  0.15872  1.0000
  Zn  Zn10      1.0  0.25000  0.75000  0.40872  1.0000
  Zn  Zn11      1.0  0.00000  0.00000  0.65872  1.0000
  Zn  Zn12      1.0  0.25000  0.25000  0.90872  1.0000
  Zn  Zn13      1.0  0.50000  0.50000  0.65872  1.0000
  Zn  Zn14      1.0  0.75000  0.75000  0.90872  1.0000
  Zn  Zn15      1.0  0.50000  0.00000  0.15872  1.0000
  Zn  Zn16      1.0  0.75000  0.25000  0.40872  1.0000
  N   N1        1.0  0.04121  0.36220  0.15000  1.0000
  N   N2        1.0  0.95879  0.63780  0.15000  1.0000
  N   N3        1.0  0.29121  0.88780  0.40000  1.0000
  N   N4        1.0  0.20879  0.61220  0.40000  1.0000
  N   N5        1.0  0.04121  0.86220  0.65000  1.0000
  N   N6        1.0  0.95879  0.13780  0.65000  1.0000
  N   N7        1.0  0.29121  0.38780  0.90000  1.0000
  N   N8        1.0  0.20879  0.11220  0.90000  1.0000
  N   N9        1.0  0.54121  0.36220  0.65000  1.0000
  N   N10       1.0  0.45879  0.63780  0.65000  1.0000
  N   N11       1.0  0.79121  0.88780  0.90000  1.0000
  N   N12       1.0  0.70879  0.61220  0.90000  1.0000
  N   N13       1.0  0.54121  0.86220  0.15000  1.0000
  N   N14       1.0  0.45879  0.13780  0.15000  1.0000
  N   N15       1.0  0.79121  0.38780  0.40000  1.0000
  N   N16       1.0  0.70879  0.11220  0.40000  1.0000
  N   N17       1.0  0.04143  0.56814  0.22464  1.0000
  N   N18       1.0  0.95857  0.43186  0.22464  1.0000
  N   N19       1.0  0.29143  0.68186  0.47464  1.0000
  N   N20       1.0  0.20857  0.81814  0.47464  1.0000
  N   N21       1.0  0.04143  0.06814  0.72464  1.0000
  N   N22       1.0  0.95857  0.93186  0.72464  1.0000
  N   N23       1.0  0.29143  0.18186  0.97464  1.0000
  N   N24       1.0  0.20857  0.31814  0.97464  1.0000
  N   N25       1.0  0.54143  0.56814  0.72464  1.0000
  N   N26       1.0  0.45857  0.43186  0.72464  1.0000
  N   N27       1.0  0.79143  0.68186  0.97464  1.0000
  N   N28       1.0  0.70857  0.81814  0.97464  1.0000
  N   N29       1.0  0.54143  0.06814  0.22464  1.0000
  N   N30       1.0  0.45857  0.93186  0.22464  1.0000
  N   N31       1.0  0.79143  0.18186  0.47464  1.0000
  N   N32       1.0  0.70857  0.31814  0.47464  1.0000
  N   N33       1.0  0.04249  0.57887  0.09341  1.0000
  N   N34       1.0  0.95751  0.42113  0.09341  1.0000
  N   N35       1.0  0.29249  0.67113  0.34341  1.0000
  N   N36       1.0  0.20751  0.82887  0.34341  1.0000
  N   N37       1.0  0.04249  0.07887  0.59341  1.0000
  N   N38       1.0  0.95751  0.92113  0.59341  1.0000
  N   N39       1.0  0.29249  0.17113  0.84341  1.0000
  N   N40       1.0  0.20751  0.32887  0.84341  1.0000
  N   N41       1.0  0.54249  0.57887  0.59341  1.0000
  N   N42       1.0  0.45751  0.42113  0.59341  1.0000
  N   N43       1.0  0.79249  0.67113  0.84341  1.0000
  N   N44       1.0  0.70751  0.82887  0.84341  1.0000
  N   N45       1.0  0.54249  0.07887  0.09341  1.0000
  N   N46       1.0  0.45751  0.92113  0.09341  1.0000
  N   N47       1.0  0.79249  0.17113  0.34341  1.0000
  N   N48       1.0  0.70751  0.32887  0.34341  1.0000
  N   N49       1.0  0.04005  0.07754  0.03955  1.0000
  N   N50       1.0  0.95995  0.92246  0.03955  1.0000
  N   N51       1.0  0.29005  0.17246  0.28955  1.0000
  N   N52       1.0  0.20995  0.32754  0.28955  1.0000
  N   N53       1.0  0.04005  0.57754  0.53955  1.0000
  N   N54       1.0  0.95995  0.42246  0.53955  1.0000
  N   N55       1.0  0.29005  0.67246  0.78955  1.0000
  N   N56       1.0  0.20995  0.82754  0.78955  1.0000
  N   N57       1.0  0.54005  0.07754  0.53955  1.0000
  N   N58       1.0  0.45995  0.92246  0.53955  1.0000
  N   N59       1.0  0.79005  0.17246  0.78955  1.0000
  N   N60       1.0  0.70995  0.32754  0.78955  1.0000
  N   N61       1.0  0.54005  0.57754  0.03955  1.0000
  N   N62       1.0  0.45995  0.42246  0.03955  1.0000
  N   N63       1.0  0.79005  0.67246  0.28955  1.0000
  N   N64       1.0  0.70995  0.82754  0.28955  1.0000
  N   N65       1.0  0.04195  0.85476  0.97739  1.0000
  N   N66       1.0  0.95805  0.14524  0.97739  1.0000
  N   N67       1.0  0.29195  0.39524  0.22739  1.0000
  N   N68       1.0  0.20805  0.10476  0.22739  1.0000
  N   N69       1.0  0.04195  0.35476  0.47739  1.0000
  N   N70       1.0  0.95805  0.64524  0.47739  1.0000
  N   N71       1.0  0.29195  0.89524  0.72739  1.0000
  N   N72       1.0  0.20805  0.60476  0.72739  1.0000
  N   N73       1.0  0.54195  0.85476  0.47739  1.0000
  N   N74       1.0  0.45805  0.14524  0.47739  1.0000
  N   N75       1.0  0.79195  0.39524  0.72739  1.0000
  N   N76       1.0  0.70805  0.10476  0.72739  1.0000
  N   N77       1.0  0.54195  0.35476  0.97739  1.0000
  N   N78       1.0  0.45805  0.64524  0.97739  1.0000
  N   N79       1.0  0.79195  0.89524  0.22739  1.0000
  N   N80       1.0  0.70805  0.60476  0.22739  1.0000
  C   C1        1.0  0.05536  0.28970  0.12538  1.0000
  C   C2        1.0  0.94464  0.71030  0.12538  1.0000
  C   C3        1.0  0.30536  0.96030  0.37538  1.0000
  C   C4        1.0  0.19464  0.53970  0.37538  1.0000
  C   C5        1.0  0.05536  0.78970  0.62538  1.0000
  C   C6        1.0  0.94464  0.21030  0.62538  1.0000
  C   C7        1.0  0.30536  0.46030  0.87538  1.0000
  C   C8        1.0  0.19464  0.03970  0.87538  1.0000
  C   C9        1.0  0.55536  0.28970  0.62538  1.0000
  C   C10       1.0  0.44464  0.71030  0.62538  1.0000
  C   C11       1.0  0.80536  0.96030  0.87538  1.0000
  C   C12       1.0  0.69464  0.53970  0.87538  1.0000
  C   C13       1.0  0.55536  0.78970  0.12538  1.0000
  C   C14       1.0  0.44464  0.21030  0.12538  1.0000
  C   C15       1.0  0.80536  0.46030  0.37538  1.0000
  C   C16       1.0  0.69464  0.03970  0.37538  1.0000
  C   C17       1.0  0.05289  0.59257  0.26927  1.0000
  C   C18       1.0  0.94711  0.40743  0.26927  1.0000
  C   C19       1.0  0.30289  0.65743  0.51927  1.0000
  C   C20       1.0  0.19711  0.84257  0.51927  1.0000
  C   C21       1.0  0.05289  0.09257  0.76927  1.0000
  C   C22       1.0  0.94711  0.90743  0.76927  1.0000
  C   C23       1.0  0.30289  0.15743  0.01927  1.0000
  C   C24       1.0  0.19711  0.34257  0.01927  1.0000
  C   C25       1.0  0.55289  0.59257  0.76927  1.0000
  C   C26       1.0  0.44711  0.40743  0.76927  1.0000
  C   C27       1.0  0.80289  0.65743  0.01927  1.0000
  C   C28       1.0  0.69711  0.84257  0.01927  1.0000
  C   C29       1.0  0.55289  0.09257  0.26927  1.0000
  C   C30       1.0  0.44711  0.90743  0.26927  1.0000
  C   C31       1.0  0.80289  0.15743  0.51927  1.0000
  C   C32       1.0  0.69711  0.34257  0.51927  1.0000
  N   N81       1.0  0.06979  0.62790  0.31684  1.0000
  N   N82       1.0  0.93021  0.37210  0.31684  1.0000
  N   N83       1.0  0.31979  0.62210  0.56684  1.0000
  N   N84       1.0  0.18021  0.87790  0.56684  1.0000
  N   N85       1.0  0.06979  0.12790  0.81684  1.0000
  N   N86       1.0  0.93021  0.87210  0.81684  1.0000
  N   N87       1.0  0.31979  0.12210  0.06684  1.0000
  N   N88       1.0  0.18021  0.37790  0.06684  1.0000
  N   N89       1.0  0.56979  0.62790  0.81684  1.0000
  N   N90       1.0  0.43021  0.37210  0.81684  1.0000
  N   N91       1.0  0.81979  0.62210  0.06684  1.0000
  N   N92       1.0  0.68021  0.87790  0.06684  1.0000
  N   N93       1.0  0.56979  0.12790  0.31684  1.0000
  N   N94       1.0  0.43021  0.87210  0.31684  1.0000
  N   N95       1.0  0.81979  0.12210  0.56684  1.0000
  N   N96       1.0  0.68021  0.37790  0.56684  1.0000
  N   N97       1.0  0.07647  0.21080  0.10033  1.0000
  N   N98       1.0  0.92353  0.78920  0.10033  1.0000
  N   N99       1.0  0.32647  0.03920  0.35033  1.0000
  N   N100      1.0  0.17353  0.46080  0.35033  1.0000
  N   N101      1.0  0.07647  0.71080  0.60033  1.0000
  N   N102      1.0  0.92353  0.28920  0.60033  1.0000
  N   N103      1.0  0.32647  0.53920  0.85033  1.0000
  N   N104      1.0  0.17353  0.96080  0.85033  1.0000
  N   N105      1.0  0.57647  0.21080  0.60033  1.0000
  N   N106      1.0  0.42353  0.78920  0.60033  1.0000
  N   N107      1.0  0.82647  0.03920  0.85033  1.0000
  N   N108      1.0  0.67353  0.46080  0.85033  1.0000
  N   N109      1.0  0.57647  0.71080  0.10033  1.0000
  N   N110      1.0  0.42353  0.28920  0.10033  1.0000
  N   N111      1.0  0.82647  0.53920  0.35033  1.0000
  N   N112      1.0  0.67353  0.96080  0.35033  1.0000
  C   C33       1.0  0.05627  0.64000  0.06239  1.0000
  C   C34       1.0  0.94373  0.36000  0.06239  1.0000
  C   C35       1.0  0.30627  0.61000  0.31239  1.0000
  C   C36       1.0  0.19373  0.89000  0.31239  1.0000
  C   C37       1.0  0.05627  0.14000  0.56239  1.0000
  C   C38       1.0  0.94373  0.86000  0.56239  1.0000
  C   C39       1.0  0.30627  0.11000  0.81239  1.0000
  C   C40       1.0  0.19373  0.39000  0.81239  1.0000
  C   C41       1.0  0.55627  0.64000  0.56239  1.0000
  C   C42       1.0  0.44373  0.36000  0.56239  1.0000
  C   C43       1.0  0.80627  0.61000  0.81239  1.0000
  C   C44       1.0  0.69373  0.89000  0.81239  1.0000
  C   C45       1.0  0.55627  0.14000  0.06239  1.0000
  C   C46       1.0  0.44373  0.86000  0.06239  1.0000
  C   C47       1.0  0.80627  0.11000  0.31239  1.0000
  C   C48       1.0  0.69373  0.39000  0.31239  1.0000
  C   C49       1.0  0.05591  0.78350  0.00191  1.0000
  C   C50       1.0  0.94409  0.21650  0.00191  1.0000
  C   C51       1.0  0.30591  0.46650  0.25191  1.0000
  C   C52       1.0  0.19409  0.03350  0.25191  1.0000
  C   C53       1.0  0.05591  0.28350  0.50191  1.0000
  C   C54       1.0  0.94409  0.71650  0.50191  1.0000
  C   C55       1.0  0.30591  0.96650  0.75191  1.0000
  C   C56       1.0  0.19409  0.53350  0.75191  1.0000
  C   C57       1.0  0.55591  0.78350  0.50191  1.0000
  C   C58       1.0  0.44409  0.21650  0.50191  1.0000
  C   C59       1.0  0.80591  0.46650  0.75191  1.0000
  C   C60       1.0  0.69409  0.03350  0.75191  1.0000
  C   C61       1.0  0.55591  0.28350  0.00191  1.0000
  C   C62       1.0  0.44409  0.71650  0.00191  1.0000
  C   C63       1.0  0.80591  0.96650  0.25191  1.0000
  C   C64       1.0  0.69409  0.53350  0.25191  1.0000
  N   N113      1.0  0.07728  0.70560  0.02844  1.0000
  N   N114      1.0  0.92272  0.29440  0.02844  1.0000
  N   N115      1.0  0.32728  0.54440  0.27844  1.0000
  N   N116      1.0  0.17272  0.95560  0.27844  1.0000
  N   N117      1.0  0.07728  0.20560  0.52844  1.0000
  N   N118      1.0  0.92272  0.79440  0.52844  1.0000
  N   N119      1.0  0.32728  0.04440  0.77844  1.0000
  N   N120      1.0  0.17272  0.45560  0.77844  1.0000
  N   N121      1.0  0.57728  0.70560  0.52844  1.0000
  N   N122      1.0  0.42272  0.29440  0.52844  1.0000
  N   N123      1.0  0.82728  0.54440  0.77844  1.0000
  N   N124      1.0  0.67272  0.95560  0.77844  1.0000
  N   N125      1.0  0.57728  0.20560  0.02844  1.0000
  N   N126      1.0  0.42272  0.79440  0.02844  1.0000
  N   N127      1.0  0.82728  0.04440  0.27844  1.0000
  N   N128      1.0  0.67272  0.45560  0.27844  1.0000
  C   C65       1.0  0.05416  0.14241  0.06916  1.0000
  C   C66       1.0  0.94584  0.85759  0.06916  1.0000
  C   C67       1.0  0.30416  0.10759  0.31916  1.0000
  C   C68       1.0  0.19584  0.39241  0.31916  1.0000
  C   C69       1.0  0.05416  0.64241  0.56916  1.0000
  C   C70       1.0  0.94584  0.35759  0.56916  1.0000
  C   C71       1.0  0.30416  0.60759  0.81916  1.0000
  C   C72       1.0  0.19584  0.89241  0.81916  1.0000
  C   C73       1.0  0.55416  0.14241  0.56916  1.0000
  C   C74       1.0  0.44584  0.85759  0.56916  1.0000
  C   C75       1.0  0.80416  0.10759  0.81916  1.0000
  C   C76       1.0  0.69584  0.39241  0.81916  1.0000
  C   C77       1.0  0.55416  0.64241  0.06916  1.0000
  C   C78       1.0  0.44584  0.35759  0.06916  1.0000
  C   C79       1.0  0.80416  0.60759  0.31916  1.0000
  C   C80       1.0  0.69584  0.89241  0.31916  1.0000
  N   N129      1.0  0.04269  0.56638  0.40954  1.0000
  N   N130      1.0  0.95731  0.43362  0.40954  1.0000
  N   N131      1.0  0.29269  0.68362  0.65954  1.0000
  N   N132      1.0  0.20731  0.81638  0.65954  1.0000
  N   N133      1.0  0.04269  0.06638  0.90954  1.0000
  N   N134      1.0  0.95731  0.93362  0.90954  1.0000
  N   N135      1.0  0.29269  0.18362  0.15954  1.0000
  N   N136      1.0  0.20731  0.31638  0.15954  1.0000
  N   N137      1.0  0.54269  0.56638  0.90954  1.0000
  N   N138      1.0  0.45731  0.43362  0.90954  1.0000
  N   N139      1.0  0.79269  0.68362  0.15954  1.0000
  N   N140      1.0  0.70731  0.81638  0.15954  1.0000
  N   N141      1.0  0.54269  0.06638  0.40954  1.0000
  N   N142      1.0  0.45731  0.93362  0.40954  1.0000
  N   N143      1.0  0.79269  0.18362  0.65954  1.0000
  N   N144      1.0  0.70731  0.31638  0.65954  1.0000
  C   C81       1.0  0.05422  0.59205  0.36528  1.0000
  C   C82       1.0  0.94578  0.40795  0.36528  1.0000
  C   C83       1.0  0.30422  0.65795  0.61528  1.0000
  C   C84       1.0  0.19578  0.84205  0.61528  1.0000
  C   C85       1.0  0.05422  0.09205  0.86528  1.0000
  C   C86       1.0  0.94578  0.90795  0.86528  1.0000
  C   C87       1.0  0.30422  0.15795  0.11528  1.0000
  C   C88       1.0  0.19578  0.34205  0.11528  1.0000
  C   C89       1.0  0.55422  0.59205  0.86528  1.0000
  C   C90       1.0  0.44578  0.40795  0.86528  1.0000
  C   C91       1.0  0.80422  0.65795  0.11528  1.0000
  C   C92       1.0  0.69578  0.84205  0.11528  1.0000
  C   C93       1.0  0.55422  0.09205  0.36528  1.0000
  C   C94       1.0  0.44578  0.90795  0.36528  1.0000
  C   C95       1.0  0.80422  0.15795  0.61528  1.0000
  C   C96       1.0  0.69578  0.34205  0.61528  1.0000
