data_image0
_chemical_formula_structural       Fe4Cl16O16C24
_chemical_formula_sum              "Fe4 Cl16 O16 C24"
_cell_length_a       16.1004
_cell_length_b       9.3394
_cell_length_c       13.8165
_cell_angle_alpha    90
_cell_angle_beta     104.971
_cell_angle_gamma    90

_space_group_name_H-M_alt    "P 1"
_space_group_IT_number       1

loop_
  _space_group_symop_operation_xyz
  'x, y, z'

loop_
  _atom_site_type_symbol
  _atom_site_label
  _atom_site_symmetry_multiplicity
  _atom_site_fract_x
  _atom_site_fract_y
  _atom_site_fract_z
  _atom_site_occupancy
  Fe  Fe1       1.0  0.50000  0.30193  0.75000  1.0000
  Fe  Fe2       1.0  0.00000  0.80193  0.75000  1.0000
  Fe  Fe3       1.0  0.50000  0.69807  0.25000  1.0000
  Fe  Fe4       1.0  0.00000  0.19807  0.25000  1.0000
  Cl  Cl1       1.0  0.66093  0.31867  0.48713  1.0000
  Cl  Cl2       1.0  0.33907  0.31867  0.01287  1.0000
  Cl  Cl3       1.0  0.16093  0.81867  0.48713  1.0000
  Cl  Cl4       1.0  0.83907  0.81867  0.01287  1.0000
  Cl  Cl5       1.0  0.33907  0.68133  0.51287  1.0000
  Cl  Cl6       1.0  0.66093  0.68133  0.98713  1.0000
  Cl  Cl7       1.0  0.83907  0.18133  0.51287  1.0000
  Cl  Cl8       1.0  0.16093  0.18133  0.98713  1.0000
  Cl  Cl9       1.0  0.40600  0.12617  0.65492  1.0000
  Cl  Cl10      1.0  0.59400  0.12617  0.84508  1.0000
  Cl  Cl11      1.0  0.90600  0.62617  0.65492  1.0000
  Cl  Cl12      1.0  0.09400  0.62617  0.84508  1.0000
  Cl  Cl13      1.0  0.59400  0.87383  0.34508  1.0000
  Cl  Cl14      1.0  0.40600  0.87383  0.15492  1.0000
  Cl  Cl15      1.0  0.09400  0.37383  0.34508  1.0000
  Cl  Cl16      1.0  0.90600  0.37383  0.15492  1.0000
  O   O1        1.0  0.57131  0.31760  0.65137  1.0000
  O   O2        1.0  0.42869  0.31760  0.84863  1.0000
  O   O3        1.0  0.07131  0.81760  0.65137  1.0000
  O   O4        1.0  0.92869  0.81760  0.84863  1.0000
  O   O5        1.0  0.42869  0.68240  0.34863  1.0000
  O   O6        1.0  0.57131  0.68240  0.15137  1.0000
  O   O7        1.0  0.92869  0.18240  0.34863  1.0000
  O   O8        1.0  0.07131  0.18240  0.15137  1.0000
  O   O9        1.0  0.56615  0.53900  0.34042  1.0000
  O   O10       1.0  0.43385  0.53900  0.15958  1.0000
  O   O11       1.0  0.06615  0.03900  0.34042  1.0000
  O   O12       1.0  0.93385  0.03900  0.15958  1.0000
  O   O13       1.0  0.43385  0.46100  0.65958  1.0000
  O   O14       1.0  0.56615  0.46100  0.84042  1.0000
  O   O15       1.0  0.93385  0.96100  0.65958  1.0000
  O   O16       1.0  0.06615  0.96100  0.84042  1.0000
  C   C1        1.0  0.53896  0.40210  0.57674  1.0000
  C   C2        1.0  0.46104  0.40210  0.92326  1.0000
  C   C3        1.0  0.03896  0.90210  0.57674  1.0000
  C   C4        1.0  0.96104  0.90210  0.92326  1.0000
  C   C5        1.0  0.46104  0.59790  0.42326  1.0000
  C   C6        1.0  0.53896  0.59790  0.07674  1.0000
  C   C7        1.0  0.96104  0.09790  0.42326  1.0000
  C   C8        1.0  0.03896  0.09790  0.07674  1.0000
  C   C9        1.0  0.57283  0.41830  0.49410  1.0000
  C   C10       1.0  0.42717  0.41830  0.00590  1.0000
  C   C11       1.0  0.07283  0.91830  0.49410  1.0000
  C   C12       1.0  0.92717  0.91830  0.00590  1.0000
  C   C13       1.0  0.42717  0.58170  0.50590  1.0000
  C   C14       1.0  0.57283  0.58170  0.99410  1.0000
  C   C15       1.0  0.92717  0.08170  0.50590  1.0000
  C   C16       1.0  0.07283  0.08170  0.99410  1.0000
  C   C17       1.0  0.53728  0.51600  0.41750  1.0000
  C   C18       1.0  0.46272  0.51600  0.08250  1.0000
  C   C19       1.0  0.03728  0.01600  0.41750  1.0000
  C   C20       1.0  0.96272  0.01600  0.08250  1.0000
  C   C21       1.0  0.46272  0.48400  0.58250  1.0000
  C   C22       1.0  0.53728  0.48400  0.91750  1.0000
  C   C23       1.0  0.96272  0.98400  0.58250  1.0000
  C   C24       1.0  0.03728  0.98400  0.91750  1.0000
