data_image0
_chemical_formula_structural       CoN10O8H4S4C4H4C2H2C2H2C4H2C2H2
_chemical_formula_sum              "Co1 N10 O8 H16 S4 C14"
_cell_length_a       10.1567
_cell_length_b       11.5085
_cell_length_c       12.2008
_cell_angle_alpha    111.215
_cell_angle_beta     102.207
_cell_angle_gamma    99.766

_space_group_name_H-M_alt    "P 1"
_space_group_IT_number       1

loop_
  _space_group_symop_operation_xyz
  'x, y, z'

loop_
  _atom_site_type_symbol
  _atom_site_label
  _atom_site_symmetry_multiplicity
  _atom_site_fract_x
  _atom_site_fract_y
  _atom_site_fract_z
  _atom_site_occupancy
  Co  Co1       1.0  0.50000  0.50000  0.00000  1.0000
  N   N1        1.0  0.38070  0.52310  0.32700  1.0000
  N   N2        1.0  0.61930  0.47690  0.67300  1.0000
  N   N3        1.0  0.52060  0.57990  0.37010  1.0000
  N   N4        1.0  0.47940  0.42010  0.62990  1.0000
  N   N5        1.0  0.55850  0.59270  0.27880  1.0000
  N   N6        1.0  0.44150  0.40730  0.72120  1.0000
  N   N7        1.0  0.44610  0.54250  0.17340  1.0000
  N   N8        1.0  0.55390  0.45750  0.82660  1.0000
  N   N9        1.0  0.48590  0.68770  0.00140  1.0000
  N   N10       1.0  0.51410  0.31230  0.99860  1.0000
  O   O1        1.0  0.17070  0.66820  0.42810  1.0000
  O   O2        1.0  0.82930  0.33180  0.57190  1.0000
  O   O3        1.0  0.21010  0.59050  0.58930  1.0000
  O   O4        1.0  0.78990  0.40950  0.41070  1.0000
  O   O5        1.0  0.39990  0.73140  0.57310  1.0000
  O   O6        1.0  0.60010  0.26860  0.42690  1.0000
  O   O7        1.0  0.71270  0.58490  0.10040  1.0000
  O   O8        1.0  0.28730  0.41510  0.89960  1.0000
  H   H1        1.0  0.76530  0.56920  0.05410  1.0000
  H   H2        1.0  0.23470  0.43080  0.94590  1.0000
  H   H3        1.0  0.73670  0.56070  0.15790  1.0000
  H   H4        1.0  0.26330  0.43930  0.84210  1.0000
  S   S1        1.0  0.16330  0.42490  0.11383  1.0000
  S   S2        1.0  0.83670  0.57510  0.88617  1.0000
  S   S3        1.0  0.27040  0.63366  0.50966  1.0000
  S   S4        1.0  0.72960  0.36634  0.49034  1.0000
  C   C1        1.0  0.33270  0.49930  0.20360  1.0000
  C   C2        1.0  0.66730  0.50070  0.79640  1.0000
  C   C3        1.0  0.30470  0.49240  0.40450  1.0000
  C   C4        1.0  0.69530  0.50760  0.59550  1.0000
  H   H5        1.0  0.35820  0.45460  0.45140  1.0000
  H   H6        1.0  0.64180  0.54540  0.54860  1.0000
  H   H7        1.0  0.21660  0.42850  0.35320  1.0000
  H   H8        1.0  0.78340  0.57150  0.64680  1.0000
  C   C5        1.0  0.52890  0.79510  0.10630  1.0000
  C   C6        1.0  0.47110  0.20490  0.89370  1.0000
  H   H9        1.0  0.55550  0.78700  0.18030  1.0000
  H   H10       1.0  0.44450  0.21300  0.81970  1.0000
  C   C7        1.0  0.53550  0.91800  0.10980  1.0000
  C   C8        1.0  0.46450  0.08200  0.89020  1.0000
  H   H11       1.0  0.56590  0.98950  0.18510  1.0000
  H   H12       1.0  0.43410  0.01050  0.81490  1.0000
  C   C9        1.0  0.49640  0.93480  0.99970  1.0000
  C   C10       1.0  0.50360  0.06520  0.00030  1.0000
  C   C11       1.0  0.44770  0.82270  0.89190  1.0000
  C   C12       1.0  0.55230  0.17730  0.10810  1.0000
  H   H13       1.0  0.41730  0.82780  0.81670  1.0000
  H   H14       1.0  0.58270  0.17220  0.18330  1.0000
  C   C13       1.0  0.44390  0.70320  0.89500  1.0000
  C   C14       1.0  0.55610  0.29680  0.10500  1.0000
  H   H15       1.0  0.41120  0.62990  0.82090  1.0000
  H   H16       1.0  0.58880  0.37010  0.17910  1.0000
