data_image0
_chemical_formula_structural       Zn2O17H2OH2OH2OH2OH2OH2C2HC2HC2HC2H2C2H2C4HC2HC2HCH2C2H2C
_chemical_formula_sum              "Zn2 O22 H26 C22"
_cell_length_a       7.2044
_cell_length_b       11.2959
_cell_length_c       13.6932
_cell_angle_alpha    70.872
_cell_angle_beta     76.436
_cell_angle_gamma    74.589

_space_group_name_H-M_alt    "P 1"
_space_group_IT_number       1

loop_
  _space_group_symop_operation_xyz
  'x, y, z'

loop_
  _atom_site_type_symbol
  _atom_site_label
  _atom_site_symmetry_multiplicity
  _atom_site_fract_x
  _atom_site_fract_y
  _atom_site_fract_z
  _atom_site_occupancy
  Zn  Zn1       1.0  0.50020  0.49999  0.50000  1.0000
  Zn  Zn2       1.0  0.09107  0.98225  0.75462  1.0000
  O   O1        1.0  0.68950  0.43460  0.38485  1.0000
  O   O2        1.0  0.81940  0.27990  0.51287  1.0000
  O   O3        1.0  0.15080  0.92954  0.32384  1.0000
  O   O4        1.0  0.26180  0.64250  0.52340  1.0000
  O   O5        1.0  0.39980  0.70830  0.36220  1.0000
  O   O6        1.0  0.06720  0.32870  0.06085  1.0000
  O   O7        1.0  0.17630  0.31570  0.79818  1.0000
  O   O8        1.0  0.05860  0.47650  0.87020  1.0000
  O   O9        1.0  0.90410  0.05406  0.86500  1.0000
  O   O10       1.0  0.77510  0.21310  0.73999  1.0000
  O   O11       1.0  0.44940  0.55586  0.93352  1.0000
  O   O12       1.0  0.31620  0.83650  0.73159  1.0000
  O   O13       1.0  0.19070  0.77680  0.89830  1.0000
  O   O14       1.0  0.58280  0.15890  0.19514  1.0000
  O   O15       1.0  0.43090  0.15820  0.45986  1.0000
  O   O16       1.0  0.54070  0.00340  0.38130  1.0000
  O   O17       1.0  0.47770  0.39520  0.65198  1.0000
  H   H1        1.0  0.56760  0.33260  0.67570  1.0000
  H   H2        1.0  0.37170  0.38750  0.69490  1.0000
  O   O18       1.0  0.70690  0.59190  0.51340  1.0000
  H   H3        1.0  0.78990  0.54590  0.55270  1.0000
  H   H4        1.0  0.67190  0.66670  0.52180  1.0000
  O   O19       1.0  0.30500  0.40500  0.46750  1.0000
  H   H5        1.0  0.20630  0.41050  0.51410  1.0000
  H   H6        1.0  0.33980  0.33150  0.45840  1.0000
  O   O20       1.0  0.11470  0.09330  0.60334  1.0000
  H   H7        1.0  0.22570  0.09590  0.56530  1.0000
  H   H8        1.0  0.02590  0.13970  0.56830  1.0000
  O   O21       1.0  0.88400  0.89170  0.74400  1.0000
  H   H9        1.0  0.93170  0.83000  0.71740  1.0000
  H   H10       1.0  0.78430  0.93790  0.71600  1.0000
  O   O22       1.0  0.29740  0.06400  0.79220  1.0000
  H   H11       1.0  0.26800  0.13510  0.80510  1.0000
  H   H12       1.0  0.40650  0.05460  0.75340  1.0000
  C   C1        1.0  0.91800  0.25740  0.34020  1.0000
  C   C2        1.0  0.98240  0.12440  0.37480  1.0000
  H   H13       1.0  0.95910  0.07990  0.44540  1.0000
  C   C3        1.0  0.08150  0.06140  0.30090  1.0000
  C   C4        1.0  0.11860  0.12520  0.19490  1.0000
  H   H14       1.0  0.18900  0.08090  0.14680  1.0000
  C   C5        1.0  0.04860  0.25560  0.16240  1.0000
  C   C6        1.0  0.95130  0.32240  0.23560  1.0000
  H   H15       1.0  0.90900  0.41080  0.21360  1.0000
  C   C7        1.0  0.80310  0.32790  0.41840  1.0000
  C   C8        1.0  0.13740  0.85540  0.42990  1.0000
  H   H16       1.0  0.00490  0.84300  0.45750  1.0000
  H   H17       1.0  0.17170  0.89920  0.47130  1.0000
  C   C9        1.0  0.27580  0.72760  0.43600  1.0000
  C   C10       1.0  0.13950  0.26470  0.98190  1.0000
  H   H18       1.0  0.06510  0.20020  0.99250  1.0000
  H   H19       1.0  0.27500  0.22260  0.98480  1.0000
  C   C11       1.0  0.12100  0.36270  0.87630  1.0000
  C   C12       1.0  0.79460  0.16330  0.83300  1.0000
  C   C13       1.0  0.69290  0.23210  0.91400  1.0000
  C   C14       1.0  0.61660  0.36310  0.88110  1.0000
  H   H20       1.0  0.62610  0.40680  0.81010  1.0000
  C   C15       1.0  0.52660  0.42700  0.95580  1.0000
  C   C16       1.0  0.51080  0.36190  0.06280  1.0000
  H   H21       1.0  0.44860  0.40550  0.11240  1.0000
  C   C17       1.0  0.58810  0.23310  0.09360  1.0000
  C   C18       1.0  0.68090  0.16680  0.01960  1.0000
  H   H22       1.0  0.73420  0.07970  0.04100  1.0000
  C   C19       1.0  0.44210  0.62580  0.82620  1.0000
  H   H23       1.0  0.39490  0.57890  0.79240  1.0000
  H   H24       1.0  0.57160  0.63770  0.78980  1.0000
  C   C20       1.0  0.30550  0.75520  0.82180  1.0000
  C   C21       1.0  0.48960  0.21830  0.27550  1.0000
  H   H25       1.0  0.35690  0.26100  0.26510  1.0000
  H   H26       1.0  0.55910  0.28180  0.27400  1.0000
  C   C22       1.0  0.48870  0.11640  0.37970  1.0000
