data_image0
_chemical_formula_structural       U8O80H8C16H16C8H16C8H16C24H16C8H16C8H16C8
_chemical_formula_sum              "U8 O80 H104 C80"
_cell_length_a       24.3333
_cell_length_b       9.3679
_cell_length_c       18.4715
_cell_angle_alpha    90
_cell_angle_beta     127.069
_cell_angle_gamma    90

_space_group_name_H-M_alt    "P 1"
_space_group_IT_number       1

loop_
  _space_group_symop_operation_xyz
  'x, y, z'

loop_
  _atom_site_type_symbol
  _atom_site_label
  _atom_site_symmetry_multiplicity
  _atom_site_fract_x
  _atom_site_fract_y
  _atom_site_fract_z
  _atom_site_occupancy
  U   U1        1.0  0.32326  0.65590  0.36641  1.0000
  U   U2        1.0  0.67674  0.65590  0.13359  1.0000
  U   U3        1.0  0.82326  0.15590  0.36641  1.0000
  U   U4        1.0  0.17674  0.15590  0.13359  1.0000
  U   U5        1.0  0.67674  0.34410  0.63359  1.0000
  U   U6        1.0  0.32326  0.34410  0.86641  1.0000
  U   U7        1.0  0.17674  0.84410  0.63359  1.0000
  U   U8        1.0  0.82326  0.84410  0.86641  1.0000
  O   O1        1.0  0.30862  0.82357  0.39682  1.0000
  O   O2        1.0  0.69138  0.82357  0.10318  1.0000
  O   O3        1.0  0.80862  0.32357  0.39682  1.0000
  O   O4        1.0  0.19138  0.32357  0.10318  1.0000
  O   O5        1.0  0.69138  0.17643  0.60318  1.0000
  O   O6        1.0  0.30862  0.17643  0.89682  1.0000
  O   O7        1.0  0.19138  0.67643  0.60318  1.0000
  O   O8        1.0  0.80862  0.67643  0.89682  1.0000
  O   O9        1.0  0.33908  0.48868  0.33924  1.0000
  O   O10       1.0  0.66092  0.48868  0.16076  1.0000
  O   O11       1.0  0.83908  0.98868  0.33924  1.0000
  O   O12       1.0  0.16092  0.98868  0.16076  1.0000
  O   O13       1.0  0.66092  0.51132  0.66076  1.0000
  O   O14       1.0  0.33908  0.51132  0.83924  1.0000
  O   O15       1.0  0.16092  0.01132  0.66076  1.0000
  O   O16       1.0  0.83908  0.01132  0.83924  1.0000
  O   O17       1.0  0.40543  0.77090  0.34909  1.0000
  O   O18       1.0  0.59457  0.77090  0.15091  1.0000
  O   O19       1.0  0.90543  0.27090  0.34909  1.0000
  O   O20       1.0  0.09457  0.27090  0.15091  1.0000
  O   O21       1.0  0.59457  0.22910  0.65091  1.0000
  O   O22       1.0  0.40543  0.22910  0.84909  1.0000
  O   O23       1.0  0.09457  0.72910  0.65091  1.0000
  O   O24       1.0  0.90543  0.72910  0.84909  1.0000
  O   O25       1.0  0.44932  0.68920  0.48300  1.0000
  O   O26       1.0  0.55068  0.68920  0.01700  1.0000
  O   O27       1.0  0.94932  0.18920  0.48300  1.0000
  O   O28       1.0  0.05068  0.18920  0.01700  1.0000
  O   O29       1.0  0.55068  0.31080  0.51700  1.0000
  O   O30       1.0  0.44932  0.31080  0.98300  1.0000
  O   O31       1.0  0.05068  0.81080  0.51700  1.0000
  O   O32       1.0  0.94932  0.81080  0.98300  1.0000
  O   O33       1.0  0.76979  0.77315  0.71141  1.0000
  O   O34       1.0  0.23021  0.77315  0.78859  1.0000
  O   O35       1.0  0.26979  0.27315  0.71141  1.0000
  O   O36       1.0  0.73021  0.27315  0.78859  1.0000
  O   O37       1.0  0.23021  0.22685  0.28859  1.0000
  O   O38       1.0  0.76979  0.22685  0.21141  1.0000
  O   O39       1.0  0.73021  0.72685  0.28859  1.0000
  O   O40       1.0  0.26979  0.72685  0.21141  1.0000
  O   O41       1.0  0.70122  0.86614  0.73787  1.0000
  O   O42       1.0  0.29878  0.86614  0.76213  1.0000
  O   O43       1.0  0.20122  0.36614  0.73787  1.0000
  O   O44       1.0  0.79878  0.36614  0.76213  1.0000
  O   O45       1.0  0.29878  0.13386  0.26213  1.0000
  O   O46       1.0  0.70122  0.13386  0.23787  1.0000
  O   O47       1.0  0.79878  0.63386  0.26213  1.0000
  O   O48       1.0  0.20122  0.63386  0.23787  1.0000
  O   O49       1.0  0.36972  0.56700  0.51948  1.0000
  O   O50       1.0  0.63028  0.56700  0.98052  1.0000
  O   O51       1.0  0.86972  0.06700  0.51948  1.0000
  O   O52       1.0  0.13028  0.06700  0.98052  1.0000
  O   O53       1.0  0.63028  0.43300  0.48052  1.0000
  O   O54       1.0  0.36972  0.43300  0.01948  1.0000
  O   O55       1.0  0.13028  0.93300  0.48052  1.0000
  O   O56       1.0  0.86972  0.93300  0.01948  1.0000
  O   O57       1.0  0.25985  0.54220  0.41721  1.0000
  O   O58       1.0  0.74015  0.54220  0.08279  1.0000
  O   O59       1.0  0.75985  0.04220  0.41721  1.0000
  O   O60       1.0  0.24015  0.04220  0.08279  1.0000
  O   O61       1.0  0.74015  0.45780  0.58279  1.0000
  O   O62       1.0  0.25985  0.45780  0.91721  1.0000
  O   O63       1.0  0.24015  0.95780  0.58279  1.0000
  O   O64       1.0  0.75985  0.95780  0.91721  1.0000
  O   O65       1.0  0.46000  0.79430  0.80058  1.0000
  O   O66       1.0  0.54000  0.79430  0.69942  1.0000
  O   O67       1.0  0.96000  0.29430  0.80058  1.0000
  O   O68       1.0  0.04000  0.29430  0.69942  1.0000
  O   O69       1.0  0.54000  0.20570  0.19942  1.0000
  O   O70       1.0  0.46000  0.20570  0.30058  1.0000
  O   O71       1.0  0.04000  0.70570  0.19942  1.0000
  O   O72       1.0  0.96000  0.70570  0.30058  1.0000
  O   O73       1.0  0.47497  0.56620  0.83902  1.0000
  O   O74       1.0  0.52503  0.56620  0.66098  1.0000
  O   O75       1.0  0.97497  0.06620  0.83902  1.0000
  O   O76       1.0  0.02503  0.06620  0.66098  1.0000
  O   O77       1.0  0.52503  0.43380  0.16098  1.0000
  O   O78       1.0  0.47497  0.43380  0.33902  1.0000
  O   O79       1.0  0.02503  0.93380  0.16098  1.0000
  O   O80       1.0  0.97497  0.93380  0.33902  1.0000
  H   H1        1.0  0.50790  0.58300  0.89030  1.0000
  H   H2        1.0  0.49210  0.58300  0.60970  1.0000
  H   H3        1.0  0.00790  0.08300  0.89030  1.0000
  H   H4        1.0  0.99210  0.08300  0.60970  1.0000
  H   H5        1.0  0.49210  0.41700  0.10970  1.0000
  H   H6        1.0  0.50790  0.41700  0.39030  1.0000
  H   H7        1.0  0.99210  0.91700  0.10970  1.0000
  H   H8        1.0  0.00790  0.91700  0.39030  1.0000
  C   C1        1.0  0.45815  0.74620  0.42914  1.0000
  C   C2        1.0  0.54185  0.74620  0.07086  1.0000
  C   C3        1.0  0.95815  0.24620  0.42914  1.0000
  C   C4        1.0  0.04185  0.24620  0.07086  1.0000
  C   C5        1.0  0.54185  0.25380  0.57086  1.0000
  C   C6        1.0  0.45815  0.25380  0.92914  1.0000
  C   C7        1.0  0.04185  0.75380  0.57086  1.0000
  C   C8        1.0  0.95815  0.75380  0.92914  1.0000
  C   C9        1.0  0.52830  0.77870  0.45604  1.0000
  C   C10       1.0  0.47170  0.77870  0.04396  1.0000
  C   C11       1.0  0.02830  0.27870  0.45604  1.0000
  C   C12       1.0  0.97170  0.27870  0.04396  1.0000
  C   C13       1.0  0.47170  0.22130  0.54396  1.0000
  C   C14       1.0  0.52830  0.22130  0.95604  1.0000
  C   C15       1.0  0.97170  0.72130  0.54396  1.0000
  C   C16       1.0  0.02830  0.72130  0.95604  1.0000
  H   H9        1.0  0.52510  0.86150  0.42210  1.0000
  H   H10       1.0  0.47490  0.86150  0.07790  1.0000
  H   H11       1.0  0.02510  0.36150  0.42210  1.0000
  H   H12       1.0  0.97490  0.36150  0.07790  1.0000
  H   H13       1.0  0.47490  0.13850  0.57790  1.0000
  H   H14       1.0  0.52510  0.13850  0.92210  1.0000
  H   H15       1.0  0.97490  0.63850  0.57790  1.0000
  H   H16       1.0  0.02510  0.63850  0.92210  1.0000
  H   H17       1.0  0.54340  0.69890  0.43860  1.0000
  H   H18       1.0  0.45660  0.69890  0.06140  1.0000
  H   H19       1.0  0.04340  0.19890  0.43860  1.0000
  H   H20       1.0  0.95660  0.19890  0.06140  1.0000
  H   H21       1.0  0.45660  0.30110  0.56140  1.0000
  H   H22       1.0  0.54340  0.30110  0.93860  1.0000
  H   H23       1.0  0.95660  0.80110  0.56140  1.0000
  H   H24       1.0  0.04340  0.80110  0.93860  1.0000
  C   C17       1.0  0.58227  0.80750  0.55569  1.0000
  C   C18       1.0  0.41773  0.80750  0.94431  1.0000
  C   C19       1.0  0.08227  0.30750  0.55569  1.0000
  C   C20       1.0  0.91773  0.30750  0.94431  1.0000
  C   C21       1.0  0.41773  0.19250  0.44431  1.0000
  C   C22       1.0  0.58227  0.19250  0.05569  1.0000
  C   C23       1.0  0.91773  0.69250  0.44431  1.0000
  C   C24       1.0  0.08227  0.69250  0.05569  1.0000
  H   H25       1.0  0.57160  0.89660  0.57140  1.0000
  H   H26       1.0  0.42840  0.89660  0.92860  1.0000
  H   H27       1.0  0.07160  0.39660  0.57140  1.0000
  H   H28       1.0  0.92840  0.39660  0.92860  1.0000
  H   H29       1.0  0.42840  0.10340  0.42860  1.0000
  H   H30       1.0  0.57160  0.10340  0.07140  1.0000
  H   H31       1.0  0.92840  0.60340  0.42860  1.0000
  H   H32       1.0  0.07160  0.60340  0.07140  1.0000
  H   H33       1.0  0.58080  0.73200  0.59050  1.0000
  H   H34       1.0  0.41920  0.73200  0.90950  1.0000
  H   H35       1.0  0.08080  0.23200  0.59050  1.0000
  H   H36       1.0  0.91920  0.23200  0.90950  1.0000
  H   H37       1.0  0.41920  0.26800  0.40950  1.0000
  H   H38       1.0  0.58080  0.26800  0.09050  1.0000
  H   H39       1.0  0.91920  0.76800  0.40950  1.0000
  H   H40       1.0  0.08080  0.76800  0.09050  1.0000
  C   C25       1.0  0.65394  0.81620  0.58167  1.0000
  C   C26       1.0  0.34606  0.81620  0.91833  1.0000
  C   C27       1.0  0.15394  0.31620  0.58167  1.0000
  C   C28       1.0  0.84606  0.31620  0.91833  1.0000
  C   C29       1.0  0.34606  0.18380  0.41833  1.0000
  C   C30       1.0  0.65394  0.18380  0.08167  1.0000
  C   C31       1.0  0.84606  0.68380  0.41833  1.0000
  C   C32       1.0  0.15394  0.68380  0.08167  1.0000
  H   H41       1.0  0.66100  0.73510  0.55540  1.0000
  H   H42       1.0  0.33900  0.73510  0.94460  1.0000
  H   H43       1.0  0.16100  0.23510  0.55540  1.0000
  H   H44       1.0  0.83900  0.23510  0.94460  1.0000
  H   H45       1.0  0.33900  0.26490  0.44460  1.0000
  H   H46       1.0  0.66100  0.26490  0.05540  1.0000
  H   H47       1.0  0.83900  0.76490  0.44460  1.0000
  H   H48       1.0  0.16100  0.76490  0.05540  1.0000
  H   H49       1.0  0.65730  0.90190  0.55510  1.0000
  H   H50       1.0  0.34270  0.90190  0.94490  1.0000
  H   H51       1.0  0.15730  0.40190  0.55510  1.0000
  H   H52       1.0  0.84270  0.40190  0.94490  1.0000
  H   H53       1.0  0.34270  0.09810  0.44490  1.0000
  H   H54       1.0  0.65730  0.09810  0.05510  1.0000
  H   H55       1.0  0.84270  0.59810  0.44490  1.0000
  H   H56       1.0  0.15730  0.59810  0.05510  1.0000
  C   C33       1.0  0.71072  0.81810  0.68190  1.0000
  C   C34       1.0  0.28928  0.81810  0.81810  1.0000
  C   C35       1.0  0.21072  0.31810  0.68190  1.0000
  C   C36       1.0  0.78928  0.31810  0.81810  1.0000
  C   C37       1.0  0.28928  0.18190  0.31810  1.0000
  C   C38       1.0  0.71072  0.18190  0.18190  1.0000
  C   C39       1.0  0.78928  0.68190  0.31810  1.0000
  C   C40       1.0  0.21072  0.68190  0.18190  1.0000
  C   C41       1.0  0.31254  0.52550  0.49822  1.0000
  C   C42       1.0  0.68746  0.52550  0.00178  1.0000
  C   C43       1.0  0.81254  0.02550  0.49822  1.0000
  C   C44       1.0  0.18746  0.02550  0.00178  1.0000
  C   C45       1.0  0.68746  0.47450  0.50178  1.0000
  C   C46       1.0  0.31254  0.47450  0.99822  1.0000
  C   C47       1.0  0.18746  0.97450  0.50178  1.0000
  C   C48       1.0  0.81254  0.97450  0.99822  1.0000
  C   C49       1.0  0.30742  0.45440  0.56699  1.0000
  C   C50       1.0  0.69258  0.45440  0.93301  1.0000
  C   C51       1.0  0.80742  0.95440  0.56699  1.0000
  C   C52       1.0  0.19258  0.95440  0.93301  1.0000
  C   C53       1.0  0.69258  0.54560  0.43301  1.0000
  C   C54       1.0  0.30742  0.54560  0.06699  1.0000
  C   C55       1.0  0.19258  0.04560  0.43301  1.0000
  C   C56       1.0  0.80742  0.04560  0.06699  1.0000
  H   H57       1.0  0.30030  0.35290  0.55410  1.0000
  H   H58       1.0  0.69970  0.35290  0.94590  1.0000
  H   H59       1.0  0.80030  0.85290  0.55410  1.0000
  H   H60       1.0  0.19970  0.85290  0.94590  1.0000
  H   H61       1.0  0.69970  0.64710  0.44590  1.0000
  H   H62       1.0  0.30030  0.64710  0.05410  1.0000
  H   H63       1.0  0.19970  0.14710  0.44590  1.0000
  H   H64       1.0  0.80030  0.14710  0.05410  1.0000
  H   H65       1.0  0.26730  0.49160  0.56020  1.0000
  H   H66       1.0  0.73270  0.49160  0.93980  1.0000
  H   H67       1.0  0.76730  0.99160  0.56020  1.0000
  H   H68       1.0  0.23270  0.99160  0.93980  1.0000
  H   H69       1.0  0.73270  0.50840  0.43980  1.0000
  H   H70       1.0  0.26730  0.50840  0.06020  1.0000
  H   H71       1.0  0.23270  0.00840  0.43980  1.0000
  H   H72       1.0  0.76730  0.00840  0.06020  1.0000
  C   C57       1.0  0.37037  0.47540  0.66490  1.0000
  C   C58       1.0  0.62963  0.47540  0.83510  1.0000
  C   C59       1.0  0.87037  0.97540  0.66490  1.0000
  C   C60       1.0  0.12963  0.97540  0.83510  1.0000
  C   C61       1.0  0.62963  0.52460  0.33510  1.0000
  C   C62       1.0  0.37037  0.52460  0.16490  1.0000
  C   C63       1.0  0.12963  0.02460  0.33510  1.0000
  C   C64       1.0  0.87037  0.02460  0.16490  1.0000
  H   H73       1.0  0.36750  0.41230  0.70410  1.0000
  H   H74       1.0  0.63250  0.41230  0.79590  1.0000
  H   H75       1.0  0.86750  0.91230  0.70410  1.0000
  H   H76       1.0  0.13250  0.91230  0.79590  1.0000
  H   H77       1.0  0.63250  0.58770  0.29590  1.0000
  H   H78       1.0  0.36750  0.58770  0.20410  1.0000
  H   H79       1.0  0.13250  0.08770  0.29590  1.0000
  H   H80       1.0  0.86750  0.08770  0.20410  1.0000
  H   H81       1.0  0.41160  0.45100  0.67070  1.0000
  H   H82       1.0  0.58840  0.45100  0.82930  1.0000
  H   H83       1.0  0.91160  0.95100  0.67070  1.0000
  H   H84       1.0  0.08840  0.95100  0.82930  1.0000
  H   H85       1.0  0.58840  0.54900  0.32930  1.0000
  H   H86       1.0  0.41160  0.54900  0.17070  1.0000
  H   H87       1.0  0.08840  0.04900  0.32930  1.0000
  H   H88       1.0  0.91160  0.04900  0.17070  1.0000
  C   C65       1.0  0.37494  0.62880  0.69410  1.0000
  C   C66       1.0  0.62506  0.62880  0.80590  1.0000
  C   C67       1.0  0.87494  0.12880  0.69410  1.0000
  C   C68       1.0  0.12506  0.12880  0.80590  1.0000
  C   C69       1.0  0.62506  0.37120  0.30590  1.0000
  C   C70       1.0  0.37494  0.37120  0.19410  1.0000
  C   C71       1.0  0.12506  0.87120  0.30590  1.0000
  C   C72       1.0  0.87494  0.87120  0.19410  1.0000
  H   H89       1.0  0.36770  0.69070  0.64700  1.0000
  H   H90       1.0  0.63230  0.69070  0.85300  1.0000
  H   H91       1.0  0.86770  0.19070  0.64700  1.0000
  H   H92       1.0  0.13230  0.19070  0.85300  1.0000
  H   H93       1.0  0.63230  0.30930  0.35300  1.0000
  H   H94       1.0  0.36770  0.30930  0.14700  1.0000
  H   H95       1.0  0.13230  0.80930  0.35300  1.0000
  H   H96       1.0  0.86770  0.80930  0.14700  1.0000
  H   H97       1.0  0.33750  0.64590  0.69810  1.0000
  H   H98       1.0  0.66250  0.64590  0.80190  1.0000
  H   H99       1.0  0.83750  0.14590  0.69810  1.0000
  H   H100      1.0  0.16250  0.14590  0.80190  1.0000
  H   H101      1.0  0.66250  0.35410  0.30190  1.0000
  H   H102      1.0  0.33750  0.35410  0.19810  1.0000
  H   H103      1.0  0.16250  0.85410  0.30190  1.0000
  H   H104      1.0  0.83750  0.85410  0.19810  1.0000
  C   C73       1.0  0.44085  0.67150  0.78223  1.0000
  C   C74       1.0  0.55915  0.67150  0.71777  1.0000
  C   C75       1.0  0.94085  0.17150  0.78223  1.0000
  C   C76       1.0  0.05915  0.17150  0.71777  1.0000
  C   C77       1.0  0.55915  0.32850  0.21777  1.0000
  C   C78       1.0  0.44085  0.32850  0.28223  1.0000
  C   C79       1.0  0.05915  0.82850  0.21777  1.0000
  C   C80       1.0  0.94085  0.82850  0.28223  1.0000
