data_image0
_chemical_formula_structural       U2O12H2O8C4H4C2H4C2H4C6H4C2H4C2H4C2
_chemical_formula_sum              "U2 O20 H26 C20"
_cell_length_a       9.6012
_cell_length_b       10.0573
_cell_length_c       11.449
_cell_angle_alpha    94.725
_cell_angle_beta     100.298
_cell_angle_gamma    102.486

_space_group_name_H-M_alt    "P 1"
_space_group_IT_number       1

loop_
  _space_group_symop_operation_xyz
  'x, y, z'

loop_
  _atom_site_type_symbol
  _atom_site_label
  _atom_site_symmetry_multiplicity
  _atom_site_fract_x
  _atom_site_fract_y
  _atom_site_fract_z
  _atom_site_occupancy
  U   U1        1.0  0.78027  0.67902  0.26927  1.0000
  U   U2        1.0  0.21973  0.32098  0.73073  1.0000
  O   O1        1.0  0.80980  0.66944  0.12113  1.0000
  O   O2        1.0  0.19020  0.33056  0.87887  1.0000
  O   O3        1.0  0.74746  0.68576  0.41691  1.0000
  O   O4        1.0  0.25254  0.31424  0.58309  1.0000
  O   O5        1.0  0.53525  0.52171  0.19876  1.0000
  O   O6        1.0  0.46475  0.47829  0.80124  1.0000
  O   O7        1.0  0.54923  0.74163  0.20528  1.0000
  O   O8        1.0  0.45077  0.25837  0.79472  1.0000
  O   O9        1.0  0.11880  0.93780  0.08811  1.0000
  O   O10       1.0  0.88120  0.06220  0.91189  1.0000
  O   O11       1.0  0.95420  0.82245  0.92925  1.0000
  O   O12       1.0  0.04580  0.17755  0.07075  1.0000
  H   H1        1.0  0.93300  0.89600  0.93500  1.0000
  H   H2        1.0  0.06700  0.10400  0.06500  1.0000
  O   O13       1.0  0.99575  0.58960  0.33320  1.0000
  O   O14       1.0  0.00425  0.41040  0.66680  1.0000
  O   O15       1.0  0.79038  0.43543  0.27328  1.0000
  O   O16       1.0  0.20962  0.56457  0.72672  1.0000
  O   O17       1.0  0.79961  0.92607  0.26775  1.0000
  O   O18       1.0  0.20039  0.07393  0.73225  1.0000
  O   O19       1.0  0.99910  0.86675  0.34295  1.0000
  O   O20       1.0  0.00090  0.13325  0.65705  1.0000
  C   C1        1.0  0.47410  0.61920  0.17910  1.0000
  C   C2        1.0  0.52590  0.38080  0.82090  1.0000
  C   C3        1.0  0.31560  0.59230  0.12020  1.0000
  C   C4        1.0  0.68440  0.40770  0.87980  1.0000
  H   H3        1.0  0.25820  0.52470  0.16190  1.0000
  H   H4        1.0  0.74180  0.47530  0.83810  1.0000
  H   H5        1.0  0.30290  0.55110  0.03630  1.0000
  H   H6        1.0  0.69710  0.44890  0.96370  1.0000
  C   C5        1.0  0.25550  0.72040  0.12090  1.0000
  C   C6        1.0  0.74450  0.27960  0.87910  1.0000
  H   H7        1.0  0.23720  0.74420  0.20150  1.0000
  H   H8        1.0  0.76280  0.25580  0.79850  1.0000
  H   H9        1.0  0.32930  0.79790  0.10420  1.0000
  H   H10       1.0  0.67070  0.20210  0.89580  1.0000
  C   C7        1.0  0.11500  0.70190  0.02890  1.0000
  C   C8        1.0  0.88500  0.29810  0.97110  1.0000
  H   H11       1.0  0.13050  0.66790  0.94970  1.0000
  H   H12       1.0  0.86950  0.33210  0.05030  1.0000
  H   H13       1.0  0.03820  0.63130  0.05090  1.0000
  H   H14       1.0  0.96180  0.36870  0.94910  1.0000
  C   C9        1.0  0.06370  0.83220  0.01960  1.0000
  C   C10       1.0  0.93630  0.16780  0.98040  1.0000
  C   C11       1.0  0.92720  0.46530  0.31330  1.0000
  C   C12       1.0  0.07280  0.53470  0.68670  1.0000
  C   C13       1.0  0.01010  0.35610  0.33580  1.0000
  C   C14       1.0  0.98990  0.64390  0.66420  1.0000
  H   H15       1.0  0.07080  0.37900  0.41760  1.0000
  H   H16       1.0  0.92920  0.62100  0.58240  1.0000
  H   H17       1.0  0.07680  0.35820  0.27900  1.0000
  H   H18       1.0  0.92320  0.64180  0.72100  1.0000
  C   C15       1.0  0.91690  0.21030  0.32410  1.0000
  C   C16       1.0  0.08310  0.78970  0.67590  1.0000
  H   H19       1.0  0.85430  0.18600  0.24310  1.0000
  H   H20       1.0  0.14570  0.81400  0.75690  1.0000
  H   H21       1.0  0.85280  0.20510  0.38320  1.0000
  H   H22       1.0  0.14720  0.79490  0.61680  1.0000
  C   C17       1.0  0.01340  0.10860  0.34510  1.0000
  C   C18       1.0  0.98660  0.89140  0.65490  1.0000
  H   H23       1.0  0.08810  0.12590  0.29510  1.0000
  H   H24       1.0  0.91190  0.87410  0.70490  1.0000
  H   H25       1.0  0.06480  0.12570  0.42990  1.0000
  H   H26       1.0  0.93520  0.87430  0.57010  1.0000
  C   C19       1.0  0.93260  0.96050  0.31700  1.0000
  C   C20       1.0  0.06740  0.03950  0.68300  1.0000
