data_image0
_chemical_formula_structural       Cd8C8N16C8N8C8N32C16N8C8N8
_chemical_formula_sum              "Cd8 C48 N72"
_cell_length_a       16.65
_cell_length_b       16.667
_cell_length_c       15.809
_cell_angle_alpha    90
_cell_angle_beta     90
_cell_angle_gamma    90

_space_group_name_H-M_alt    "P 1"
_space_group_IT_number       1

loop_
  _space_group_symop_operation_xyz
  'x, y, z'

loop_
  _atom_site_type_symbol
  _atom_site_label
  _atom_site_symmetry_multiplicity
  _atom_site_fract_x
  _atom_site_fract_y
  _atom_site_fract_z
  _atom_site_occupancy
  Cd  Cd1       1.0  0.18733  0.29073  0.50936  1.0000
  Cd  Cd2       1.0  0.31267  0.20927  0.00936  1.0000
  Cd  Cd3       1.0  0.81267  0.29073  0.99064  1.0000
  Cd  Cd4       1.0  0.68733  0.20927  0.49064  1.0000
  Cd  Cd5       1.0  0.81267  0.70927  0.49064  1.0000
  Cd  Cd6       1.0  0.68733  0.79073  0.99064  1.0000
  Cd  Cd7       1.0  0.18733  0.70927  0.00936  1.0000
  Cd  Cd8       1.0  0.31267  0.79073  0.50936  1.0000
  C   C1        1.0  0.28530  0.29030  0.69270  1.0000
  C   C2        1.0  0.21470  0.20970  0.19270  1.0000
  C   C3        1.0  0.71470  0.29030  0.80730  1.0000
  C   C4        1.0  0.78530  0.20970  0.30730  1.0000
  C   C5        1.0  0.71470  0.70970  0.30730  1.0000
  C   C6        1.0  0.78530  0.79030  0.80730  1.0000
  C   C7        1.0  0.28530  0.70970  0.19270  1.0000
  C   C8        1.0  0.21470  0.79030  0.69270  1.0000
  N   N1        1.0  0.17400  0.15260  0.51940  1.0000
  N   N2        1.0  0.32600  0.34740  0.01940  1.0000
  N   N3        1.0  0.82600  0.15260  0.98060  1.0000
  N   N4        1.0  0.67400  0.34740  0.48060  1.0000
  N   N5        1.0  0.82600  0.84740  0.48060  1.0000
  N   N6        1.0  0.67400  0.65260  0.98060  1.0000
  N   N7        1.0  0.17400  0.84740  0.01940  1.0000
  N   N8        1.0  0.32600  0.65260  0.51940  1.0000
  N   N9        1.0  0.24530  0.29940  0.64170  1.0000
  N   N10       1.0  0.25470  0.20060  0.14170  1.0000
  N   N11       1.0  0.75470  0.29940  0.85830  1.0000
  N   N12       1.0  0.74530  0.20060  0.35830  1.0000
  N   N13       1.0  0.75470  0.70060  0.35830  1.0000
  N   N14       1.0  0.74530  0.79940  0.85830  1.0000
  N   N15       1.0  0.24530  0.70060  0.14170  1.0000
  N   N16       1.0  0.25470  0.79940  0.64170  1.0000
  C   C9        1.0  0.19200  0.09250  0.50300  1.0000
  C   C10       1.0  0.30800  0.40750  0.00300  1.0000
  C   C11       1.0  0.80800  0.09250  0.99700  1.0000
  C   C12       1.0  0.69200  0.40750  0.49700  1.0000
  C   C13       1.0  0.80800  0.90750  0.49700  1.0000
  C   C14       1.0  0.69200  0.59250  0.99700  1.0000
  C   C15       1.0  0.19200  0.90750  0.00300  1.0000
  C   C16       1.0  0.30800  0.59250  0.50300  1.0000
  N   N17       1.0  0.31230  0.28280  0.44870  1.0000
  N   N18       1.0  0.18770  0.21720  0.94870  1.0000
  N   N19       1.0  0.68770  0.28280  0.05130  1.0000
  N   N20       1.0  0.81230  0.21720  0.55130  1.0000
  N   N21       1.0  0.68770  0.71720  0.55130  1.0000
  N   N22       1.0  0.81230  0.78280  0.05130  1.0000
  N   N23       1.0  0.31230  0.71720  0.94870  1.0000
  N   N24       1.0  0.18770  0.78280  0.44870  1.0000
  C   C17       1.0  0.36810  0.27200  0.43490  1.0000
  C   C18       1.0  0.13190  0.22800  0.93490  1.0000
  C   C19       1.0  0.63190  0.27200  0.06510  1.0000
  C   C20       1.0  0.86810  0.22800  0.56510  1.0000
  C   C21       1.0  0.63190  0.72800  0.56510  1.0000
  C   C22       1.0  0.86810  0.77200  0.06510  1.0000
  C   C23       1.0  0.36810  0.72800  0.93490  1.0000
  C   C24       1.0  0.13190  0.77200  0.43490  1.0000
  N   N25       1.0  0.19860  0.02190  0.47020  1.0000
  N   N26       1.0  0.30140  0.47810  0.97020  1.0000
  N   N27       1.0  0.80140  0.02190  0.02980  1.0000
  N   N28       1.0  0.69860  0.47810  0.52980  1.0000
  N   N29       1.0  0.80140  0.97810  0.52980  1.0000
  N   N30       1.0  0.69860  0.52190  0.02980  1.0000
  N   N31       1.0  0.19860  0.97810  0.97020  1.0000
  N   N32       1.0  0.30140  0.52190  0.47020  1.0000
  N   N33       1.0  0.34340  0.29900  0.75350  1.0000
  N   N34       1.0  0.15660  0.20100  0.25350  1.0000
  N   N35       1.0  0.65660  0.29900  0.74650  1.0000
  N   N36       1.0  0.84340  0.20100  0.24650  1.0000
  N   N37       1.0  0.65660  0.70100  0.24650  1.0000
  N   N38       1.0  0.84340  0.79900  0.74650  1.0000
  N   N39       1.0  0.34340  0.70100  0.25350  1.0000
  N   N40       1.0  0.15660  0.79900  0.75350  1.0000
  N   N41       1.0  0.44320  0.26210  0.38560  1.0000
  N   N42       1.0  0.05680  0.23790  0.88560  1.0000
  N   N43       1.0  0.55680  0.26210  0.11440  1.0000
  N   N44       1.0  0.94320  0.23790  0.61440  1.0000
  N   N45       1.0  0.55680  0.73790  0.61440  1.0000
  N   N46       1.0  0.94320  0.76210  0.11440  1.0000
  N   N47       1.0  0.44320  0.73790  0.88560  1.0000
  N   N48       1.0  0.05680  0.76210  0.38560  1.0000
  N   N49       1.0  0.30610  0.92880  0.50250  1.0000
  N   N50       1.0  0.19390  0.57120  0.00250  1.0000
  N   N51       1.0  0.69390  0.92880  0.99750  1.0000
  N   N52       1.0  0.80610  0.57120  0.49750  1.0000
  N   N53       1.0  0.69390  0.07120  0.49750  1.0000
  N   N54       1.0  0.80610  0.42880  0.99750  1.0000
  N   N55       1.0  0.30610  0.07120  0.00250  1.0000
  N   N56       1.0  0.19390  0.42880  0.50250  1.0000
  C   C25       1.0  0.26000  0.97390  0.48990  1.0000
  C   C26       1.0  0.24000  0.52610  0.98990  1.0000
  C   C27       1.0  0.74000  0.97390  0.01010  1.0000
  C   C28       1.0  0.76000  0.52610  0.51010  1.0000
  C   C29       1.0  0.74000  0.02610  0.51010  1.0000
  C   C30       1.0  0.76000  0.47390  0.01010  1.0000
  C   C31       1.0  0.26000  0.02610  0.98990  1.0000
  C   C32       1.0  0.24000  0.47390  0.48990  1.0000
  C   C33       1.0  0.34820  0.24450  0.81600  1.0000
  C   C34       1.0  0.15180  0.25550  0.31600  1.0000
  C   C35       1.0  0.65180  0.24450  0.68400  1.0000
  C   C36       1.0  0.84820  0.25550  0.18400  1.0000
  C   C37       1.0  0.65180  0.75550  0.18400  1.0000
  C   C38       1.0  0.84820  0.74450  0.68400  1.0000
  C   C39       1.0  0.34820  0.75550  0.31600  1.0000
  C   C40       1.0  0.15180  0.74450  0.81600  1.0000
  N   N57       1.0  0.36200  0.21220  0.87270  1.0000
  N   N58       1.0  0.13800  0.28780  0.37270  1.0000
  N   N59       1.0  0.63800  0.21220  0.62730  1.0000
  N   N60       1.0  0.86200  0.28780  0.12730  1.0000
  N   N61       1.0  0.63800  0.78780  0.12730  1.0000
  N   N62       1.0  0.86200  0.71220  0.62730  1.0000
  N   N63       1.0  0.36200  0.78780  0.37270  1.0000
  N   N64       1.0  0.13800  0.71220  0.87270  1.0000
  C   C41       1.0  0.50610  0.23230  0.42030  1.0000
  C   C42       1.0  0.99390  0.26770  0.92030  1.0000
  C   C43       1.0  0.49390  0.23230  0.07970  1.0000
  C   C44       1.0  0.00610  0.26770  0.57970  1.0000
  C   C45       1.0  0.49390  0.76770  0.57970  1.0000
  C   C46       1.0  0.00610  0.73230  0.07970  1.0000
  C   C47       1.0  0.50610  0.76770  0.92030  1.0000
  C   C48       1.0  0.99390  0.73230  0.42030  1.0000
  N   N65       1.0  0.56250  0.20500  0.43750  1.0000
  N   N66       1.0  0.93750  0.29500  0.93750  1.0000
  N   N67       1.0  0.43750  0.20500  0.06250  1.0000
  N   N68       1.0  0.06250  0.29500  0.56250  1.0000
  N   N69       1.0  0.43750  0.79500  0.56250  1.0000
  N   N70       1.0  0.06250  0.70500  0.06250  1.0000
  N   N71       1.0  0.56250  0.79500  0.93750  1.0000
  N   N72       1.0  0.93750  0.70500  0.43750  1.0000
