data_image0
_chemical_formula_structural       Cd4N8C8N8C8N12C8N8
_chemical_formula_sum              "Cd4 N36 C24"
_cell_length_a       18.909
_cell_length_b       10.618
_cell_length_c       10.507
_cell_angle_alpha    90
_cell_angle_beta     111.75
_cell_angle_gamma    90

_space_group_name_H-M_alt    "P 1"
_space_group_IT_number       1

loop_
  _space_group_symop_operation_xyz
  'x, y, z'

loop_
  _atom_site_type_symbol
  _atom_site_label
  _atom_site_symmetry_multiplicity
  _atom_site_fract_x
  _atom_site_fract_y
  _atom_site_fract_z
  _atom_site_occupancy
  Cd  Cd1       1.0  0.25000  0.25000  0.00000  1.0000
  Cd  Cd2       1.0  0.75000  0.25000  0.50000  1.0000
  Cd  Cd3       1.0  0.75000  0.75000  0.00000  1.0000
  Cd  Cd4       1.0  0.25000  0.75000  0.50000  1.0000
  N   N1        1.0  0.25746  0.24409  0.22550  1.0000
  N   N2        1.0  0.74254  0.24409  0.27450  1.0000
  N   N3        1.0  0.75746  0.74409  0.22550  1.0000
  N   N4        1.0  0.24254  0.74409  0.27450  1.0000
  N   N5        1.0  0.74254  0.75591  0.77450  1.0000
  N   N6        1.0  0.25746  0.75591  0.72550  1.0000
  N   N7        1.0  0.24254  0.25591  0.77450  1.0000
  N   N8        1.0  0.75746  0.25591  0.72550  1.0000
  C   C1        1.0  0.43925  0.26400  0.16850  1.0000
  C   C2        1.0  0.56075  0.26400  0.33150  1.0000
  C   C3        1.0  0.93925  0.76400  0.16850  1.0000
  C   C4        1.0  0.06075  0.76400  0.33150  1.0000
  C   C5        1.0  0.56075  0.73600  0.83150  1.0000
  C   C6        1.0  0.43925  0.73600  0.66850  1.0000
  C   C7        1.0  0.06075  0.23600  0.83150  1.0000
  C   C8        1.0  0.93925  0.23600  0.66850  1.0000
  N   N9        1.0  0.38313  0.22910  0.09080  1.0000
  N   N10       1.0  0.61687  0.22910  0.40920  1.0000
  N   N11       1.0  0.88313  0.72910  0.09080  1.0000
  N   N12       1.0  0.11687  0.72910  0.40920  1.0000
  N   N13       1.0  0.61687  0.77090  0.90920  1.0000
  N   N14       1.0  0.38313  0.77090  0.59080  1.0000
  N   N15       1.0  0.11687  0.27090  0.90920  1.0000
  N   N16       1.0  0.88313  0.27090  0.59080  1.0000
  C   C9        1.0  0.28027  0.29410  0.32940  1.0000
  C   C10       1.0  0.71973  0.29410  0.17060  1.0000
  C   C11       1.0  0.78027  0.79410  0.32940  1.0000
  C   C12       1.0  0.21973  0.79410  0.17060  1.0000
  C   C13       1.0  0.71973  0.70590  0.67060  1.0000
  C   C14       1.0  0.28027  0.70590  0.82940  1.0000
  C   C15       1.0  0.21973  0.20590  0.67060  1.0000
  C   C16       1.0  0.78027  0.20590  0.82940  1.0000
  N   N17       1.0  0.31007  0.34170  0.45180  1.0000
  N   N18       1.0  0.68993  0.34170  0.04820  1.0000
  N   N19       1.0  0.81007  0.84170  0.45180  1.0000
  N   N20       1.0  0.18993  0.84170  0.04820  1.0000
  N   N21       1.0  0.68993  0.65830  0.54820  1.0000
  N   N22       1.0  0.31007  0.65830  0.95180  1.0000
  N   N23       1.0  0.18993  0.15830  0.54820  1.0000
  N   N24       1.0  0.81007  0.15830  0.95180  1.0000
  N   N25       1.0  0.50000  0.31940  0.25000  1.0000
  N   N26       1.0  0.00000  0.81940  0.25000  1.0000
  N   N27       1.0  0.50000  0.68060  0.75000  1.0000
  N   N28       1.0  0.00000  0.18060  0.75000  1.0000
  C   C17       1.0  0.28451  0.44570  0.48070  1.0000
  C   C18       1.0  0.71549  0.44570  0.01930  1.0000
  C   C19       1.0  0.78451  0.94570  0.48070  1.0000
  C   C20       1.0  0.21549  0.94570  0.01930  1.0000
  C   C21       1.0  0.71549  0.55430  0.51930  1.0000
  C   C22       1.0  0.28451  0.55430  0.98070  1.0000
  C   C23       1.0  0.21549  0.05430  0.51930  1.0000
  C   C24       1.0  0.78451  0.05430  0.98070  1.0000
  N   N29       1.0  0.26546  0.53570  0.51690  1.0000
  N   N30       1.0  0.73454  0.53570  0.98310  1.0000
  N   N31       1.0  0.76546  0.03570  0.51690  1.0000
  N   N32       1.0  0.23454  0.03570  0.98310  1.0000
  N   N33       1.0  0.73454  0.46430  0.48310  1.0000
  N   N34       1.0  0.26546  0.46430  0.01690  1.0000
  N   N35       1.0  0.23454  0.96430  0.48310  1.0000
  N   N36       1.0  0.76546  0.96430  0.01690  1.0000
