data_image0
_chemical_formula_structural       Cd4N20C12N8C4N4C4N4C4
_chemical_formula_sum              "Cd4 N36 C24"
_cell_length_a       10.7129
_cell_length_b       12.186
_cell_length_c       16.3333
_cell_angle_alpha    90
_cell_angle_beta     90
_cell_angle_gamma    90

_space_group_name_H-M_alt    "P 1"
_space_group_IT_number       1

loop_
  _space_group_symop_operation_xyz
  'x, y, z'

loop_
  _atom_site_type_symbol
  _atom_site_label
  _atom_site_symmetry_multiplicity
  _atom_site_fract_x
  _atom_site_fract_y
  _atom_site_fract_z
  _atom_site_occupancy
  Cd  Cd1       1.0  0.22054  0.93917  0.19177  1.0000
  Cd  Cd2       1.0  0.27946  0.06083  0.69177  1.0000
  Cd  Cd3       1.0  0.77946  0.43917  0.30823  1.0000
  Cd  Cd4       1.0  0.72054  0.56083  0.80823  1.0000
  N   N1        1.0  0.37880  0.06910  0.17930  1.0000
  N   N2        1.0  0.12120  0.93090  0.67930  1.0000
  N   N3        1.0  0.62120  0.56910  0.32070  1.0000
  N   N4        1.0  0.87880  0.43090  0.82070  1.0000
  N   N5        1.0  0.07760  0.25540  0.18420  1.0000
  N   N6        1.0  0.42240  0.74460  0.68420  1.0000
  N   N7        1.0  0.92240  0.75540  0.31580  1.0000
  N   N8        1.0  0.57760  0.24460  0.81580  1.0000
  N   N9        1.0  0.08630  0.07320  0.13150  1.0000
  N   N10       1.0  0.41370  0.92680  0.63150  1.0000
  N   N11       1.0  0.91370  0.57320  0.36850  1.0000
  N   N12       1.0  0.58630  0.42680  0.86850  1.0000
  N   N13       1.0  0.28750  0.87260  0.06860  1.0000
  N   N14       1.0  0.21250  0.12740  0.56860  1.0000
  N   N15       1.0  0.71250  0.37260  0.43140  1.0000
  N   N16       1.0  0.78750  0.62740  0.93140  1.0000
  N   N17       1.0  0.39380  0.89130  0.94180  1.0000
  N   N18       1.0  0.10620  0.10870  0.44180  1.0000
  N   N19       1.0  0.60620  0.39130  0.55820  1.0000
  N   N20       1.0  0.89380  0.60870  0.05820  1.0000
  C   C1        1.0  0.07460  0.15500  0.15930  1.0000
  C   C2        1.0  0.42540  0.84500  0.65930  1.0000
  C   C3        1.0  0.92540  0.65500  0.34070  1.0000
  C   C4        1.0  0.57460  0.34500  0.84070  1.0000
  C   C5        1.0  0.33080  0.89250  0.00880  1.0000
  C   C6        1.0  0.16920  0.10750  0.50880  1.0000
  C   C7        1.0  0.66920  0.39250  0.49120  1.0000
  C   C8        1.0  0.83080  0.60750  0.99120  1.0000
  C   C9        1.0  0.44930  0.13240  0.17580  1.0000
  C   C10       1.0  0.05070  0.86760  0.67580  1.0000
  C   C11       1.0  0.55070  0.63240  0.32420  1.0000
  C   C12       1.0  0.94930  0.36760  0.82420  1.0000
  N   N21       1.0  0.51450  0.21350  0.15640  1.0000
  N   N22       1.0  0.98550  0.78650  0.65640  1.0000
  N   N23       1.0  0.48550  0.71350  0.34360  1.0000
  N   N24       1.0  0.01450  0.28650  0.84360  1.0000
  N   N25       1.0  0.65640  0.31250  0.23730  1.0000
  N   N26       1.0  0.84360  0.68750  0.73730  1.0000
  N   N27       1.0  0.34360  0.81250  0.26270  1.0000
  N   N28       1.0  0.15640  0.18750  0.76270  1.0000
  C   C13       1.0  0.58630  0.27600  0.20570  1.0000
  C   C14       1.0  0.91370  0.72400  0.70570  1.0000
  C   C15       1.0  0.41370  0.77600  0.29430  1.0000
  C   C16       1.0  0.08630  0.22400  0.79430  1.0000
  N   N29       1.0  0.95470  0.32290  0.29550  1.0000
  N   N30       1.0  0.54530  0.67710  0.79550  1.0000
  N   N31       1.0  0.04530  0.82290  0.20450  1.0000
  N   N32       1.0  0.45470  0.17710  0.70450  1.0000
  C   C17       1.0  0.00830  0.28900  0.24680  1.0000
  C   C18       1.0  0.49170  0.71100  0.74680  1.0000
  C   C19       1.0  0.99170  0.78900  0.25320  1.0000
  C   C20       1.0  0.50830  0.21100  0.75320  1.0000
  N   N33       1.0  0.34610  0.98820  0.81650  1.0000
  N   N34       1.0  0.15390  0.01180  0.31650  1.0000
  N   N35       1.0  0.65390  0.48820  0.68350  1.0000
  N   N36       1.0  0.84610  0.51180  0.18350  1.0000
  C   C21       1.0  0.36390  0.95850  0.88050  1.0000
  C   C22       1.0  0.13610  0.04150  0.38050  1.0000
  C   C23       1.0  0.63610  0.45850  0.61950  1.0000
  C   C24       1.0  0.86390  0.54150  0.11950  1.0000
