data_image0
_chemical_formula_structural       Zn2P2O6H2O2C2N2C4H4N2C2H2C2H2C2P2O6H2O4H4
_chemical_formula_sum              "Zn2 P4 O18 H16 C12 N4"
_cell_length_a       8.9012
_cell_length_b       8.9692
_cell_length_c       10.1085
_cell_angle_alpha    76.626
_cell_angle_beta     70.921
_cell_angle_gamma    67.717

_space_group_name_H-M_alt    "P 1"
_space_group_IT_number       1

loop_
  _space_group_symop_operation_xyz
  'x, y, z'

loop_
  _atom_site_type_symbol
  _atom_site_label
  _atom_site_symmetry_multiplicity
  _atom_site_fract_x
  _atom_site_fract_y
  _atom_site_fract_z
  _atom_site_occupancy
  Zn  Zn1       1.0  0.28530  0.25682  0.03825  1.0000
  Zn  Zn2       1.0  0.71470  0.74318  0.96175  1.0000
  P   P1        1.0  0.34196  0.89598  0.18923  1.0000
  P   P2        1.0  0.65804  0.10402  0.81077  1.0000
  O   O1        1.0  0.23290  0.07150  0.16490  1.0000
  O   O2        1.0  0.76710  0.92850  0.83510  1.0000
  O   O3        1.0  0.31350  0.83130  0.34410  1.0000
  O   O4        1.0  0.68650  0.16870  0.65590  1.0000
  O   O5        1.0  0.32200  0.61390  0.18430  1.0000
  O   O6        1.0  0.67800  0.38610  0.81570  1.0000
  H   H1        1.0  0.33320  0.54760  0.13490  1.0000
  H   H2        1.0  0.66680  0.45240  0.86510  1.0000
  O   O7        1.0  0.15680  0.36500  0.88760  1.0000
  O   O8        1.0  0.84320  0.63500  0.11240  1.0000
  C   C1        1.0  0.02320  0.48060  0.92450  1.0000
  C   C2        1.0  0.97680  0.51940  0.07550  1.0000
  N   N1        1.0  0.98910  0.84720  0.28720  1.0000
  N   N2        1.0  0.01090  0.15280  0.71280  1.0000
  C   C3        1.0  0.27090  0.77370  0.11200  1.0000
  C   C4        1.0  0.72910  0.22630  0.88800  1.0000
  C   C5        1.0  0.07920  0.84080  0.13710  1.0000
  C   C6        1.0  0.92080  0.15920  0.86290  1.0000
  H   H3        1.0  0.04790  0.94920  0.08680  1.0000
  H   H4        1.0  0.95210  0.05080  0.91320  1.0000
  H   H5        1.0  0.04460  0.77300  0.09900  1.0000
  H   H6        1.0  0.95540  0.22700  0.90100  1.0000
  N   N3        1.0  0.84840  0.94670  0.48340  1.0000
  N   N4        1.0  0.15160  0.05330  0.51660  1.0000
  C   C7        1.0  0.97910  0.71950  0.38950  1.0000
  C   C8        1.0  0.02090  0.28050  0.61050  1.0000
  H   H7        1.0  0.02420  0.61020  0.37680  1.0000
  H   H8        1.0  0.97580  0.38980  0.62320  1.0000
  C   C9        1.0  0.90970  0.98380  0.34660  1.0000
  C   C10       1.0  0.09030  0.01620  0.65340  1.0000
  H   H9        1.0  0.89900  0.08810  0.29980  1.0000
  H   H10       1.0  0.10100  0.91190  0.70020  1.0000
  C   C11       1.0  0.89190  0.78090  0.51220  1.0000
  C   C12       1.0  0.10810  0.21910  0.48780  1.0000
  P   P3        1.0  0.36670  0.76769  0.92004  1.0000
  P   P4        1.0  0.63330  0.23231  0.07996  1.0000
  O   O9        1.0  0.52900  0.86570  0.11850  1.0000
  O   O10       1.0  0.47100  0.13430  0.88150  1.0000
  O   O11       1.0  0.92490  0.56440  0.85010  1.0000
  O   O12       1.0  0.07510  0.43560  0.14990  1.0000
  O   O13       1.0  0.32040  0.94910  0.85150  1.0000
  O   O14       1.0  0.67960  0.05090  0.14850  1.0000
  H   H11       1.0  0.38100  0.99140  0.86400  1.0000
  H   H12       1.0  0.61900  0.00860  0.13600  1.0000
  O   O15       1.0  0.28440  0.68380  0.86860  1.0000
  O   O16       1.0  0.71560  0.31620  0.13140  1.0000
  O   O17       1.0  0.55540  0.68790  0.89770  1.0000
  O   O18       1.0  0.44460  0.31210  0.10230  1.0000
  H   H13       1.0  0.86500  0.73200  0.59800  1.0000
  H   H14       1.0  0.13500  0.26800  0.40200  1.0000
  H   H15       1.0  0.78500  0.03000  0.54600  1.0000
  H   H16       1.0  0.21500  0.97000  0.45400  1.0000
