data_image0
_chemical_formula_structural       Cu8C20O20H8C20O16H4
_chemical_formula_sum              "Cu8 C40 O36 H12"
_cell_length_a       11.5934
_cell_length_b       10.5944
_cell_length_c       15.822
_cell_angle_alpha    90
_cell_angle_beta     106.13
_cell_angle_gamma    90

_space_group_name_H-M_alt    "P 1"
_space_group_IT_number       1

loop_
  _space_group_symop_operation_xyz
  'x, y, z'

loop_
  _atom_site_type_symbol
  _atom_site_label
  _atom_site_symmetry_multiplicity
  _atom_site_fract_x
  _atom_site_fract_y
  _atom_site_fract_z
  _atom_site_occupancy
  Cu  Cu1       1.0  0.01480  0.63677  0.00079  1.0000
  Cu  Cu2       1.0  0.98520  0.63677  0.49921  1.0000
  Cu  Cu3       1.0  0.98520  0.36323  0.99921  1.0000
  Cu  Cu4       1.0  0.01480  0.36323  0.50079  1.0000
  Cu  Cu5       1.0  0.14067  0.49758  0.18562  1.0000
  Cu  Cu6       1.0  0.85933  0.49758  0.31438  1.0000
  Cu  Cu7       1.0  0.85933  0.50242  0.81438  1.0000
  Cu  Cu8       1.0  0.14067  0.50242  0.68562  1.0000
  C   C1        1.0  0.01700  0.11100  0.21050  1.0000
  C   C2        1.0  0.98300  0.11100  0.28950  1.0000
  C   C3        1.0  0.98300  0.88900  0.78950  1.0000
  C   C4        1.0  0.01700  0.88900  0.71050  1.0000
  C   C5        1.0  0.01760  0.88170  0.21080  1.0000
  C   C6        1.0  0.98240  0.88170  0.28920  1.0000
  C   C7        1.0  0.98240  0.11830  0.78920  1.0000
  C   C8        1.0  0.01760  0.11830  0.71080  1.0000
  C   C9        1.0  0.03270  0.99680  0.17290  1.0000
  C   C10       1.0  0.96730  0.99680  0.32710  1.0000
  C   C11       1.0  0.96730  0.00320  0.82710  1.0000
  C   C12       1.0  0.03270  0.00320  0.67290  1.0000
  C   C13       1.0  0.03870  0.23080  0.16670  1.0000
  C   C14       1.0  0.96130  0.23080  0.33330  1.0000
  C   C15       1.0  0.96130  0.76920  0.83330  1.0000
  C   C16       1.0  0.03870  0.76920  0.66670  1.0000
  C   C17       1.0  0.04380  0.76360  0.16590  1.0000
  C   C18       1.0  0.95620  0.76360  0.33410  1.0000
  C   C19       1.0  0.95620  0.23640  0.83410  1.0000
  C   C20       1.0  0.04380  0.23640  0.66590  1.0000
  O   O1        1.0  0.10420  0.31370  0.21200  1.0000
  O   O2        1.0  0.89580  0.31370  0.28800  1.0000
  O   O3        1.0  0.89580  0.68630  0.78800  1.0000
  O   O4        1.0  0.10420  0.68630  0.71200  1.0000
  O   O5        1.0  0.98950  0.23320  0.08480  1.0000
  O   O6        1.0  0.01050  0.23320  0.41520  1.0000
  O   O7        1.0  0.01050  0.76680  0.91520  1.0000
  O   O8        1.0  0.98950  0.76680  0.58480  1.0000
  O   O9        1.0  0.10820  0.68050  0.21070  1.0000
  O   O10       1.0  0.89180  0.68050  0.28930  1.0000
  O   O11       1.0  0.89180  0.31950  0.78930  1.0000
  O   O12       1.0  0.10820  0.31950  0.71070  1.0000
  O   O13       1.0  0.00050  0.76610  0.08280  1.0000
  O   O14       1.0  0.99950  0.76610  0.41720  1.0000
  O   O15       1.0  0.99950  0.23390  0.91720  1.0000
  O   O16       1.0  0.00050  0.23390  0.58280  1.0000
  O   O17       1.0  0.00580  0.50160  0.08290  1.0000
  O   O18       1.0  0.99420  0.50160  0.41710  1.0000
  O   O19       1.0  0.99420  0.49840  0.91710  1.0000
  O   O20       1.0  0.00580  0.49840  0.58290  1.0000
  H   H1        1.0  0.05410  0.99550  0.12060  1.0000
  H   H2        1.0  0.94590  0.99550  0.37940  1.0000
  H   H3        1.0  0.94590  0.00450  0.87940  1.0000
  H   H4        1.0  0.05410  0.00450  0.62060  1.0000
  H   H5        1.0  0.93870  0.50500  0.09940  1.0000
  H   H6        1.0  0.06130  0.50500  0.40060  1.0000
  H   H7        1.0  0.06130  0.49500  0.90060  1.0000
  H   H8        1.0  0.93870  0.49500  0.59940  1.0000
  C   C21       1.0  0.39250  0.49560  0.93260  1.0000
  C   C22       1.0  0.60750  0.49560  0.56740  1.0000
  C   C23       1.0  0.60750  0.50440  0.06740  1.0000
  C   C24       1.0  0.39250  0.50440  0.43260  1.0000
  C   C25       1.0  0.38970  0.50590  0.02000  1.0000
  C   C26       1.0  0.61030  0.50590  0.48000  1.0000
  C   C27       1.0  0.61030  0.49410  0.98000  1.0000
  C   C28       1.0  0.38970  0.49410  0.52000  1.0000
  C   C29       1.0  0.49730  0.51020  0.08650  1.0000
  C   C30       1.0  0.50270  0.51020  0.41350  1.0000
  C   C31       1.0  0.50270  0.48980  0.91350  1.0000
  C   C32       1.0  0.49730  0.48980  0.58650  1.0000
  C   C33       1.0  0.27830  0.48280  0.85930  1.0000
  C   C34       1.0  0.72170  0.48280  0.64070  1.0000
  C   C35       1.0  0.72170  0.51720  0.14070  1.0000
  C   C36       1.0  0.27830  0.51720  0.35930  1.0000
  C   C37       1.0  0.27540  0.52330  0.04790  1.0000
  C   C38       1.0  0.72460  0.52330  0.45210  1.0000
  C   C39       1.0  0.72460  0.47670  0.95210  1.0000
  C   C40       1.0  0.27540  0.47670  0.54790  1.0000
  O   O21       1.0  0.28420  0.51250  0.78270  1.0000
  O   O22       1.0  0.71580  0.51250  0.71730  1.0000
  O   O23       1.0  0.71580  0.48750  0.21730  1.0000
  O   O24       1.0  0.28420  0.48750  0.28270  1.0000
  O   O25       1.0  0.18820  0.44220  0.87760  1.0000
  O   O26       1.0  0.81180  0.44220  0.62240  1.0000
  O   O27       1.0  0.81180  0.55780  0.12240  1.0000
  O   O28       1.0  0.18820  0.55780  0.37760  1.0000
  O   O29       1.0  0.25200  0.44050  0.09750  1.0000
  O   O30       1.0  0.74800  0.44050  0.40250  1.0000
  O   O31       1.0  0.74800  0.55950  0.90250  1.0000
  O   O32       1.0  0.25200  0.55950  0.59750  1.0000
  O   O33       1.0  0.21730  0.62280  0.02550  1.0000
  O   O34       1.0  0.78270  0.62280  0.47450  1.0000
  O   O35       1.0  0.78270  0.37720  0.97450  1.0000
  O   O36       1.0  0.21730  0.37720  0.52550  1.0000
  H   H9        1.0  0.49900  0.52030  0.14810  1.0000
  H   H10       1.0  0.50100  0.52030  0.35190  1.0000
  H   H11       1.0  0.50100  0.47970  0.85190  1.0000
  H   H12       1.0  0.49900  0.47970  0.64810  1.0000
