data_image0
_chemical_formula_structural       Cu3C20O20H12
_chemical_formula_sum              "Cu3 C20 O20 H12"
_cell_length_a       7.7256
_cell_length_b       11.1036
_cell_length_c       11.1198
_cell_angle_alpha    98.72
_cell_angle_beta     108.246
_cell_angle_gamma    95.559

_space_group_name_H-M_alt    "P 1"
_space_group_IT_number       1

loop_
  _space_group_symop_operation_xyz
  'x, y, z'

loop_
  _atom_site_type_symbol
  _atom_site_label
  _atom_site_symmetry_multiplicity
  _atom_site_fract_x
  _atom_site_fract_y
  _atom_site_fract_z
  _atom_site_occupancy
  Cu  Cu1       1.0  0.42356  0.20994  0.80547  1.0000
  Cu  Cu2       1.0  0.57644  0.79006  0.19453  1.0000
  Cu  Cu3       1.0  0.00000  0.00000  0.00000  1.0000
  C   C1        1.0  0.06900  0.00800  0.63390  1.0000
  C   C2        1.0  0.93100  0.99200  0.36610  1.0000
  C   C3        1.0  0.18950  0.99920  0.56230  1.0000
  C   C4        1.0  0.81050  0.00080  0.43770  1.0000
  C   C5        1.0  0.88250  0.00940  0.57100  1.0000
  C   C6        1.0  0.11750  0.99060  0.42900  1.0000
  C   C7        1.0  0.13100  0.01480  0.77820  1.0000
  C   C8        1.0  0.86900  0.98520  0.22180  1.0000
  C   C9        1.0  0.39410  0.99400  0.61950  1.0000
  C   C10       1.0  0.60590  0.00600  0.38050  1.0000
  C   C11       1.0  0.93850  0.37340  0.98080  1.0000
  C   C12       1.0  0.06150  0.62660  0.01920  1.0000
  C   C13       1.0  0.08540  0.41510  0.94110  1.0000
  C   C14       1.0  0.91460  0.58490  0.05890  1.0000
  C   C15       1.0  0.14510  0.54080  0.96210  1.0000
  C   C16       1.0  0.85490  0.45920  0.03790  1.0000
  C   C17       1.0  0.87870  0.23800  0.97360  1.0000
  C   C18       1.0  0.12130  0.76200  0.02640  1.0000
  C   C19       1.0  0.17260  0.32960  0.86690  1.0000
  C   C20       1.0  0.82740  0.67040  0.13310  1.0000
  O   O1        1.0  0.01800  0.96110  0.82130  1.0000
  O   O2        1.0  0.98200  0.03890  0.17870  1.0000
  O   O3        1.0  0.28800  0.07175  0.84970  1.0000
  O   O4        1.0  0.71200  0.92825  0.15030  1.0000
  O   O5        1.0  0.44970  0.89880  0.58310  1.0000
  O   O6        1.0  0.55030  0.10120  0.41690  1.0000
  O   O7        1.0  0.49980  0.08760  0.69700  1.0000
  O   O8        1.0  0.50020  0.91240  0.30300  1.0000
  O   O9        1.0  0.71510  0.20110  0.96240  1.0000
  O   O10       1.0  0.28490  0.79890  0.03760  1.0000
  O   O11       1.0  0.00700  0.17289  0.98670  1.0000
  O   O12       1.0  0.99300  0.82711  0.01330  1.0000
  O   O13       1.0  0.08320  0.27360  0.75750  1.0000
  O   O14       1.0  0.91680  0.72640  0.24250  1.0000
  O   O15       1.0  0.34530  0.32610  0.92200  1.0000
  O   O16       1.0  0.65470  0.67390  0.07800  1.0000
  O   O17       1.0  0.51180  0.34180  0.73510  1.0000
  O   O18       1.0  0.48820  0.65820  0.26490  1.0000
  O   O19       1.0  0.66960  0.93650  0.89530  1.0000
  O   O20       1.0  0.33040  0.06350  0.10470  1.0000
  H   H1        1.0  0.80850  0.01930  0.61910  1.0000
  H   H2        1.0  0.19150  0.98070  0.38090  1.0000
  H   H3        1.0  0.58400  0.33090  0.69870  1.0000
  H   H4        1.0  0.41600  0.66910  0.30130  1.0000
  H   H5        1.0  0.51320  0.41620  0.76490  1.0000
  H   H6        1.0  0.48680  0.58380  0.23510  1.0000
  H   H7        1.0  0.23640  0.56560  0.93490  1.0000
  H   H8        1.0  0.76360  0.43440  0.06510  1.0000
  H   H9        1.0  0.64460  0.00370  0.88200  1.0000
  H   H10       1.0  0.35540  0.99630  0.11800  1.0000
  H   H11       1.0  0.65930  0.93210  0.96130  1.0000
  H   H12       1.0  0.34070  0.06790  0.03870  1.0000
