data_image0
_chemical_formula_structural       AuTl2Au2Tl2Au3C12I2F8C12I2F8C12I2F8C12I2F8C12I2F8C12I2F8
_chemical_formula_sum              "Au6 Tl4 C72 I12 F48"
_cell_length_a       13.738
_cell_length_b       15.2812
_cell_length_c       18.1752
_cell_angle_alpha    102.704
_cell_angle_beta     104.618
_cell_angle_gamma    96.847

_space_group_name_H-M_alt    "P 1"
_space_group_IT_number       1

loop_
  _space_group_symop_operation_xyz
  'x, y, z'

loop_
  _atom_site_type_symbol
  _atom_site_label
  _atom_site_symmetry_multiplicity
  _atom_site_fract_x
  _atom_site_fract_y
  _atom_site_fract_z
  _atom_site_occupancy
  Au  Au1       1.0  0.00000  0.00000  0.00000  1.0000
  Tl  Tl1       1.0  0.05374  0.99693  0.19045  1.0000
  Tl  Tl2       1.0  0.94626  0.00307  0.80955  1.0000
  Au  Au2       1.0  0.07893  0.05327  0.39062  1.0000
  Au  Au3       1.0  0.92107  0.94673  0.60938  1.0000
  Tl  Tl3       1.0  0.28700  0.98741  0.39885  1.0000
  Tl  Tl4       1.0  0.71300  0.01259  0.60115  1.0000
  Au  Au4       1.0  0.22059  0.88227  0.22372  1.0000
  Au  Au5       1.0  0.77941  0.11773  0.77628  1.0000
  Au  Au6       1.0  0.50000  0.00000  0.50000  1.0000
  C   C1        1.0  0.12460  0.10540  0.04240  1.0000
  C   C2        1.0  0.87540  0.89460  0.95760  1.0000
  C   C3        1.0  0.20650  0.10710  0.01250  1.0000
  C   C4        1.0  0.79350  0.89290  0.98750  1.0000
  C   C5        1.0  0.28670  0.18050  0.04020  1.0000
  C   C6        1.0  0.71330  0.81950  0.95980  1.0000
  C   C7        1.0  0.28570  0.25460  0.09820  1.0000
  C   C8        1.0  0.71430  0.74540  0.90180  1.0000
  C   C9        1.0  0.20560  0.25470  0.12940  1.0000
  C   C10       1.0  0.79440  0.74530  0.87060  1.0000
  C   C11       1.0  0.12660  0.17960  0.10040  1.0000
  C   C12       1.0  0.87340  0.82040  0.89960  1.0000
  I   I1        1.0  0.21662  0.00036  0.92212  1.0000
  I   I2        1.0  0.78338  0.99964  0.07788  1.0000
  F   F1        1.0  0.36650  0.18530  0.01010  1.0000
  F   F2        1.0  0.63350  0.81470  0.98990  1.0000
  F   F3        1.0  0.36250  0.32690  0.12540  1.0000
  F   F4        1.0  0.63750  0.67310  0.87460  1.0000
  F   F5        1.0  0.20570  0.32470  0.19100  1.0000
  F   F6        1.0  0.79430  0.67530  0.80900  1.0000
  F   F7        1.0  0.05010  0.18400  0.13760  1.0000
  F   F8        1.0  0.94990  0.81600  0.86240  1.0000
  C   C13       1.0  0.11170  0.18130  0.37750  1.0000
  C   C14       1.0  0.88830  0.81870  0.62250  1.0000
  C   C15       1.0  0.19920  0.24840  0.42470  1.0000
  C   C16       1.0  0.80080  0.75160  0.57530  1.0000
  C   C17       1.0  0.21540  0.33490  0.41570  1.0000
  C   C18       1.0  0.78460  0.66510  0.58430  1.0000
  C   C19       1.0  0.14670  0.36250  0.36000  1.0000
  C   C20       1.0  0.85330  0.63750  0.64000  1.0000
  C   C21       1.0  0.06130  0.30030  0.31300  1.0000
  C   C22       1.0  0.93870  0.69970  0.68700  1.0000
  C   C23       1.0  0.04580  0.21360  0.32250  1.0000
  C   C24       1.0  0.95420  0.78640  0.67750  1.0000
  I   I3        1.0  0.30783  0.21655  0.51432  1.0000
  I   I4        1.0  0.69217  0.78345  0.48568  1.0000
  F   F9        1.0  0.29880  0.39610  0.46070  1.0000
  F   F10       1.0  0.70120  0.60390  0.53930  1.0000
  F   F11       1.0  0.16310  0.44560  0.34980  1.0000
  F   F12       1.0  0.83690  0.55440  0.65020  1.0000
  F   F13       1.0  0.99140  0.32550  0.25810  1.0000
  F   F14       1.0  0.00860  0.67450  0.74190  1.0000
  F   F15       1.0  0.95850  0.15530  0.27280  1.0000
  F   F16       1.0  0.04150  0.84470  0.72720  1.0000
  C   C25       1.0  0.03510  0.93040  0.41110  1.0000
  C   C26       1.0  0.96490  0.06960  0.58890  1.0000
  C   C27       1.0  0.94680  0.86830  0.36420  1.0000
  C   C28       1.0  0.05320  0.13170  0.63580  1.0000
  C   C29       1.0  0.91330  0.78710  0.38140  1.0000
  C   C30       1.0  0.08670  0.21290  0.61860  1.0000
  C   C31       1.0  0.96910  0.76660  0.44670  1.0000
  C   C32       1.0  0.03090  0.23340  0.55330  1.0000
  C   C33       1.0  0.05710  0.82350  0.49460  1.0000
  C   C34       1.0  0.94290  0.17650  0.50540  1.0000
  C   C35       1.0  0.08660  0.90380  0.47570  1.0000
  C   C36       1.0  0.91340  0.09620  0.52430  1.0000
  I   I5        1.0  0.85557  0.89555  0.26316  1.0000
  I   I6        1.0  0.14443  0.10445  0.73684  1.0000
  F   F17       1.0  0.83020  0.72850  0.33520  1.0000
  F   F18       1.0  0.16980  0.27150  0.66480  1.0000
  F   F19       1.0  0.93850  0.68640  0.46290  1.0000
  F   F20       1.0  0.06150  0.31360  0.53710  1.0000
  F   F21       1.0  0.10990  0.80440  0.55900  1.0000
  F   F22       1.0  0.89010  0.19560  0.44100  1.0000
  F   F23       1.0  0.17360  0.95900  0.52940  1.0000
  F   F24       1.0  0.82640  0.04100  0.47060  1.0000
  C   C37       1.0  0.12500  0.78240  0.24380  1.0000
  C   C38       1.0  0.87500  0.21760  0.75620  1.0000
  C   C39       1.0  0.03290  0.73320  0.18920  1.0000
  C   C40       1.0  0.96710  0.26680  0.81080  1.0000
  C   C41       1.0  0.97440  0.66210  0.19840  1.0000
  C   C42       1.0  0.02560  0.33790  0.80160  1.0000
  C   C43       1.0  0.00380  0.63170  0.26610  1.0000
  C   C44       1.0  0.99620  0.36830  0.73390  1.0000
  C   C45       1.0  0.09500  0.67590  0.32140  1.0000
  C   C46       1.0  0.90500  0.32410  0.67860  1.0000
  C   C47       1.0  0.14940  0.74810  0.31060  1.0000
  C   C48       1.0  0.85060  0.25190  0.68940  1.0000
  I   I7        1.0  0.98138  0.76987  0.08252  1.0000
  I   I8        1.0  0.01862  0.23013  0.91748  1.0000
  F   F25       1.0  0.88520  0.61620  0.14570  1.0000
  F   F26       1.0  0.11480  0.38380  0.85430  1.0000
  F   F27       1.0  0.94650  0.56130  0.27690  1.0000
  F   F28       1.0  0.05350  0.43870  0.72310  1.0000
  F   F29       1.0  0.12610  0.64740  0.38850  1.0000
  F   F30       1.0  0.87390  0.35260  0.61150  1.0000
  F   F31       1.0  0.23710  0.78830  0.36850  1.0000
  F   F32       1.0  0.76290  0.21170  0.63150  1.0000
  C   C49       1.0  0.32070  0.96400  0.18520  1.0000
  C   C50       1.0  0.67930  0.03600  0.81480  1.0000
  C   C51       1.0  0.35790  0.05480  0.20700  1.0000
  C   C52       1.0  0.64210  0.94520  0.79300  1.0000
  C   C53       1.0  0.43040  0.09170  0.17520  1.0000
  C   C54       1.0  0.56960  0.90830  0.82480  1.0000
  C   C55       1.0  0.46710  0.04290  0.12300  1.0000
  C   C56       1.0  0.53290  0.95710  0.87700  1.0000
  C   C57       1.0  0.43240  0.95510  0.10250  1.0000
  C   C58       1.0  0.56760  0.04490  0.89750  1.0000
  C   C59       1.0  0.35990  0.91440  0.13100  1.0000
  C   C60       1.0  0.64010  0.08560  0.86900  1.0000
  I   I9        1.0  0.30903  0.14263  0.28772  1.0000
  I   I10       1.0  0.69097  0.85737  0.71228  1.0000
  F   F33       1.0  0.46820  0.18150  0.19900  1.0000
  F   F34       1.0  0.53180  0.81850  0.80100  1.0000
  F   F35       1.0  0.53580  0.07490  0.09010  1.0000
  F   F36       1.0  0.46420  0.92510  0.90990  1.0000
  F   F37       1.0  0.46920  0.89220  0.04350  1.0000
  F   F38       1.0  0.53080  0.10780  0.95650  1.0000
  F   F39       1.0  0.33420  0.82820  0.09030  1.0000
  F   F40       1.0  0.66580  0.17180  0.90970  1.0000
  C   C61       1.0  0.55390  0.02090  0.40770  1.0000
  C   C62       1.0  0.44610  0.97910  0.59230  1.0000
  C   C63       1.0  0.55460  0.95230  0.34420  1.0000
  C   C64       1.0  0.44540  0.04770  0.65580  1.0000
  C   C65       1.0  0.59980  0.97180  0.28700  1.0000
  C   C66       1.0  0.40020  0.02820  0.71300  1.0000
  C   C67       1.0  0.64510  0.05930  0.29550  1.0000
  C   C68       1.0  0.35490  0.94070  0.70450  1.0000
  C   C69       1.0  0.64240  0.12850  0.35670  1.0000
  C   C70       1.0  0.35760  0.87150  0.64330  1.0000
  C   C71       1.0  0.59690  0.10850  0.41150  1.0000
  C   C72       1.0  0.40310  0.89150  0.58850  1.0000
  I   I11       1.0  0.48259  0.82302  0.32839  1.0000
  I   I12       1.0  0.51741  0.17698  0.67161  1.0000
  F   F41       1.0  0.59780  0.90500  0.22550  1.0000
  F   F42       1.0  0.40220  0.09500  0.77450  1.0000
  F   F43       1.0  0.68820  0.07570  0.23810  1.0000
  F   F44       1.0  0.31180  0.92430  0.76190  1.0000
  F   F45       1.0  0.68720  0.20780  0.35390  1.0000
  F   F46       1.0  0.31280  0.79220  0.64610  1.0000
  F   F47       1.0  0.60220  0.18860  0.45930  1.0000
  F   F48       1.0  0.39780  0.81140  0.54070  1.0000
