data_image0
_chemical_formula_structural       Au2Tl2Au2C12Br2F8C12Br2F8C12Br2F8C12Br2F8
_chemical_formula_sum              "Au4 Tl2 C48 Br8 F32"
_cell_length_a       11.516
_cell_length_b       13.909
_cell_length_c       16.579
_cell_angle_alpha    109.171
_cell_angle_beta     96.968
_cell_angle_gamma    104.685

_space_group_name_H-M_alt    "P 1"
_space_group_IT_number       1

loop_
  _space_group_symop_operation_xyz
  'x, y, z'

loop_
  _atom_site_type_symbol
  _atom_site_label
  _atom_site_symmetry_multiplicity
  _atom_site_fract_x
  _atom_site_fract_y
  _atom_site_fract_z
  _atom_site_occupancy
  Au  Au1       1.0  0.17211  0.19973  0.39630  1.0000
  Au  Au2       1.0  0.82789  0.80027  0.60370  1.0000
  Tl  Tl1       1.0  0.22193  0.43286  0.46119  1.0000
  Tl  Tl2       1.0  0.77807  0.56714  0.53881  1.0000
  Au  Au3       1.0  0.00000  0.50000  0.50000  1.0000
  Au  Au4       1.0  0.50000  0.50000  0.50000  1.0000
  C   C1        1.0  0.26210  0.21230  0.51720  1.0000
  C   C2        1.0  0.73790  0.78770  0.48280  1.0000
  C   C3        1.0  0.23370  0.25320  0.59750  1.0000
  C   C4        1.0  0.76630  0.74680  0.40250  1.0000
  C   C5        1.0  0.28390  0.23720  0.67020  1.0000
  C   C6        1.0  0.71610  0.76280  0.32980  1.0000
  C   C7        1.0  0.36370  0.17810  0.66450  1.0000
  C   C8        1.0  0.63630  0.82190  0.33550  1.0000
  C   C9        1.0  0.39550  0.13870  0.58730  1.0000
  C   C10       1.0  0.60450  0.86130  0.41270  1.0000
  C   C11       1.0  0.34590  0.15510  0.51550  1.0000
  C   C12       1.0  0.65410  0.84490  0.48450  1.0000
  Br  Br1       1.0  0.12740  0.33852  0.61320  1.0000
  Br  Br2       1.0  0.87260  0.66148  0.38680  1.0000
  F   F1        1.0  0.25390  0.27900  0.74800  1.0000
  F   F2        1.0  0.74610  0.72100  0.25200  1.0000
  F   F3        1.0  0.40960  0.16280  0.73590  1.0000
  F   F4        1.0  0.59040  0.83720  0.26410  1.0000
  F   F5        1.0  0.47650  0.08230  0.58190  1.0000
  F   F6        1.0  0.52350  0.91770  0.41810  1.0000
  F   F7        1.0  0.38390  0.11200  0.44230  1.0000
  F   F8        1.0  0.61610  0.88800  0.55770  1.0000
  C   C13       1.0  0.08580  0.17160  0.26940  1.0000
  C   C14       1.0  0.91420  0.82840  0.73060  1.0000
  C   C15       1.0  0.98600  0.08050  0.21960  1.0000
  C   C16       1.0  0.01400  0.91950  0.78040  1.0000
  C   C17       1.0  0.93990  0.05680  0.12950  1.0000
  C   C18       1.0  0.06010  0.94320  0.87050  1.0000
  C   C19       1.0  0.99490  0.12440  0.09330  1.0000
  C   C20       1.0  0.00510  0.87560  0.90670  1.0000
  C   C21       1.0  0.09020  0.21180  0.13720  1.0000
  C   C22       1.0  0.90980  0.78820  0.86280  1.0000
  C   C23       1.0  0.13900  0.23920  0.22610  1.0000
  C   C24       1.0  0.86100  0.76080  0.77390  1.0000
  Br  Br3       1.0  0.90795  0.98846  0.26886  1.0000
  Br  Br4       1.0  0.09205  0.01154  0.73114  1.0000
  F   F9        1.0  0.84660  0.97080  0.08300  1.0000
  F   F10       1.0  0.15340  0.02920  0.91700  1.0000
  F   F11       1.0  0.94890  0.10190  0.00640  1.0000
  F   F12       1.0  0.05110  0.89810  0.99360  1.0000
  F   F13       1.0  0.14110  0.27780  0.09760  1.0000
  F   F14       1.0  0.85890  0.72220  0.90240  1.0000
  F   F15       1.0  0.23090  0.32840  0.25510  1.0000
  F   F16       1.0  0.76910  0.67160  0.74490  1.0000
  C   C25       1.0  0.09360  0.62970  0.61660  1.0000
  C   C26       1.0  0.90640  0.37030  0.38340  1.0000
  C   C27       1.0  0.07820  0.62220  0.69780  1.0000
  C   C28       1.0  0.92180  0.37780  0.30220  1.0000
  C   C29       1.0  0.15410  0.71130  0.77680  1.0000
  C   C30       1.0  0.84590  0.28870  0.22320  1.0000
  C   C31       1.0  0.23630  0.79740  0.77160  1.0000
  C   C32       1.0  0.76370  0.20260  0.22840  1.0000
  C   C33       1.0  0.24350  0.80000  0.69180  1.0000
  C   C34       1.0  0.75650  0.20000  0.30820  1.0000
  C   C35       1.0  0.17580  0.71760  0.60730  1.0000
  C   C36       1.0  0.82420  0.28240  0.39270  1.0000
  Br  Br5       1.0  0.96260  0.51047  0.70897  1.0000
  Br  Br6       1.0  0.03740  0.48953  0.29103  1.0000
  F   F17       1.0  0.14030  0.70320  0.85470  1.0000
  F   F18       1.0  0.85970  0.29680  0.14530  1.0000
  F   F19       1.0  0.29940  0.87490  0.84710  1.0000
  F   F20       1.0  0.70060  0.12510  0.15290  1.0000
  F   F21       1.0  0.32420  0.88860  0.68710  1.0000
  F   F22       1.0  0.67580  0.11140  0.31290  1.0000
  F   F23       1.0  0.19420  0.73390  0.54990  1.0000
  F   F24       1.0  0.80580  0.26610  0.45010  1.0000
  C   C37       1.0  0.49910  0.48850  0.62110  1.0000
  C   C38       1.0  0.50090  0.51150  0.37890  1.0000
  C   C39       1.0  0.56050  0.43070  0.65390  1.0000
  C   C40       1.0  0.43950  0.56930  0.34610  1.0000
  C   C41       1.0  0.55840  0.43080  0.73720  1.0000
  C   C42       1.0  0.44160  0.56920  0.26280  1.0000
  C   C43       1.0  0.49970  0.48820  0.78940  1.0000
  C   C44       1.0  0.50030  0.51180  0.21060  1.0000
  C   C45       1.0  0.43640  0.54310  0.75850  1.0000
  C   C46       1.0  0.56360  0.45690  0.24150  1.0000
  C   C47       1.0  0.43760  0.54430  0.67620  1.0000
  C   C48       1.0  0.56240  0.45570  0.32380  1.0000
  Br  Br7       1.0  0.64217  0.34599  0.58465  1.0000
  Br  Br8       1.0  0.35783  0.65401  0.41535  1.0000
  F   F25       1.0  0.62080  0.37700  0.77030  1.0000
  F   F26       1.0  0.37920  0.62300  0.22970  1.0000
  F   F27       1.0  0.50020  0.48740  0.87150  1.0000
  F   F28       1.0  0.49980  0.51260  0.12850  1.0000
  F   F29       1.0  0.36960  0.59750  0.80840  1.0000
  F   F30       1.0  0.63040  0.40250  0.19160  1.0000
  F   F31       1.0  0.37050  0.60240  0.65480  1.0000
  F   F32       1.0  0.62950  0.39760  0.34520  1.0000
