data_image0
_chemical_formula_structural       Zn4O24C12
_chemical_formula_sum              "Zn4 O24 C12"
_cell_length_a       7.606
_cell_length_b       16.812
_cell_length_c       8.963
_cell_angle_alpha    90
_cell_angle_beta     104.019
_cell_angle_gamma    90

_space_group_name_H-M_alt    "P 1"
_space_group_IT_number       1

loop_
  _space_group_symop_operation_xyz
  'x, y, z'

loop_
  _atom_site_type_symbol
  _atom_site_label
  _atom_site_symmetry_multiplicity
  _atom_site_fract_x
  _atom_site_fract_y
  _atom_site_fract_z
  _atom_site_occupancy
  Zn  Zn1       1.0  0.52407  0.16059  0.49845  1.0000
  Zn  Zn2       1.0  0.47593  0.66059  0.00155  1.0000
  Zn  Zn3       1.0  0.47593  0.83941  0.50155  1.0000
  Zn  Zn4       1.0  0.52407  0.33941  0.99845  1.0000
  O   O1        1.0  0.65130  0.93049  0.60560  1.0000
  O   O2        1.0  0.34870  0.43049  0.89440  1.0000
  O   O3        1.0  0.34870  0.06951  0.39440  1.0000
  O   O4        1.0  0.65130  0.56951  0.10560  1.0000
  O   O5        1.0  0.36550  0.24809  0.36330  1.0000
  O   O6        1.0  0.63450  0.74809  0.13670  1.0000
  O   O7        1.0  0.63450  0.75191  0.63670  1.0000
  O   O8        1.0  0.36550  0.25191  0.86330  1.0000
  O   O9        1.0  0.68590  0.25621  0.14000  1.0000
  O   O10       1.0  0.31410  0.75621  0.36000  1.0000
  O   O11       1.0  0.31410  0.74379  0.86000  1.0000
  O   O12       1.0  0.68590  0.24379  0.64000  1.0000
  O   O13       1.0  0.67560  0.17617  0.33740  1.0000
  O   O14       1.0  0.32440  0.67617  0.16260  1.0000
  O   O15       1.0  0.32440  0.82383  0.66260  1.0000
  O   O16       1.0  0.67560  0.32383  0.83740  1.0000
  O   O17       1.0  0.37330  0.32528  0.16180  1.0000
  O   O18       1.0  0.62670  0.82528  0.33820  1.0000
  O   O19       1.0  0.62670  0.67472  0.83820  1.0000
  O   O20       1.0  0.37330  0.17472  0.66180  1.0000
  O   O21       1.0  0.67030  0.06317  0.60200  1.0000
  O   O22       1.0  0.32970  0.56317  0.89800  1.0000
  O   O23       1.0  0.32970  0.93683  0.39800  1.0000
  O   O24       1.0  0.67030  0.43683  0.10200  1.0000
  C   C1        1.0  0.59380  0.99847  0.55970  1.0000
  C   C2        1.0  0.40620  0.49847  0.94030  1.0000
  C   C3        1.0  0.40620  0.00153  0.44030  1.0000
  C   C4        1.0  0.59380  0.50153  0.05970  1.0000
  C   C5        1.0  0.61620  0.23110  0.24340  1.0000
  C   C6        1.0  0.38380  0.73110  0.25660  1.0000
  C   C7        1.0  0.38380  0.76890  0.75660  1.0000
  C   C8        1.0  0.61620  0.26890  0.74340  1.0000
  C   C9        1.0  0.43590  0.27140  0.25830  1.0000
  C   C10       1.0  0.56410  0.77140  0.24170  1.0000
  C   C11       1.0  0.56410  0.72860  0.74170  1.0000
  C   C12       1.0  0.43590  0.22860  0.75830  1.0000
