data_image0
_chemical_formula_structural       Zn4O24C12
_chemical_formula_sum              "Zn4 O24 C12"
_cell_length_a       7.7002
_cell_length_b       16.4928
_cell_length_c       9.1611
_cell_angle_alpha    90
_cell_angle_beta     108.314
_cell_angle_gamma    90

_space_group_name_H-M_alt    "P 1"
_space_group_IT_number       1

loop_
  _space_group_symop_operation_xyz
  'x, y, z'

loop_
  _atom_site_type_symbol
  _atom_site_label
  _atom_site_symmetry_multiplicity
  _atom_site_fract_x
  _atom_site_fract_y
  _atom_site_fract_z
  _atom_site_occupancy
  Zn  Zn1       1.0  0.02930  0.16343  0.99248  1.0000
  Zn  Zn2       1.0  0.97070  0.66343  0.50752  1.0000
  Zn  Zn3       1.0  0.97070  0.83657  0.00752  1.0000
  Zn  Zn4       1.0  0.02930  0.33657  0.49248  1.0000
  O   O1        1.0  0.87490  0.25052  0.84550  1.0000
  O   O2        1.0  0.12510  0.75052  0.65450  1.0000
  O   O3        1.0  0.12510  0.74948  0.15450  1.0000
  O   O4        1.0  0.87490  0.24948  0.34550  1.0000
  O   O5        1.0  0.86210  0.07038  0.87270  1.0000
  O   O6        1.0  0.13790  0.57038  0.62730  1.0000
  O   O7        1.0  0.13790  0.92962  0.12730  1.0000
  O   O8        1.0  0.86210  0.42962  0.37270  1.0000
  O   O9        1.0  0.87490  0.32205  0.63900  1.0000
  O   O10       1.0  0.12510  0.82205  0.86100  1.0000
  O   O11       1.0  0.12510  0.67795  0.36100  1.0000
  O   O12       1.0  0.87490  0.17795  0.13900  1.0000
  O   O13       1.0  0.82620  0.93644  0.88940  1.0000
  O   O14       1.0  0.17380  0.43644  0.61060  1.0000
  O   O15       1.0  0.17380  0.06356  0.11060  1.0000
  O   O16       1.0  0.82620  0.56356  0.38940  1.0000
  O   O17       1.0  0.19370  0.18157  0.85280  1.0000
  O   O18       1.0  0.80630  0.68157  0.64720  1.0000
  O   O19       1.0  0.80630  0.81843  0.14720  1.0000
  O   O20       1.0  0.19370  0.31843  0.35280  1.0000
  O   O21       1.0  0.20440  0.26015  0.65690  1.0000
  O   O22       1.0  0.79560  0.76015  0.84310  1.0000
  O   O23       1.0  0.79560  0.73985  0.34310  1.0000
  O   O24       1.0  0.20440  0.23985  0.15690  1.0000
  C   C1        1.0  0.13210  0.23430  0.75260  1.0000
  C   C2        1.0  0.86790  0.73430  0.74740  1.0000
  C   C3        1.0  0.86790  0.76570  0.24740  1.0000
  C   C4        1.0  0.13210  0.26570  0.25260  1.0000
  C   C5        1.0  0.90930  0.00190  0.93100  1.0000
  C   C6        1.0  0.09070  0.50190  0.56900  1.0000
  C   C7        1.0  0.09070  0.99810  0.06900  1.0000
  C   C8        1.0  0.90930  0.49810  0.43100  1.0000
  C   C9        1.0  0.94340  0.27210  0.74640  1.0000
  C   C10       1.0  0.05660  0.77210  0.75360  1.0000
  C   C11       1.0  0.05660  0.72790  0.25360  1.0000
  C   C12       1.0  0.94340  0.22790  0.24640  1.0000
