data_image0
_chemical_formula_structural       Cu2C2N4C2N2C2N2
_chemical_formula_sum              "Cu2 C6 N8"
_cell_length_a       15.947
_cell_length_b       8.5931
_cell_length_c       12.7978
_cell_angle_alpha    90
_cell_angle_beta     111.133
_cell_angle_gamma    90

_space_group_name_H-M_alt    "P 1"
_space_group_IT_number       1

loop_
  _space_group_symop_operation_xyz
  'x, y, z'

loop_
  _atom_site_type_symbol
  _atom_site_label
  _atom_site_symmetry_multiplicity
  _atom_site_fract_x
  _atom_site_fract_y
  _atom_site_fract_z
  _atom_site_occupancy
  Cu  Cu1       1.0  0.01014  0.84040  0.40832  1.0000
  Cu  Cu2       1.0  0.98986  0.34040  0.59168  1.0000
  C   C1        1.0  0.01260  0.64080  0.46710  1.0000
  C   C2        1.0  0.98740  0.14080  0.53290  1.0000
  N   N1        1.0  0.01490  0.93520  0.27280  1.0000
  N   N2        1.0  0.98510  0.43520  0.72720  1.0000
  N   N3        1.0  0.98690  0.02590  0.48860  1.0000
  N   N4        1.0  0.01310  0.52590  0.51140  1.0000
  C   C3        1.0  0.01230  0.02020  0.19820  1.0000
  C   C4        1.0  0.98770  0.52020  0.80180  1.0000
  N   N5        1.0  0.00740  0.10270  0.11010  1.0000
  N   N6        1.0  0.99260  0.60270  0.88990  1.0000
  C   C5        1.0  0.00160  0.25190  0.12170  1.0000
  C   C6        1.0  0.99840  0.75190  0.87830  1.0000
  N   N7        1.0  0.99260  0.38120  0.11570  1.0000
  N   N8        1.0  0.00740  0.88120  0.88430  1.0000
