data_image0
_chemical_formula_structural       Cu2C2N4C2N2C2N2
_chemical_formula_sum              "Cu2 C6 N8"
_cell_length_a       15.964
_cell_length_b       8.608
_cell_length_c       12.8406
_cell_angle_alpha    90
_cell_angle_beta     111.006
_cell_angle_gamma    90

_space_group_name_H-M_alt    "P 1"
_space_group_IT_number       1

loop_
  _space_group_symop_operation_xyz
  'x, y, z'

loop_
  _atom_site_type_symbol
  _atom_site_label
  _atom_site_symmetry_multiplicity
  _atom_site_fract_x
  _atom_site_fract_y
  _atom_site_fract_z
  _atom_site_occupancy
  Cu  Cu1       1.0  0.00997  0.84175  0.40908  1.0000
  Cu  Cu2       1.0  0.99003  0.34175  0.59092  1.0000
  C   C1        1.0  0.01170  0.64300  0.46710  1.0000
  C   C2        1.0  0.98830  0.14300  0.53290  1.0000
  N   N1        1.0  0.01490  0.93680  0.27320  1.0000
  N   N2        1.0  0.98510  0.43680  0.72680  1.0000
  N   N3        1.0  0.98750  0.02690  0.49000  1.0000
  N   N4        1.0  0.01250  0.52690  0.51000  1.0000
  C   C3        1.0  0.01190  0.02200  0.19870  1.0000
  C   C4        1.0  0.98810  0.52200  0.80130  1.0000
  N   N5        1.0  0.00660  0.10230  0.11110  1.0000
  N   N6        1.0  0.99340  0.60230  0.88890  1.0000
  C   C5        1.0  0.00150  0.25110  0.12090  1.0000
  C   C6        1.0  0.99850  0.75110  0.87910  1.0000
  N   N7        1.0  0.99270  0.37880  0.11330  1.0000
  N   N8        1.0  0.00730  0.87880  0.88670  1.0000
