data_image0
_chemical_formula_structural       Cu2C2N4C2N2C2N2
_chemical_formula_sum              "Cu2 C6 N8"
_cell_length_a       15.9296
_cell_length_b       8.569
_cell_length_c       12.7261
_cell_angle_alpha    90
_cell_angle_beta     111.355
_cell_angle_gamma    90

_space_group_name_H-M_alt    "P 1"
_space_group_IT_number       1

loop_
  _space_group_symop_operation_xyz
  'x, y, z'

loop_
  _atom_site_type_symbol
  _atom_site_label
  _atom_site_symmetry_multiplicity
  _atom_site_fract_x
  _atom_site_fract_y
  _atom_site_fract_z
  _atom_site_occupancy
  Cu  Cu1       1.0  0.01012  0.83789  0.40684  1.0000
  Cu  Cu2       1.0  0.98988  0.33789  0.59316  1.0000
  C   C1        1.0  0.01350  0.63660  0.46680  1.0000
  C   C2        1.0  0.98650  0.13660  0.53320  1.0000
  N   N1        1.0  0.01530  0.93290  0.27190  1.0000
  N   N2        1.0  0.98470  0.43290  0.72810  1.0000
  N   N3        1.0  0.98650  0.02290  0.48810  1.0000
  N   N4        1.0  0.01350  0.52290  0.51190  1.0000
  C   C3        1.0  0.01290  0.01890  0.19740  1.0000
  C   C4        1.0  0.98710  0.51890  0.80260  1.0000
  N   N5        1.0  0.00770  0.10340  0.10930  1.0000
  N   N6        1.0  0.99230  0.60340  0.89070  1.0000
  C   C5        1.0  0.00190  0.25460  0.12080  1.0000
  C   C6        1.0  0.99810  0.75460  0.87920  1.0000
  N   N7        1.0  0.99340  0.38570  0.11860  1.0000
  N   N8        1.0  0.00660  0.88570  0.88140  1.0000
