data_image0
_chemical_formula_structural       Cu2N6C4N2C2
_chemical_formula_sum              "Cu2 N8 C6"
_cell_length_a       16
_cell_length_b       8.631
_cell_length_c       12.9
_cell_angle_alpha    90
_cell_angle_beta     110.97
_cell_angle_gamma    90

_space_group_name_H-M_alt    "P 1"
_space_group_IT_number       1

loop_
  _space_group_symop_operation_xyz
  'x, y, z'

loop_
  _atom_site_type_symbol
  _atom_site_label
  _atom_site_symmetry_multiplicity
  _atom_site_fract_x
  _atom_site_fract_y
  _atom_site_fract_z
  _atom_site_occupancy
  Cu  Cu1       1.0  0.00970  0.72088  0.40963  1.0000
  Cu  Cu2       1.0  0.99030  0.22088  0.59037  1.0000
  N   N1        1.0  0.00562  0.46796  0.11380  1.0000
  N   N2        1.0  0.99438  0.96796  0.88620  1.0000
  N   N3        1.0  0.99343  0.19599  0.10984  1.0000
  N   N4        1.0  0.00657  0.69599  0.89016  1.0000
  N   N5        1.0  0.01638  0.63408  0.27733  1.0000
  N   N6        1.0  0.98362  0.13408  0.72267  1.0000
  C   C1        1.0  0.00144  0.32384  0.12247  1.0000
  C   C2        1.0  0.99856  0.82384  0.87753  1.0000
  C   C3        1.0  0.01181  0.55029  0.20193  1.0000
  C   C4        1.0  0.98819  0.05029  0.79807  1.0000
  N   N7        1.0  0.98682  0.53987  0.48801  1.0000
  N   N8        1.0  0.01318  0.03987  0.51199  1.0000
  C   C5        1.0  0.98696  0.42145  0.53100  1.0000
  C   C6        1.0  0.01304  0.92145  0.46900  1.0000
