data_image0
_chemical_formula_structural       Cu2C2N4C2N2C2N2
_chemical_formula_sum              "Cu2 C6 N8"
_cell_length_a       15.975
_cell_length_b       8.6198
_cell_length_c       12.885
_cell_angle_alpha    90
_cell_angle_beta     110.882
_cell_angle_gamma    90

_space_group_name_H-M_alt    "P 1"
_space_group_IT_number       1

loop_
  _space_group_symop_operation_xyz
  'x, y, z'

loop_
  _atom_site_type_symbol
  _atom_site_label
  _atom_site_symmetry_multiplicity
  _atom_site_fract_x
  _atom_site_fract_y
  _atom_site_fract_z
  _atom_site_occupancy
  Cu  Cu1       1.0  0.00981  0.84322  0.40983  1.0000
  Cu  Cu2       1.0  0.99019  0.34322  0.59017  1.0000
  C   C1        1.0  0.01210  0.64460  0.46710  1.0000
  C   C2        1.0  0.98790  0.14460  0.53290  1.0000
  N   N1        1.0  0.01450  0.93790  0.27420  1.0000
  N   N2        1.0  0.98550  0.43790  0.72580  1.0000
  N   N3        1.0  0.98790  0.02940  0.49030  1.0000
  N   N4        1.0  0.01210  0.52940  0.50970  1.0000
  C   C3        1.0  0.01090  0.02230  0.19930  1.0000
  C   C4        1.0  0.98910  0.52230  0.80070  1.0000
  N   N5        1.0  0.00670  0.09990  0.11220  1.0000
  N   N6        1.0  0.99330  0.59990  0.88780  1.0000
  C   C5        1.0  0.00040  0.25000  0.12060  1.0000
  C   C6        1.0  0.99960  0.75000  0.87940  1.0000
  N   N7        1.0  0.99270  0.37610  0.11130  1.0000
  N   N8        1.0  0.00730  0.87610  0.88870  1.0000
