data_image0
_chemical_formula_structural       Na4O24N16C16
_chemical_formula_sum              "Na4 O24 N16 C16"
_cell_length_a       8.8722
_cell_length_b       6.312
_cell_length_c       21.636
_cell_angle_alpha    90
_cell_angle_beta     99.006
_cell_angle_gamma    90

_space_group_name_H-M_alt    "P 1"
_space_group_IT_number       1

loop_
  _space_group_symop_operation_xyz
  'x, y, z'

loop_
  _atom_site_type_symbol
  _atom_site_label
  _atom_site_symmetry_multiplicity
  _atom_site_fract_x
  _atom_site_fract_y
  _atom_site_fract_z
  _atom_site_occupancy
  Na  Na1       1.0  0.20166  0.24409  0.42965  1.0000
  Na  Na2       1.0  0.29834  0.74409  0.07035  1.0000
  Na  Na3       1.0  0.79834  0.75591  0.57035  1.0000
  Na  Na4       1.0  0.70166  0.25591  0.92965  1.0000
  O   O1        1.0  0.88495  0.29590  0.40145  1.0000
  O   O2        1.0  0.61505  0.79590  0.09855  1.0000
  O   O3        1.0  0.11505  0.70410  0.59855  1.0000
  O   O4        1.0  0.38495  0.20410  0.90145  1.0000
  O   O5        1.0  0.98896  0.25950  0.49738  1.0000
  O   O6        1.0  0.51104  0.75950  0.00262  1.0000
  O   O7        1.0  0.01104  0.74050  0.50262  1.0000
  O   O8        1.0  0.48896  0.24050  0.99738  1.0000
  O   O9        1.0  0.30125  0.21740  0.55060  1.0000
  O   O10       1.0  0.19875  0.71740  0.94940  1.0000
  O   O11       1.0  0.69875  0.78260  0.44940  1.0000
  O   O12       1.0  0.80125  0.28260  0.05060  1.0000
  O   O13       1.0  0.49633  0.21460  0.62508  1.0000
  O   O14       1.0  0.00367  0.71460  0.87492  1.0000
  O   O15       1.0  0.50367  0.78540  0.37492  1.0000
  O   O16       1.0  0.99633  0.28540  0.12508  1.0000
  O   O17       1.0  0.83795  0.43350  0.62264  1.0000
  O   O18       1.0  0.66205  0.93350  0.87736  1.0000
  O   O19       1.0  0.16205  0.56650  0.37736  1.0000
  O   O20       1.0  0.33795  0.06650  0.12264  1.0000
  O   O21       1.0  0.84916  0.08068  0.62076  1.0000
  O   O22       1.0  0.65084  0.58068  0.87924  1.0000
  O   O23       1.0  0.15084  0.91932  0.37924  1.0000
  O   O24       1.0  0.34916  0.41932  0.12076  1.0000
  N   N1        1.0  0.48293  0.25780  0.46314  1.0000
  N   N2        1.0  0.01707  0.75780  0.03686  1.0000
  N   N3        1.0  0.51707  0.74220  0.53686  1.0000
  N   N4        1.0  0.98293  0.24220  0.96314  1.0000
  N   N5        1.0  0.60180  0.27500  0.43246  1.0000
  N   N6        1.0  0.89820  0.77500  0.06754  1.0000
  N   N7        1.0  0.39820  0.72500  0.56754  1.0000
  N   N8        1.0  0.10180  0.22500  0.93246  1.0000
  N   N9        1.0  0.87602  0.27800  0.45680  1.0000
  N   N10       1.0  0.62398  0.77800  0.04320  1.0000
  N   N11       1.0  0.12398  0.72200  0.54320  1.0000
  N   N12       1.0  0.37602  0.22200  0.95680  1.0000
  N   N13       1.0  0.44047  0.22540  0.56974  1.0000
  N   N14       1.0  0.05953  0.72540  0.93026  1.0000
  N   N15       1.0  0.55953  0.77460  0.43026  1.0000
  N   N16       1.0  0.94047  0.27460  0.06974  1.0000
  C   C1        1.0  0.72899  0.27360  0.47616  1.0000
  C   C2        1.0  0.77101  0.77360  0.02384  1.0000
  C   C3        1.0  0.27101  0.72640  0.52384  1.0000
  C   C4        1.0  0.22899  0.22640  0.97616  1.0000
  C   C5        1.0  0.69893  0.25690  0.53686  1.0000
  C   C6        1.0  0.80107  0.75690  0.96314  1.0000
  C   C7        1.0  0.30107  0.74310  0.46314  1.0000
  C   C8        1.0  0.19893  0.24310  0.03686  1.0000
  C   C9        1.0  0.54094  0.24750  0.52467  1.0000
  C   C10       1.0  0.95906  0.74750  0.97533  1.0000
  C   C11       1.0  0.45906  0.75250  0.47533  1.0000
  C   C12       1.0  0.04094  0.25250  0.02467  1.0000
  C   C13       1.0  0.80452  0.25790  0.59877  1.0000
  C   C14       1.0  0.69548  0.75790  0.90123  1.0000
  C   C15       1.0  0.19548  0.74210  0.40123  1.0000
  C   C16       1.0  0.30452  0.24210  0.09877  1.0000
