data_image0
_chemical_formula_structural       Co8O8H8O8H8O28C12H4C8H4C4H4C16H4C12H4C4H4C8H4
_chemical_formula_sum              "Co8 O44 H44 C64"
_cell_length_a       13.5497
_cell_length_b       10.8567
_cell_length_c       14.6263
_cell_angle_alpha    90
_cell_angle_beta     109.784
_cell_angle_gamma    90

_space_group_name_H-M_alt    "P 1"
_space_group_IT_number       1

loop_
  _space_group_symop_operation_xyz
  'x, y, z'

loop_
  _atom_site_type_symbol
  _atom_site_label
  _atom_site_symmetry_multiplicity
  _atom_site_fract_x
  _atom_site_fract_y
  _atom_site_fract_z
  _atom_site_occupancy
  Co  Co1       1.0  0.40360  0.91509  0.45713  1.0000
  Co  Co2       1.0  0.59640  0.41509  0.04287  1.0000
  Co  Co3       1.0  0.59640  0.08491  0.54287  1.0000
  Co  Co4       1.0  0.40360  0.58491  0.95713  1.0000
  Co  Co5       1.0  0.50478  0.02144  0.29475  1.0000
  Co  Co6       1.0  0.49522  0.52144  0.20525  1.0000
  Co  Co7       1.0  0.49522  0.97856  0.70525  1.0000
  Co  Co8       1.0  0.50478  0.47856  0.79475  1.0000
  O   O1        1.0  0.29680  0.03794  0.36946  1.0000
  O   O2        1.0  0.70320  0.53794  0.13054  1.0000
  O   O3        1.0  0.70320  0.96206  0.63054  1.0000
  O   O4        1.0  0.29680  0.46206  0.86946  1.0000
  O   O5        1.0  0.49590  0.73270  0.53950  1.0000
  O   O6        1.0  0.50410  0.23270  0.96050  1.0000
  O   O7        1.0  0.50410  0.26730  0.46050  1.0000
  O   O8        1.0  0.49590  0.76730  0.03950  1.0000
  H   H1        1.0  0.49830  0.66630  0.57090  1.0000
  H   H2        1.0  0.50170  0.16630  0.92910  1.0000
  H   H3        1.0  0.50170  0.33370  0.42910  1.0000
  H   H4        1.0  0.49830  0.83370  0.07090  1.0000
  H   H5        1.0  0.55150  0.77400  0.56630  1.0000
  H   H6        1.0  0.44850  0.27400  0.93370  1.0000
  H   H7        1.0  0.44850  0.22600  0.43370  1.0000
  H   H8        1.0  0.55150  0.72600  0.06630  1.0000
  O   O9        1.0  0.39120  0.14730  0.29933  1.0000
  O   O10       1.0  0.60880  0.64730  0.20067  1.0000
  O   O11       1.0  0.60880  0.85270  0.70067  1.0000
  O   O12       1.0  0.39120  0.35270  0.79933  1.0000
  O   O13       1.0  0.48142  0.10694  0.15552  1.0000
  O   O14       1.0  0.51858  0.60694  0.34448  1.0000
  O   O15       1.0  0.51858  0.89306  0.84448  1.0000
  O   O16       1.0  0.48142  0.39306  0.65552  1.0000
  H   H9        1.0  0.48110  0.05150  0.11440  1.0000
  H   H10       1.0  0.51890  0.55150  0.38560  1.0000
  H   H11       1.0  0.51890  0.94850  0.88560  1.0000
  H   H12       1.0  0.48110  0.44850  0.61440  1.0000
  H   H13       1.0  0.53090  0.15750  0.16060  1.0000
  H   H14       1.0  0.46910  0.65750  0.33940  1.0000
  H   H15       1.0  0.46910  0.84250  0.83940  1.0000
  H   H16       1.0  0.53090  0.34250  0.66060  1.0000
  O   O17       1.0  0.37994  0.42022  0.23512  1.0000
  O   O18       1.0  0.62006  0.92022  0.26488  1.0000
  O   O19       1.0  0.62006  0.57978  0.76488  1.0000
  O   O20       1.0  0.37994  0.07978  0.73512  1.0000
  O   O21       1.0  0.31740  0.28750  0.11241  1.0000
  O   O22       1.0  0.68260  0.78750  0.38759  1.0000
  O   O23       1.0  0.68260  0.71250  0.88759  1.0000
  O   O24       1.0  0.31740  0.21250  0.61241  1.0000
  O   O25       1.0  0.63307  0.28409  0.15489  1.0000
  O   O26       1.0  0.36693  0.78409  0.34511  1.0000
  O   O27       1.0  0.36693  0.71591  0.84511  1.0000
  O   O28       1.0  0.63307  0.21591  0.65489  1.0000
  O   O29       1.0  0.62777  0.40562  0.27721  1.0000
  O   O30       1.0  0.37223  0.90562  0.22279  1.0000
  O   O31       1.0  0.37223  0.59438  0.72279  1.0000
  O   O32       1.0  0.62777  0.09438  0.77721  1.0000
  O   O33       1.0  0.61649  0.16122  0.34814  1.0000
  O   O34       1.0  0.38351  0.66122  0.15186  1.0000
  O   O35       1.0  0.38351  0.83878  0.65186  1.0000
  O   O36       1.0  0.61649  0.33878  0.84814  1.0000
  O   O37       1.0  0.71499  0.15399  0.50453  1.0000
  O   O38       1.0  0.28501  0.65399  0.99547  1.0000
  O   O39       1.0  0.28501  0.84601  0.49547  1.0000
  O   O40       1.0  0.71499  0.34601  0.00453  1.0000
  O   O41       1.0  0.53840  0.95638  0.43331  1.0000
  O   O42       1.0  0.46160  0.45638  0.06669  1.0000
  O   O43       1.0  0.46160  0.04362  0.56669  1.0000
  O   O44       1.0  0.53840  0.54362  0.93331  1.0000
  C   C1        1.0  0.31033  0.12697  0.32111  1.0000
  C   C2        1.0  0.68967  0.62697  0.17889  1.0000
  C   C3        1.0  0.68967  0.87303  0.67889  1.0000
  C   C4        1.0  0.31033  0.37303  0.82111  1.0000
  C   C5        1.0  0.22212  0.21774  0.28523  1.0000
  C   C6        1.0  0.77788  0.71774  0.21477  1.0000
  C   C7        1.0  0.77788  0.78226  0.71477  1.0000
  C   C8        1.0  0.22212  0.28226  0.78523  1.0000
  C   C9        1.0  0.13632  0.20416  0.31635  1.0000
  C   C10       1.0  0.86368  0.70416  0.18365  1.0000
  C   C11       1.0  0.86368  0.79584  0.68365  1.0000
  C   C12       1.0  0.13632  0.29584  0.81635  1.0000
  H   H17       1.0  0.13550  0.13860  0.35700  1.0000
  H   H18       1.0  0.86450  0.63860  0.14300  1.0000
  H   H19       1.0  0.86450  0.86140  0.64300  1.0000
  H   H20       1.0  0.13550  0.36140  0.85700  1.0000
  C   C13       1.0  0.05165  0.28536  0.28874  1.0000
  C   C14       1.0  0.94835  0.78536  0.21126  1.0000
  C   C15       1.0  0.94835  0.71464  0.71126  1.0000
  C   C16       1.0  0.05165  0.21464  0.78874  1.0000
  C   C17       1.0  0.05525  0.38263  0.22808  1.0000
  C   C18       1.0  0.94475  0.88263  0.27192  1.0000
  C   C19       1.0  0.94475  0.61737  0.77192  1.0000
  C   C20       1.0  0.05525  0.11737  0.72808  1.0000
  H   H21       1.0  0.00000  0.43850  0.20870  1.0000
  H   H22       1.0  0.00000  0.93850  0.29130  1.0000
  H   H23       1.0  0.00000  0.56150  0.79130  1.0000
  H   H24       1.0  0.00000  0.06150  0.70870  1.0000
  C   C21       1.0  0.13960  0.39770  0.19614  1.0000
  C   C22       1.0  0.86040  0.89770  0.30386  1.0000
  C   C23       1.0  0.86040  0.60230  0.80386  1.0000
  C   C24       1.0  0.13960  0.10230  0.69614  1.0000
  H   H25       1.0  0.14000  0.46340  0.15540  1.0000
  H   H26       1.0  0.86000  0.96340  0.34460  1.0000
  H   H27       1.0  0.86000  0.53660  0.84460  1.0000
  H   H28       1.0  0.14000  0.03660  0.65540  1.0000
  C   C25       1.0  0.22458  0.31568  0.22406  1.0000
  C   C26       1.0  0.77542  0.81568  0.27594  1.0000
  C   C27       1.0  0.77542  0.68432  0.77594  1.0000
  C   C28       1.0  0.22458  0.18432  0.72406  1.0000
  C   C29       1.0  0.31566  0.34098  0.18794  1.0000
  C   C30       1.0  0.68434  0.84098  0.31206  1.0000
  C   C31       1.0  0.68434  0.65902  0.81206  1.0000
  C   C32       1.0  0.31566  0.15902  0.68794  1.0000
  C   C33       1.0  0.96249  0.26643  0.32567  1.0000
  C   C34       1.0  0.03751  0.76643  0.17433  1.0000
  C   C35       1.0  0.03751  0.73357  0.67433  1.0000
  C   C36       1.0  0.96249  0.23357  0.82567  1.0000
  C   C37       1.0  0.86047  0.30092  0.26957  1.0000
  C   C38       1.0  0.13953  0.80092  0.23043  1.0000
  C   C39       1.0  0.13953  0.69908  0.73043  1.0000
  C   C40       1.0  0.86047  0.19908  0.76957  1.0000
  H   H29       1.0  0.84840  0.33940  0.21000  1.0000
  H   H30       1.0  0.15160  0.83940  0.29000  1.0000
  H   H31       1.0  0.15160  0.66060  0.79000  1.0000
  H   H32       1.0  0.84840  0.16060  0.71000  1.0000
  C   C41       1.0  0.77705  0.27824  0.30199  1.0000
  C   C42       1.0  0.22295  0.77824  0.19801  1.0000
  C   C43       1.0  0.22295  0.72176  0.69801  1.0000
  C   C44       1.0  0.77705  0.22176  0.80199  1.0000
  C   C45       1.0  0.79318  0.21686  0.39036  1.0000
  C   C46       1.0  0.20682  0.71686  0.10964  1.0000
  C   C47       1.0  0.20682  0.78314  0.60964  1.0000
  C   C48       1.0  0.79318  0.28314  0.89036  1.0000
  C   C49       1.0  0.89514  0.18574  0.44722  1.0000
  C   C50       1.0  0.10486  0.68574  0.05278  1.0000
  C   C51       1.0  0.10486  0.81426  0.55278  1.0000
  C   C52       1.0  0.89514  0.31426  0.94722  1.0000
  H   H33       1.0  0.90730  0.14800  0.50710  1.0000
  H   H34       1.0  0.09270  0.64800  0.99290  1.0000
  H   H35       1.0  0.09270  0.85200  0.49290  1.0000
  H   H36       1.0  0.90730  0.35200  0.00710  1.0000
  C   C53       1.0  0.97901  0.21036  0.41574  1.0000
  C   C54       1.0  0.02099  0.71036  0.08426  1.0000
  C   C55       1.0  0.02099  0.78964  0.58426  1.0000
  C   C56       1.0  0.97901  0.28964  0.91574  1.0000
  H   H37       1.0  0.04670  0.18940  0.45490  1.0000
  H   H38       1.0  0.95330  0.68940  0.04510  1.0000
  H   H39       1.0  0.95330  0.81060  0.54510  1.0000
  H   H40       1.0  0.04670  0.31060  0.95490  1.0000
  C   C57       1.0  0.66919  0.32407  0.24038  1.0000
  C   C58       1.0  0.33081  0.82407  0.25962  1.0000
  C   C59       1.0  0.33081  0.67593  0.75962  1.0000
  C   C60       1.0  0.66919  0.17593  0.74038  1.0000
  C   C61       1.0  0.70095  0.17488  0.41692  1.0000
  C   C62       1.0  0.29905  0.67488  0.08308  1.0000
  C   C63       1.0  0.29905  0.82512  0.58308  1.0000
  C   C64       1.0  0.70095  0.32512  0.91692  1.0000
  H   H41       1.0  0.58520  0.89770  0.44180  1.0000
  H   H42       1.0  0.41480  0.39770  0.05820  1.0000
  H   H43       1.0  0.41480  0.10230  0.55820  1.0000
  H   H44       1.0  0.58520  0.60230  0.94180  1.0000
