data_image0
_chemical_formula_structural       Mn4P4H4O24C4H8
_chemical_formula_sum              "Mn4 P4 H12 O24 C4"
_cell_length_a       7.8371
_cell_length_b       8.7545
_cell_length_c       10.1003
_cell_angle_alpha    90
_cell_angle_beta     100.605
_cell_angle_gamma    90

_space_group_name_H-M_alt    "P 1"
_space_group_IT_number       1

loop_
  _space_group_symop_operation_xyz
  'x, y, z'

loop_
  _atom_site_type_symbol
  _atom_site_label
  _atom_site_symmetry_multiplicity
  _atom_site_fract_x
  _atom_site_fract_y
  _atom_site_fract_z
  _atom_site_occupancy
  Mn  Mn1       1.0  0.33276  0.49478  0.17857  1.0000
  Mn  Mn2       1.0  0.66724  0.99478  0.32143  1.0000
  Mn  Mn3       1.0  0.66724  0.50522  0.82143  1.0000
  Mn  Mn4       1.0  0.33276  0.00522  0.67857  1.0000
  P   P1        1.0  0.65587  0.71053  0.10274  1.0000
  P   P2        1.0  0.34413  0.21053  0.39726  1.0000
  P   P3        1.0  0.34413  0.28947  0.89726  1.0000
  P   P4        1.0  0.65587  0.78947  0.60274  1.0000
  H   H1        1.0  0.78220  0.69960  0.12720  1.0000
  H   H2        1.0  0.21780  0.19960  0.37280  1.0000
  H   H3        1.0  0.21780  0.30040  0.87280  1.0000
  H   H4        1.0  0.78220  0.80040  0.62720  1.0000
  O   O1        1.0  0.58000  0.59330  0.18678  1.0000
  O   O2        1.0  0.42000  0.09330  0.31322  1.0000
  O   O3        1.0  0.42000  0.40670  0.81322  1.0000
  O   O4        1.0  0.58000  0.90670  0.68678  1.0000
  O   O5        1.0  0.61620  0.87540  0.13592  1.0000
  O   O6        1.0  0.38380  0.37540  0.36408  1.0000
  O   O7        1.0  0.38380  0.12460  0.86408  1.0000
  O   O8        1.0  0.61620  0.62460  0.63592  1.0000
  O   O9        1.0  0.61100  0.68330  0.95175  1.0000
  O   O10       1.0  0.38900  0.18330  0.54825  1.0000
  O   O11       1.0  0.38900  0.31670  0.04825  1.0000
  O   O12       1.0  0.61100  0.81670  0.45175  1.0000
  O   O13       1.0  0.17500  0.62610  0.00890  1.0000
  O   O14       1.0  0.82500  0.12610  0.49110  1.0000
  O   O15       1.0  0.82500  0.37390  0.99110  1.0000
  O   O16       1.0  0.17500  0.87390  0.50890  1.0000
  O   O17       1.0  0.94110  0.59880  0.84870  1.0000
  O   O18       1.0  0.05890  0.09880  0.65130  1.0000
  O   O19       1.0  0.05890  0.40120  0.15130  1.0000
  O   O20       1.0  0.94110  0.90120  0.34870  1.0000
  O   O21       1.0  0.29930  0.71100  0.29880  1.0000
  O   O22       1.0  0.70070  0.21100  0.20120  1.0000
  O   O23       1.0  0.70070  0.28900  0.70120  1.0000
  O   O24       1.0  0.29930  0.78900  0.79880  1.0000
  C   C1        1.0  0.03310  0.56500  0.95820  1.0000
  C   C2        1.0  0.96690  0.06500  0.54180  1.0000
  C   C3        1.0  0.96690  0.43500  0.04180  1.0000
  C   C4        1.0  0.03310  0.93500  0.45820  1.0000
  H   H5        1.0  0.40300  0.75100  0.34900  1.0000
  H   H6        1.0  0.59700  0.25100  0.15100  1.0000
  H   H7        1.0  0.59700  0.24900  0.65100  1.0000
  H   H8        1.0  0.40300  0.74900  0.84900  1.0000
  H   H9        1.0  0.24100  0.76000  0.36100  1.0000
  H   H10       1.0  0.75900  0.26000  0.13900  1.0000
  H   H11       1.0  0.75900  0.24000  0.63900  1.0000
  H   H12       1.0  0.24100  0.74000  0.86100  1.0000
