data_image0
_chemical_formula_structural       Zn2O20N2H2N2H2C6H2C4H2C4H2C8H2C2H2C4H2C2H2C6H2C4H2C4H2C4
_chemical_formula_sum              "Zn2 O20 N4 H24 C48"
_cell_length_a       10.143
_cell_length_b       10.328
_cell_length_c       18.048
_cell_angle_alpha    102.71
_cell_angle_beta     101.23
_cell_angle_gamma    90.79

_space_group_name_H-M_alt    "P 1"
_space_group_IT_number       1

loop_
  _space_group_symop_operation_xyz
  'x, y, z'

loop_
  _atom_site_type_symbol
  _atom_site_label
  _atom_site_symmetry_multiplicity
  _atom_site_fract_x
  _atom_site_fract_y
  _atom_site_fract_z
  _atom_site_occupancy
  Zn  Zn1       1.0  0.05003  0.04491  0.31580  1.0000
  Zn  Zn2       1.0  0.94997  0.95509  0.68420  1.0000
  O   O1        1.0  0.11003  0.23923  0.40034  1.0000
  O   O2        1.0  0.88997  0.76077  0.59966  1.0000
  O   O3        1.0  0.04963  0.29640  0.28989  1.0000
  O   O4        1.0  0.95037  0.70360  0.71011  1.0000
  O   O5        1.0  0.02314  0.78753  0.30066  1.0000
  O   O6        1.0  0.97686  0.21247  0.69934  1.0000
  O   O7        1.0  0.09418  0.93467  0.40991  1.0000
  O   O8        1.0  0.90582  0.06533  0.59009  1.0000
  O   O9        1.0  0.38417  0.51325  0.60856  1.0000
  O   O10       1.0  0.61583  0.48675  0.39144  1.0000
  O   O11       1.0  0.61085  0.72366  0.99844  1.0000
  O   O12       1.0  0.38915  0.27634  0.00156  1.0000
  O   O13       1.0  0.87508  0.98111  0.20940  1.0000
  O   O14       1.0  0.12492  0.01889  0.79060  1.0000
  O   O15       1.0  0.81710  0.06597  0.32124  1.0000
  O   O16       1.0  0.18290  0.93403  0.67876  1.0000
  O   O17       1.0  0.33066  0.03550  0.33855  1.0000
  O   O18       1.0  0.66934  0.96450  0.66145  1.0000
  O   O19       1.0  0.18181  0.99707  0.23067  1.0000
  O   O20       1.0  0.81819  0.00293  0.76933  1.0000
  N   N1        1.0  0.23809  0.66693  0.60634  1.0000
  N   N2        1.0  0.76191  0.33307  0.39366  1.0000
  H   H1        1.0  0.20330  0.73130  0.63360  1.0000
  H   H2        1.0  0.79670  0.26870  0.36640  1.0000
  N   N3        1.0  0.43744  0.84676  0.01670  1.0000
  N   N4        1.0  0.56256  0.15324  0.98330  1.0000
  H   H3        1.0  0.36050  0.86760  0.99420  1.0000
  H   H4        1.0  0.63950  0.13240  0.00580  1.0000
  C   C1        1.0  0.08871  0.32822  0.36218  1.0000
  C   C2        1.0  0.91129  0.67178  0.63782  1.0000
  C   C3        1.0  0.11192  0.46955  0.40559  1.0000
  C   C4        1.0  0.88808  0.53045  0.59441  1.0000
  C   C5        1.0  0.16091  0.50023  0.48385  1.0000
  C   C6        1.0  0.83909  0.49977  0.51615  1.0000
  H   H5        1.0  0.17700  0.43230  0.51020  1.0000
  H   H6        1.0  0.82300  0.56770  0.48980  1.0000
  C   C7        1.0  0.18768  0.63587  0.52566  1.0000
  C   C8        1.0  0.81232  0.36413  0.47434  1.0000
  C   C9        1.0  0.15441  0.73652  0.49011  1.0000
  C   C10       1.0  0.84559  0.26348  0.50989  1.0000
  H   H7        1.0  0.16680  0.82440  0.51800  1.0000
  H   H8        1.0  0.83320  0.17560  0.48200  1.0000
  C   C11       1.0  0.10094  0.70536  0.41045  1.0000
  C   C12       1.0  0.89906  0.29464  0.58955  1.0000
  C   C13       1.0  0.08048  0.57185  0.36839  1.0000
  C   C14       1.0  0.91952  0.42815  0.63161  1.0000
  H   H9        1.0  0.04560  0.55260  0.31530  1.0000
  H   H10       1.0  0.95440  0.44740  0.68470  1.0000
  C   C15       1.0  0.06843  0.81557  0.36970  1.0000
  C   C16       1.0  0.93157  0.18443  0.63030  1.0000
  C   C17       1.0  0.33330  0.60652  0.64369  1.0000
  C   C18       1.0  0.66670  0.39348  0.35631  1.0000
  C   C19       1.0  0.37605  0.65864  0.72585  1.0000
  C   C20       1.0  0.62395  0.34136  0.27415  1.0000
  C   C21       1.0  0.50886  0.67536  0.75804  1.0000
  C   C22       1.0  0.49114  0.32464  0.24196  1.0000
  H   H11       1.0  0.57240  0.66140  0.72670  1.0000
  H   H12       1.0  0.42760  0.33860  0.27330  1.0000
  C   C23       1.0  0.55038  0.71398  0.83924  1.0000
  C   C24       1.0  0.44962  0.28602  0.16076  1.0000
  H   H13       1.0  0.64190  0.72640  0.86100  1.0000
  H   H14       1.0  0.35810  0.27360  0.13900  1.0000
  C   C25       1.0  0.45786  0.73396  0.88751  1.0000
  C   C26       1.0  0.54214  0.26604  0.11249  1.0000
  C   C27       1.0  0.32039  0.71560  0.85422  1.0000
  C   C28       1.0  0.67961  0.28440  0.14578  1.0000
  H   H15       1.0  0.25700  0.72810  0.88570  1.0000
  H   H16       1.0  0.74300  0.27190  0.11430  1.0000
  C   C29       1.0  0.27973  0.67952  0.77582  1.0000
  C   C30       1.0  0.72027  0.32048  0.22418  1.0000
  H   H17       1.0  0.18820  0.66810  0.75400  1.0000
  H   H18       1.0  0.81180  0.33190  0.24600  1.0000
  C   C31       1.0  0.50754  0.76852  0.97220  1.0000
  C   C32       1.0  0.49246  0.23148  0.02780  1.0000
  C   C33       1.0  0.47657  0.89907  0.09720  1.0000
  C   C34       1.0  0.52343  0.10093  0.90280  1.0000
  C   C35       1.0  0.60946  0.92961  0.13324  1.0000
  C   C36       1.0  0.39054  0.07039  0.86676  1.0000
  H   H19       1.0  0.67680  0.91540  0.10450  1.0000
  H   H20       1.0  0.32320  0.08460  0.89550  1.0000
  C   C37       1.0  0.64249  0.98177  0.21284  1.0000
  C   C38       1.0  0.35751  0.01823  0.78716  1.0000
  C   C39       1.0  0.54102  0.00357  0.25562  1.0000
  C   C40       1.0  0.45898  0.99643  0.74438  1.0000
  H   H21       1.0  0.56430  0.03710  0.30900  1.0000
  H   H22       1.0  0.43570  0.96290  0.69100  1.0000
  C   C41       1.0  0.40799  0.97687  0.22101  1.0000
  C   C42       1.0  0.59201  0.02313  0.77899  1.0000
  C   C43       1.0  0.37543  0.92370  0.14077  1.0000
  C   C44       1.0  0.62457  0.07630  0.85923  1.0000
  H   H23       1.0  0.28570  0.90450  0.11610  1.0000
  H   H24       1.0  0.71430  0.09550  0.88390  1.0000
  C   C45       1.0  0.78630  0.01207  0.25046  1.0000
  C   C46       1.0  0.21370  0.98793  0.74954  1.0000
  C   C47       1.0  0.30162  0.00638  0.26631  1.0000
  C   C48       1.0  0.69838  0.99362  0.73369  1.0000
