data_image0
_chemical_formula_structural       Sm2S4O2H4O2H4O28C6H2C6H2C2H2C8H2C6H2C2H2C2
_chemical_formula_sum              "Sm2 S4 O32 H20 C32"
_cell_length_a       9.0648
_cell_length_b       10.3588
_cell_length_c       18.876
_cell_angle_alpha    78.99
_cell_angle_beta     77.823
_cell_angle_gamma    80.206

_space_group_name_H-M_alt    "P 1"
_space_group_IT_number       1

loop_
  _space_group_symop_operation_xyz
  'x, y, z'

loop_
  _atom_site_type_symbol
  _atom_site_label
  _atom_site_symmetry_multiplicity
  _atom_site_fract_x
  _atom_site_fract_y
  _atom_site_fract_z
  _atom_site_occupancy
  Sm  Sm1       1.0  0.47960  0.52162  0.23163  1.0000
  Sm  Sm2       1.0  0.52040  0.47838  0.76837  1.0000
  S   S1        1.0  0.83892  0.30207  0.26966  1.0000
  S   S2        1.0  0.16108  0.69793  0.73034  1.0000
  S   S3        1.0  0.19619  0.61375  0.11008  1.0000
  S   S4        1.0  0.80381  0.38625  0.88992  1.0000
  O   O1        1.0  0.40020  0.30560  0.24301  1.0000
  O   O2        1.0  0.59980  0.69440  0.75699  1.0000
  H   H1        1.0  0.47171  0.24375  0.25475  1.0000
  H   H2        1.0  0.52829  0.75625  0.74525  1.0000
  H   H3        1.0  0.38039  0.29575  0.20174  1.0000
  H   H4        1.0  0.61961  0.70425  0.79826  1.0000
  O   O3        1.0  0.62990  0.52160  0.11219  1.0000
  O   O4        1.0  0.37010  0.47840  0.88781  1.0000
  H   H5        1.0  0.57188  0.52700  0.08090  1.0000
  H   H6        1.0  0.42812  0.47300  0.91910  1.0000
  H   H7        1.0  0.69214  0.44923  0.11128  1.0000
  H   H8        1.0  0.30786  0.55077  0.88872  1.0000
  O   O5        1.0  0.63740  0.64820  0.26233  1.0000
  O   O6        1.0  0.36260  0.35180  0.73767  1.0000
  O   O7        1.0  0.24540  0.57990  0.31479  1.0000
  O   O8        1.0  0.75460  0.42010  0.68521  1.0000
  O   O9        1.0  0.59140  0.83090  0.31250  1.0000
  O   O10       1.0  0.40860  0.16910  0.68750  1.0000
  O   O11       1.0  0.09230  0.54670  0.08614  1.0000
  O   O12       1.0  0.90770  0.45330  0.91386  1.0000
  O   O13       1.0  0.27930  0.69740  0.05125  1.0000
  O   O14       1.0  0.72070  0.30260  0.94875  1.0000
  O   O15       1.0  0.29210  0.52090  0.15543  1.0000
  O   O16       1.0  0.70790  0.47910  0.84457  1.0000
  O   O17       1.0  0.40580  0.74330  0.17924  1.0000
  O   O18       1.0  0.59420  0.25670  0.82076  1.0000
  O   O19       1.0  0.33600  0.95580  0.14370  1.0000
  O   O20       1.0  0.66400  0.04420  0.85630  1.0000
  O   O21       1.0  0.12760  0.68800  0.40631  1.0000
  O   O22       1.0  0.87240  0.31200  0.59369  1.0000
  O   O23       1.0  0.98520  0.28860  0.22360  1.0000
  O   O24       1.0  0.01480  0.71140  0.77640  1.0000
  O   O25       1.0  0.72020  0.36730  0.22992  1.0000
  O   O26       1.0  0.27980  0.63270  0.77008  1.0000
  O   O27       1.0  0.80050  0.17940  0.31487  1.0000
  O   O28       1.0  0.19950  0.82060  0.68513  1.0000
  O   O29       1.0  0.49710  0.40590  0.35612  1.0000
  O   O30       1.0  0.50290  0.59410  0.64388  1.0000
  O   O31       1.0  0.54680  0.29310  0.46158  1.0000
  O   O32       1.0  0.45320  0.70690  0.53842  1.0000
  C   C1        1.0  0.67520  0.75280  0.27440  1.0000
  C   C2        1.0  0.32480  0.24720  0.72560  1.0000
  C   C3        1.0  0.83500  0.78170  0.24090  1.0000
  C   C4        1.0  0.16500  0.21830  0.75910  1.0000
  C   C5        1.0  0.93060  0.70290  0.19380  1.0000
  C   C6        1.0  0.06940  0.29710  0.80620  1.0000
  H   H9        1.0  0.89245  0.63658  0.17895  1.0000
  H   H10       1.0  0.10755  0.36342  0.82105  1.0000
  C   C7        1.0  0.08090  0.72080  0.16850  1.0000
  C   C8        1.0  0.91910  0.27920  0.83150  1.0000
  C   C9        1.0  0.13930  0.82150  0.18940  1.0000
  C   C10       1.0  0.86070  0.17850  0.81060  1.0000
  C   C11       1.0  0.04110  0.90480  0.23370  1.0000
  C   C12       1.0  0.95890  0.09520  0.76630  1.0000
  H   H11       1.0  0.07630  0.97520  0.24617  1.0000
  H   H12       1.0  0.92370  0.02480  0.75383  1.0000
  C   C13       1.0  0.89230  0.88330  0.25920  1.0000
  C   C14       1.0  0.10770  0.11670  0.74080  1.0000
  H   H13       1.0  0.82868  0.93876  0.28963  1.0000
  H   H14       1.0  0.17132  0.06124  0.71037  1.0000
  C   C15       1.0  0.30640  0.84000  0.16920  1.0000
  C   C16       1.0  0.69360  0.16000  0.83080  1.0000
  C   C17       1.0  0.13460  0.60530  0.36210  1.0000
  C   C18       1.0  0.86540  0.39470  0.63790  1.0000
  C   C19       1.0  0.99400  0.54070  0.37320  1.0000
  C   C20       1.0  0.00600  0.45930  0.62680  1.0000
  C   C21       1.0  0.98200  0.46110  0.32420  1.0000
  C   C22       1.0  0.01800  0.53890  0.67580  1.0000
  H   H15       1.0  0.06237  0.44523  0.28581  1.0000
  H   H16       1.0  0.93763  0.55477  0.71419  1.0000
  C   C23       1.0  0.85010  0.40500  0.33250  1.0000
  C   C24       1.0  0.14990  0.59500  0.66750  1.0000
  C   C25       1.0  0.73030  0.42630  0.39110  1.0000
  C   C26       1.0  0.26970  0.57370  0.60890  1.0000
  C   C27       1.0  0.74630  0.50200  0.44080  1.0000
  C   C28       1.0  0.25370  0.49800  0.55920  1.0000
  H   H17       1.0  0.66851  0.51447  0.48074  1.0000
  H   H18       1.0  0.33149  0.48553  0.51926  1.0000
  C   C29       1.0  0.87720  0.55950  0.43160  1.0000
  C   C30       1.0  0.12280  0.44050  0.56840  1.0000
  H   H19       1.0  0.88653  0.61135  0.46514  1.0000
  H   H20       1.0  0.11347  0.38865  0.53486  1.0000
  C   C31       1.0  0.58090  0.37110  0.40230  1.0000
  C   C32       1.0  0.41910  0.62890  0.59770  1.0000
