data_image0
_chemical_formula_structural       C12O24Yb2
_chemical_formula_sum              "C12 O24 Yb2"
_cell_length_a       8.8524
_cell_length_b       10.434
_cell_length_c       15.937
_cell_angle_alpha    87.131
_cell_angle_beta     87.135
_cell_angle_gamma    88.571

_space_group_name_H-M_alt    "P 1"
_space_group_IT_number       1

loop_
  _space_group_symop_operation_xyz
  'x, y, z'

loop_
  _atom_site_type_symbol
  _atom_site_label
  _atom_site_symmetry_multiplicity
  _atom_site_fract_x
  _atom_site_fract_y
  _atom_site_fract_z
  _atom_site_occupancy
  C   C1        1.0  0.03440  0.93160  0.99760  1.0000
  C   C2        1.0  0.96560  0.06840  0.00240  1.0000
  C   C3        1.0  0.47650  0.05720  0.96970  1.0000
  C   C4        1.0  0.52350  0.94280  0.03030  1.0000
  C   C5        1.0  0.32690  0.34400  0.16680  1.0000
  C   C6        1.0  0.67310  0.65600  0.83320  1.0000
  C   C7        1.0  0.43610  0.25370  0.21680  1.0000
  C   C8        1.0  0.56390  0.74630  0.78320  1.0000
  C   C9        1.0  0.05480  0.04710  0.29590  1.0000
  C   C10       1.0  0.94520  0.95290  0.70410  1.0000
  C   C11       1.0  0.13620  0.91300  0.29060  1.0000
  C   C12       1.0  0.86380  0.08700  0.70940  1.0000
  O   O1        1.0  0.55340  0.07460  0.90310  1.0000
  O   O2        1.0  0.44660  0.92540  0.09690  1.0000
  O   O3        1.0  0.36250  0.12340  0.99460  1.0000
  O   O4        1.0  0.63750  0.87660  0.00540  1.0000
  O   O5        1.0  0.24320  0.28990  0.11750  1.0000
  O   O6        1.0  0.75680  0.71010  0.88250  1.0000
  O   O7        1.0  0.97830  0.85980  0.94740  1.0000
  O   O8        1.0  0.02170  0.14020  0.05260  1.0000
  O   O9        1.0  0.21510  0.89840  0.22320  1.0000
  O   O10       1.0  0.78490  0.10160  0.77680  1.0000
  O   O11       1.0  0.14030  0.90530  0.04580  1.0000
  O   O12       1.0  0.85970  0.09470  0.95420  1.0000
  O   O13       1.0  0.96800  0.06640  0.35850  1.0000
  O   O14       1.0  0.03200  0.93360  0.64150  1.0000
  O   O15       1.0  0.08020  0.12570  0.23450  1.0000
  O   O16       1.0  0.91980  0.87430  0.76550  1.0000
  O   O17       1.0  0.32390  0.46140  0.17860  1.0000
  O   O18       1.0  0.67610  0.53860  0.82140  1.0000
  O   O19       1.0  0.42350  0.13640  0.20630  1.0000
  O   O20       1.0  0.57650  0.86360  0.79370  1.0000
  O   O21       1.0  0.52400  0.30530  0.26350  1.0000
  O   O22       1.0  0.47600  0.69470  0.73650  1.0000
  O   O23       1.0  0.11540  0.83260  0.34980  1.0000
  O   O24       1.0  0.88460  0.16740  0.65020  1.0000
  Yb  Yb1       1.0  0.23824  0.06547  0.12298  1.0000
  Yb  Yb2       1.0  0.76176  0.93453  0.87702  1.0000
