data_image0
_chemical_formula_structural       Ca3O18H4O2N2H2N4H2N2C6H2C2H2C4H2C2H2C6H2C2H2C4H2C2H2C6H2C2H2C4H2C2H2C6H2C2H2C4H2C2H2C6H2C2H2C8H2C2H2C8H2C2H2C8H2C2H2C2H4
_chemical_formula_sum              "Ca3 O20 H60 N8 C96"
_cell_length_a       11.969
_cell_length_b       15.4198
_cell_length_c       17.42
_cell_angle_alpha    74.789
_cell_angle_beta     70.647
_cell_angle_gamma    76.008

_space_group_name_H-M_alt    "P 1"
_space_group_IT_number       1

loop_
  _space_group_symop_operation_xyz
  'x, y, z'

loop_
  _atom_site_type_symbol
  _atom_site_label
  _atom_site_symmetry_multiplicity
  _atom_site_fract_x
  _atom_site_fract_y
  _atom_site_fract_z
  _atom_site_occupancy
  Ca  Ca1       1.0  0.50000  1.00000  0.00000  1.0000
  Ca  Ca2       1.0  0.17877  0.02744  0.05467  1.0000
  Ca  Ca3       1.0  0.82123  0.97256  0.94533  1.0000
  O   O1        1.0  0.35480  0.96050  0.11936  1.0000
  O   O2        1.0  0.64520  0.03950  0.88064  1.0000
  O   O3        1.0  0.18480  0.91120  0.18130  1.0000
  O   O4        1.0  0.81520  0.08880  0.81870  1.0000
  O   O5        1.0  0.10160  0.13840  0.13680  1.0000
  O   O6        1.0  0.89840  0.86160  0.86320  1.0000
  O   O7        1.0  0.24090  0.22280  0.10820  1.0000
  O   O8        1.0  0.75910  0.77720  0.89180  1.0000
  O   O9        1.0  0.24980  0.21860  0.87640  1.0000
  O   O10       1.0  0.75020  0.78140  0.12360  1.0000
  O   O11       1.0  0.11580  0.12665  0.93957  1.0000
  O   O12       1.0  0.88420  0.87335  0.06043  1.0000
  O   O13       1.0  0.38170  0.94930  0.94750  1.0000
  O   O14       1.0  0.61830  0.05070  0.05250  1.0000
  O   O15       1.0  0.20700  0.90836  0.97522  1.0000
  O   O16       1.0  0.79300  0.09164  0.02478  1.0000
  O   O17       1.0  0.97600  0.00357  0.09823  1.0000
  O   O18       1.0  0.02400  0.99643  0.90177  1.0000
  H   H1        1.0  0.91063  0.03927  0.09691  1.0000
  H   H2        1.0  0.08937  0.96073  0.90309  1.0000
  H   H3        1.0  0.97128  0.95939  0.07889  1.0000
  H   H4        1.0  0.02872  0.04061  0.92111  1.0000
  O   O19       1.0  0.34570  0.12636  0.99400  1.0000
  O   O20       1.0  0.65430  0.87364  0.00600  1.0000
  N   N1        1.0  0.54410  0.64710  0.55830  1.0000
  N   N2        1.0  0.45590  0.35290  0.44170  1.0000
  H   H5        1.0  0.59205  0.59559  0.55888  1.0000
  H   H6        1.0  0.40795  0.40441  0.44112  1.0000
  N   N3        1.0  0.69200  0.53790  0.66240  1.0000
  N   N4        1.0  0.30800  0.46210  0.33760  1.0000
  N   N5        1.0  0.83580  0.43730  0.53330  1.0000
  N   N6        1.0  0.16420  0.56270  0.46670  1.0000
  H   H7        1.0  0.77425  0.48011  0.53870  1.0000
  H   H8        1.0  0.22575  0.51989  0.46130  1.0000
  N   N7        1.0  0.67260  0.53170  0.43560  1.0000
  N   N8        1.0  0.32740  0.46830  0.56440  1.0000
  C   C1        1.0  0.29050  0.90940  0.17750  1.0000
  C   C2        1.0  0.70950  0.09060  0.82250  1.0000
  C   C3        1.0  0.34600  0.84650  0.24210  1.0000
  C   C4        1.0  0.65400  0.15350  0.75790  1.0000
  C   C5        1.0  0.27710  0.79560  0.31110  1.0000
  C   C6        1.0  0.72290  0.20440  0.68890  1.0000
  H   H9        1.0  0.19562  0.80022  0.31785  1.0000
  H   H10       1.0  0.80438  0.19978  0.68215  1.0000
  C   C7        1.0  0.32940  0.73690  0.37120  1.0000
  C   C8        1.0  0.67060  0.26310  0.62880  1.0000
  H   H11       1.0  0.28201  0.70439  0.41856  1.0000
  H   H12       1.0  0.71799  0.29561  0.58144  1.0000
  C   C9        1.0  0.45050  0.72750  0.36010  1.0000
  C   C10       1.0  0.54950  0.27250  0.63990  1.0000
  C   C11       1.0  0.51790  0.77840  0.29100  1.0000
  C   C12       1.0  0.48210  0.22160  0.70900  1.0000
  H   H13       1.0  0.59991  0.77257  0.28324  1.0000
  H   H14       1.0  0.40009  0.22743  0.71676  1.0000
  C   C13       1.0  0.46590  0.83840  0.23260  1.0000
  C   C14       1.0  0.53410  0.16160  0.76740  1.0000
  H   H15       1.0  0.51284  0.87322  0.18681  1.0000
  H   H16       1.0  0.48716  0.12678  0.81319  1.0000
  C   C15       1.0  0.14080  0.20210  0.14580  1.0000
  C   C16       1.0  0.85920  0.79790  0.85420  1.0000
  C   C17       1.0  0.05960  0.25750  0.21020  1.0000
  C   C18       1.0  0.94040  0.74250  0.78980  1.0000
  C   C19       1.0  0.94820  0.23750  0.25900  1.0000
  C   C20       1.0  0.05180  0.76250  0.74100  1.0000
  H   H17       1.0  0.92050  0.18976  0.25166  1.0000
  H   H18       1.0  0.07950  0.81024  0.74834  1.0000
  C   C21       1.0  0.87790  0.28670  0.31790  1.0000
  C   C22       1.0  0.12210  0.71330  0.68210  1.0000
  H   H19       1.0  0.80269  0.27242  0.34944  1.0000
  H   H20       1.0  0.19731  0.72758  0.65056  1.0000
  C   C23       1.0  0.91630  0.35700  0.33140  1.0000
  C   C24       1.0  0.08370  0.64300  0.66860  1.0000
  C   C25       1.0  0.02740  0.37710  0.28360  1.0000
  C   C26       1.0  0.97260  0.62290  0.71640  1.0000
  H   H21       1.0  0.05520  0.42408  0.29213  1.0000
  H   H22       1.0  0.94480  0.57592  0.70787  1.0000
  C   C27       1.0  0.09960  0.32780  0.22200  1.0000
  C   C28       1.0  0.90040  0.67220  0.77800  1.0000
  H   H23       1.0  0.17400  0.34282  0.18942  1.0000
  H   H24       1.0  0.82600  0.65718  0.81058  1.0000
  C   C29       1.0  0.15390  0.19420  0.88680  1.0000
  C   C30       1.0  0.84610  0.80580  0.11320  1.0000
  C   C31       1.0  0.07700  0.25020  0.83120  1.0000
  C   C32       1.0  0.92300  0.74980  0.16880  1.0000
  C   C33       1.0  0.12270  0.31690  0.76470  1.0000
  C   C34       1.0  0.87730  0.68310  0.23530  1.0000
  H   H25       1.0  0.19991  0.32747  0.75514  1.0000
  H   H26       1.0  0.80009  0.67253  0.24486  1.0000
  C   C35       1.0  0.05480  0.36760  0.71270  1.0000
  C   C36       1.0  0.94520  0.63240  0.28730  1.0000
  H   H27       1.0  0.08767  0.41058  0.66727  1.0000
  H   H28       1.0  0.91233  0.58942  0.33273  1.0000
  C   C37       1.0  0.93830  0.35520  0.72740  1.0000
  C   C38       1.0  0.06170  0.64480  0.27260  1.0000
  C   C39       1.0  0.89160  0.28940  0.79480  1.0000
  C   C40       1.0  0.10840  0.71060  0.20520  1.0000
  H   H29       1.0  0.81340  0.28022  0.80547  1.0000
  H   H30       1.0  0.18660  0.71978  0.19453  1.0000
  C   C41       1.0  0.96030  0.23760  0.84580  1.0000
  C   C42       1.0  0.03970  0.76240  0.15420  1.0000
  H   H31       1.0  0.92805  0.19365  0.89053  1.0000
  H   H32       1.0  0.07195  0.80635  0.10947  1.0000
  C   C43       1.0  0.31610  0.90520  0.93590  1.0000
  C   C44       1.0  0.68390  0.09480  0.06410  1.0000
  C   C45       1.0  0.37090  0.84400  0.87310  1.0000
  C   C46       1.0  0.62910  0.15600  0.12690  1.0000
  C   C47       1.0  0.30170  0.80040  0.85130  1.0000
  C   C48       1.0  0.69830  0.19960  0.14870  1.0000
  H   H33       1.0  0.21906  0.80867  0.87581  1.0000
  H   H34       1.0  0.78094  0.19133  0.12419  1.0000
  C   C49       1.0  0.35270  0.74450  0.79370  1.0000
  C   C50       1.0  0.64730  0.25550  0.20630  1.0000
  H   H35       1.0  0.30387  0.71655  0.77938  1.0000
  H   H36       1.0  0.69613  0.28345  0.22062  1.0000
  C   C51       1.0  0.47570  0.72990  0.75720  1.0000
  C   C52       1.0  0.52430  0.27010  0.24280  1.0000
  C   C53       1.0  0.54530  0.77440  0.77950  1.0000
  C   C54       1.0  0.45470  0.22560  0.22050  1.0000
  H   H37       1.0  0.62810  0.76542  0.75567  1.0000
  H   H38       1.0  0.37190  0.23458  0.24433  1.0000
  C   C55       1.0  0.49510  0.83080  0.83530  1.0000
  C   C56       1.0  0.50490  0.16920  0.16470  1.0000
  H   H39       1.0  0.54352  0.86041  0.84828  1.0000
  H   H40       1.0  0.45648  0.13959  0.15172  1.0000
  C   C57       1.0  0.51160  0.66510  0.42200  1.0000
  C   C58       1.0  0.48840  0.33490  0.57800  1.0000
  C   C59       1.0  0.49490  0.69360  0.49470  1.0000
  C   C60       1.0  0.50510  0.30640  0.50530  1.0000
  C   C61       1.0  0.42190  0.77540  0.51820  1.0000
  C   C62       1.0  0.57810  0.22460  0.48180  1.0000
  H   H41       1.0  0.37812  0.82009  0.48681  1.0000
  H   H42       1.0  0.62188  0.17991  0.51319  1.0000
  C   C63       1.0  0.42750  0.77680  0.59480  1.0000
  C   C64       1.0  0.57250  0.22320  0.40520  1.0000
  H   H43       1.0  0.38816  0.82234  0.62512  1.0000
  H   H44       1.0  0.61184  0.17766  0.37488  1.0000
  C   C65       1.0  0.50490  0.69530  0.61980  1.0000
  C   C66       1.0  0.49510  0.30470  0.38020  1.0000
  C   C67       1.0  0.53370  0.66950  0.69500  1.0000
  C   C68       1.0  0.46630  0.33050  0.30500  1.0000
  C   C69       1.0  0.61660  0.59320  0.71520  1.0000
  C   C70       1.0  0.38340  0.40680  0.28480  1.0000
  C   C71       1.0  0.64110  0.56370  0.79440  1.0000
  C   C72       1.0  0.35890  0.43630  0.20560  1.0000
  H   H45       1.0  0.60094  0.58871  0.84141  1.0000
  H   H46       1.0  0.39906  0.41129  0.15859  1.0000
  C   C73       1.0  0.73310  0.49280  0.78780  1.0000
  C   C74       1.0  0.26690  0.50720  0.21220  1.0000
  H   H47       1.0  0.76900  0.46071  0.82922  1.0000
  H   H48       1.0  0.23100  0.53929  0.17078  1.0000
  C   C75       1.0  0.76560  0.47600  0.70560  1.0000
  C   C76       1.0  0.23440  0.52400  0.29440  1.0000
  C   C77       1.0  0.86290  0.41320  0.67150  1.0000
  C   C78       1.0  0.13710  0.58680  0.32850  1.0000
  C   C79       1.0  0.89730  0.39830  0.59090  1.0000
  C   C80       1.0  0.10270  0.60170  0.40910  1.0000
  C   C81       1.0  0.99520  0.33220  0.55740  1.0000
  C   C82       1.0  0.00480  0.66780  0.44260  1.0000
  H   H49       1.0  0.05211  0.29626  0.58327  1.0000
  H   H50       1.0  0.94789  0.70374  0.41673  1.0000
  C   C83       1.0  0.99010  0.33130  0.48020  1.0000
  C   C84       1.0  0.00990  0.66870  0.51980  1.0000
  H   H51       1.0  0.04294  0.29483  0.44388  1.0000
  H   H52       1.0  0.95706  0.70517  0.55612  1.0000
  C   C85       1.0  0.88820  0.39700  0.46580  1.0000
  C   C86       1.0  0.11180  0.60300  0.53420  1.0000
  C   C87       1.0  0.84300  0.41020  0.39780  1.0000
  C   C88       1.0  0.15700  0.58980  0.60220  1.0000
  C   C89       1.0  0.73930  0.47040  0.38690  1.0000
  C   C90       1.0  0.26070  0.52960  0.61310  1.0000
  C   C91       1.0  0.69290  0.48360  0.31680  1.0000
  C   C92       1.0  0.30710  0.51640  0.68320  1.0000
  H   H53       1.0  0.72059  0.44929  0.27547  1.0000
  H   H54       1.0  0.27941  0.55071  0.72453  1.0000
  C   C93       1.0  0.60150  0.55530  0.32320  1.0000
  C   C94       1.0  0.39850  0.44470  0.67680  1.0000
  H   H55       1.0  0.55518  0.58010  0.28655  1.0000
  H   H56       1.0  0.44482  0.41990  0.71345  1.0000
  C   C95       1.0  0.58920  0.58640  0.39800  1.0000
  C   C96       1.0  0.41080  0.41360  0.60200  1.0000
  H   H57       1.0  0.31200  0.15500  0.03400  1.0000
  H   H58       1.0  0.68800  0.84500  0.96600  1.0000
  H   H59       1.0  0.31600  0.15100  0.95300  1.0000
  H   H60       1.0  0.68400  0.84900  0.04700  1.0000
