data_image0
_chemical_formula_structural       Co4O32H8C12H8C8H8C4H4
_chemical_formula_sum              "Co4 O32 H28 C24"
_cell_length_a       11.8034
_cell_length_b       8.3749
_cell_length_c       9.5543
_cell_angle_alpha    90
_cell_angle_beta     96.213
_cell_angle_gamma    90

_space_group_name_H-M_alt    "P 1"
_space_group_IT_number       1

loop_
  _space_group_symop_operation_xyz
  'x, y, z'

loop_
  _atom_site_type_symbol
  _atom_site_label
  _atom_site_symmetry_multiplicity
  _atom_site_fract_x
  _atom_site_fract_y
  _atom_site_fract_z
  _atom_site_occupancy
  Co  Co1       1.0  0.19785  0.10283  0.01804  1.0000
  Co  Co2       1.0  0.80215  0.60283  0.48196  1.0000
  Co  Co3       1.0  0.80215  0.89717  0.98196  1.0000
  Co  Co4       1.0  0.19785  0.39717  0.51804  1.0000
  O   O1        1.0  0.16770  0.10570  0.79860  1.0000
  O   O2        1.0  0.83230  0.60570  0.70140  1.0000
  O   O3        1.0  0.83230  0.89430  0.20140  1.0000
  O   O4        1.0  0.16770  0.39430  0.29860  1.0000
  O   O5        1.0  0.32360  0.95650  0.95240  1.0000
  O   O6        1.0  0.67640  0.45650  0.54760  1.0000
  O   O7        1.0  0.67640  0.04350  0.04760  1.0000
  O   O8        1.0  0.32360  0.54350  0.45240  1.0000
  O   O9        1.0  0.32000  0.74130  0.81710  1.0000
  O   O10       1.0  0.68000  0.24130  0.68290  1.0000
  O   O11       1.0  0.68000  0.25870  0.18290  1.0000
  O   O12       1.0  0.32000  0.75870  0.31710  1.0000
  O   O13       1.0  0.94260  0.77160  0.90870  1.0000
  O   O14       1.0  0.05740  0.27160  0.59130  1.0000
  O   O15       1.0  0.05740  0.22840  0.09130  1.0000
  O   O16       1.0  0.94260  0.72840  0.40870  1.0000
  O   O17       1.0  0.09360  0.89890  0.00620  1.0000
  O   O18       1.0  0.90640  0.39890  0.49380  1.0000
  O   O19       1.0  0.90640  0.10110  0.99380  1.0000
  O   O20       1.0  0.09360  0.60110  0.50620  1.0000
  O   O21       1.0  0.29170  0.18940  0.50450  1.0000
  O   O22       1.0  0.70830  0.68940  0.99550  1.0000
  O   O23       1.0  0.70830  0.81060  0.49550  1.0000
  O   O24       1.0  0.29170  0.31060  0.00450  1.0000
  O   O25       1.0  0.40590  0.03920  0.64490  1.0000
  O   O26       1.0  0.59410  0.53920  0.85510  1.0000
  O   O27       1.0  0.59410  0.96080  0.35510  1.0000
  O   O28       1.0  0.40590  0.46080  0.14490  1.0000
  O   O29       1.0  0.25890  0.05300  0.22450  1.0000
  O   O30       1.0  0.74110  0.55300  0.27550  1.0000
  O   O31       1.0  0.74110  0.94700  0.77550  1.0000
  O   O32       1.0  0.25890  0.44700  0.72450  1.0000
  H   H1        1.0  0.25600  0.10700  0.29900  1.0000
  H   H2        1.0  0.74400  0.60700  0.20100  1.0000
  H   H3        1.0  0.74400  0.89300  0.70100  1.0000
  H   H4        1.0  0.25600  0.39300  0.79900  1.0000
  H   H5        1.0  0.27600  0.95700  0.24600  1.0000
  H   H6        1.0  0.72400  0.45700  0.25400  1.0000
  H   H7        1.0  0.72400  0.04300  0.75400  1.0000
  H   H8        1.0  0.27600  0.54300  0.74600  1.0000
  C   C1        1.0  0.18520  0.94720  0.74810  1.0000
  C   C2        1.0  0.81480  0.44720  0.75190  1.0000
  C   C3        1.0  0.81480  0.05280  0.25190  1.0000
  C   C4        1.0  0.18520  0.55280  0.24810  1.0000
  C   C5        1.0  0.28630  0.87350  0.84560  1.0000
  C   C6        1.0  0.71370  0.37350  0.65440  1.0000
  C   C7        1.0  0.71370  0.12650  0.15440  1.0000
  C   C8        1.0  0.28630  0.62650  0.34560  1.0000
  C   C9        1.0  0.07670  0.84870  0.75740  1.0000
  C   C10       1.0  0.92330  0.34870  0.74260  1.0000
  C   C11       1.0  0.92330  0.15130  0.24260  1.0000
  C   C12       1.0  0.07670  0.65130  0.25740  1.0000
  H   H9        1.0  0.01630  0.89300  0.69200  1.0000
  H   H10       1.0  0.98370  0.39300  0.80800  1.0000
  H   H11       1.0  0.98370  0.10700  0.30800  1.0000
  H   H12       1.0  0.01630  0.60700  0.19200  1.0000
  H   H13       1.0  0.09050  0.74050  0.72710  1.0000
  H   H14       1.0  0.90950  0.24050  0.77290  1.0000
  H   H15       1.0  0.90950  0.25950  0.27290  1.0000
  H   H16       1.0  0.09050  0.75950  0.22710  1.0000
  C   C13       1.0  0.03540  0.84140  0.90160  1.0000
  C   C14       1.0  0.96460  0.34140  0.59840  1.0000
  C   C15       1.0  0.96460  0.15860  0.09840  1.0000
  C   C16       1.0  0.03540  0.65860  0.40160  1.0000
  C   C17       1.0  0.21410  0.95430  0.59670  1.0000
  C   C18       1.0  0.78590  0.45430  0.90330  1.0000
  C   C19       1.0  0.78590  0.04570  0.40330  1.0000
  C   C20       1.0  0.21410  0.54570  0.09670  1.0000
  H   H17       1.0  0.14730  0.98760  0.53560  1.0000
  H   H18       1.0  0.85270  0.48760  0.96440  1.0000
  H   H19       1.0  0.85270  0.01240  0.46440  1.0000
  H   H20       1.0  0.14730  0.51240  0.03560  1.0000
  H   H21       1.0  0.23560  0.84870  0.56730  1.0000
  H   H22       1.0  0.76440  0.34870  0.93270  1.0000
  H   H23       1.0  0.76440  0.15130  0.43270  1.0000
  H   H24       1.0  0.23560  0.65130  0.06730  1.0000
  C   C21       1.0  0.31160  0.07070  0.58170  1.0000
  C   C22       1.0  0.68840  0.57070  0.91830  1.0000
  C   C23       1.0  0.68840  0.92930  0.41830  1.0000
  C   C24       1.0  0.31160  0.42930  0.08170  1.0000
  H   H25       1.0  0.13300  0.16700  0.73800  1.0000
  H   H26       1.0  0.86700  0.66700  0.76200  1.0000
  H   H27       1.0  0.86700  0.83300  0.26200  1.0000
  H   H28       1.0  0.13300  0.33300  0.23800  1.0000
