data_image0
_chemical_formula_structural       Fe4Cl8O20H4C8Li4H4
_chemical_formula_sum              "Fe4 Cl8 O20 H8 C8 Li4"
_cell_length_a       11.449
_cell_length_b       11.435
_cell_length_c       10.144
_cell_angle_alpha    90
_cell_angle_beta     90
_cell_angle_gamma    90

_space_group_name_H-M_alt    "P 1"
_space_group_IT_number       1

loop_
  _space_group_symop_operation_xyz
  'x, y, z'

loop_
  _atom_site_type_symbol
  _atom_site_label
  _atom_site_symmetry_multiplicity
  _atom_site_fract_x
  _atom_site_fract_y
  _atom_site_fract_z
  _atom_site_occupancy
  Fe  Fe1       1.0  0.82450  0.02337  0.55934  1.0000
  Fe  Fe2       1.0  0.17550  0.97663  0.05934  1.0000
  Fe  Fe3       1.0  0.32450  0.97663  0.55934  1.0000
  Fe  Fe4       1.0  0.67550  0.02337  0.05934  1.0000
  Cl  Cl1       1.0  0.80804  0.23836  0.59693  1.0000
  Cl  Cl2       1.0  0.19196  0.76164  0.09693  1.0000
  Cl  Cl3       1.0  0.30804  0.76164  0.59693  1.0000
  Cl  Cl4       1.0  0.69196  0.23836  0.09693  1.0000
  Cl  Cl5       1.0  0.84496  0.80838  0.52818  1.0000
  Cl  Cl6       1.0  0.15504  0.19162  0.02818  1.0000
  Cl  Cl7       1.0  0.34496  0.19162  0.52818  1.0000
  Cl  Cl8       1.0  0.65504  0.80838  0.02818  1.0000
  O   O1        1.0  0.63950  0.99950  0.58060  1.0000
  O   O2        1.0  0.36050  0.00050  0.08060  1.0000
  O   O3        1.0  0.13950  0.00050  0.58060  1.0000
  O   O4        1.0  0.86050  0.99950  0.08060  1.0000
  O   O5        1.0  0.76290  0.03200  0.35870  1.0000
  O   O6        1.0  0.23710  0.96800  0.85870  1.0000
  O   O7        1.0  0.26290  0.96800  0.35870  1.0000
  O   O8        1.0  0.73710  0.03200  0.85870  1.0000
  O   O9        1.0  0.60010  0.00370  0.24190  1.0000
  O   O10       1.0  0.39990  0.99630  0.74190  1.0000
  O   O11       1.0  0.10010  0.99630  0.24190  1.0000
  O   O12       1.0  0.89990  0.00370  0.74190  1.0000
  O   O13       1.0  0.48210  0.96160  0.45750  1.0000
  O   O14       1.0  0.51790  0.03840  0.95750  1.0000
  O   O15       1.0  0.98210  0.03840  0.45750  1.0000
  O   O16       1.0  0.01790  0.96160  0.95750  1.0000
  O   O17       1.0  0.55580  0.21110  0.72130  1.0000
  O   O18       1.0  0.44420  0.78890  0.22130  1.0000
  O   O19       1.0  0.05580  0.78890  0.72130  1.0000
  O   O20       1.0  0.94420  0.21110  0.22130  1.0000
  H   H1        1.0  0.61870  0.23950  0.69990  1.0000
  H   H2        1.0  0.38130  0.76050  0.19990  1.0000
  H   H3        1.0  0.11870  0.76050  0.69990  1.0000
  H   H4        1.0  0.88130  0.23950  0.19990  1.0000
  C   C1        1.0  0.58560  0.98790  0.47510  1.0000
  C   C2        1.0  0.41440  0.01210  0.97510  1.0000
  C   C3        1.0  0.08560  0.01210  0.47510  1.0000
  C   C4        1.0  0.91440  0.98790  0.97510  1.0000
  C   C5        1.0  0.65660  0.00990  0.34830  1.0000
  C   C6        1.0  0.34340  0.99010  0.84830  1.0000
  C   C7        1.0  0.15660  0.99010  0.34830  1.0000
  C   C8        1.0  0.84340  0.00990  0.84830  1.0000
  Li  Li1       1.0  0.57710  0.04380  0.76420  1.0000
  Li  Li2       1.0  0.42290  0.95620  0.26420  1.0000
  Li  Li3       1.0  0.07710  0.95620  0.76420  1.0000
  Li  Li4       1.0  0.92290  0.04380  0.26420  1.0000
  H   H5        1.0  0.49800  0.20500  0.66000  1.0000
  H   H6        1.0  0.50200  0.79500  0.16000  1.0000
  H   H7        1.0  0.99800  0.79500  0.66000  1.0000
  H   H8        1.0  0.00200  0.20500  0.16000  1.0000
