data_image0
_chemical_formula_structural       Mn16P16O16H8O8H8O32H8O8H8O64C32
_chemical_formula_sum              "Mn16 P16 O128 H32 C32"
_cell_length_a       9.69
_cell_length_b       14.4331
_cell_length_c       29.8442
_cell_angle_alpha    90
_cell_angle_beta     90
_cell_angle_gamma    90

_space_group_name_H-M_alt    "P 1"
_space_group_IT_number       1

loop_
  _space_group_symop_operation_xyz
  'x, y, z'

loop_
  _atom_site_type_symbol
  _atom_site_label
  _atom_site_symmetry_multiplicity
  _atom_site_fract_x
  _atom_site_fract_y
  _atom_site_fract_z
  _atom_site_occupancy
  Mn  Mn1       1.0  0.13053  0.23551  0.70051  1.0000
  Mn  Mn2       1.0  0.36947  0.76449  0.20051  1.0000
  Mn  Mn3       1.0  0.86947  0.73551  0.79949  1.0000
  Mn  Mn4       1.0  0.63053  0.26449  0.29949  1.0000
  Mn  Mn5       1.0  0.86947  0.76449  0.29949  1.0000
  Mn  Mn6       1.0  0.63053  0.23551  0.79949  1.0000
  Mn  Mn7       1.0  0.13053  0.26449  0.20051  1.0000
  Mn  Mn8       1.0  0.36947  0.73551  0.70051  1.0000
  Mn  Mn9       1.0  0.24975  0.45728  0.54606  1.0000
  Mn  Mn10      1.0  0.25025  0.54272  0.04606  1.0000
  Mn  Mn11      1.0  0.75025  0.95728  0.95394  1.0000
  Mn  Mn12      1.0  0.74975  0.04272  0.45394  1.0000
  Mn  Mn13      1.0  0.75025  0.54272  0.45394  1.0000
  Mn  Mn14      1.0  0.74975  0.45728  0.95394  1.0000
  Mn  Mn15      1.0  0.24975  0.04272  0.04606  1.0000
  Mn  Mn16      1.0  0.25025  0.95728  0.54606  1.0000
  P   P1        1.0  0.06314  0.29612  0.59580  1.0000
  P   P2        1.0  0.43686  0.70388  0.09580  1.0000
  P   P3        1.0  0.93686  0.79612  0.90420  1.0000
  P   P4        1.0  0.56314  0.20388  0.40420  1.0000
  P   P5        1.0  0.93686  0.70388  0.40420  1.0000
  P   P6        1.0  0.56314  0.29612  0.90420  1.0000
  P   P7        1.0  0.06314  0.20388  0.09580  1.0000
  P   P8        1.0  0.43686  0.79612  0.59580  1.0000
  P   P9        1.0  0.28638  0.53050  0.65278  1.0000
  P   P10       1.0  0.21362  0.46950  0.15278  1.0000
  P   P11       1.0  0.71362  0.03050  0.84722  1.0000
  P   P12       1.0  0.78638  0.96950  0.34722  1.0000
  P   P13       1.0  0.71362  0.46950  0.34722  1.0000
  P   P14       1.0  0.78638  0.53050  0.84722  1.0000
  P   P15       1.0  0.28638  0.96950  0.15278  1.0000
  P   P16       1.0  0.21362  0.03050  0.65278  1.0000
  O   O1        1.0  0.32540  0.50290  0.60690  1.0000
  O   O2        1.0  0.17460  0.49710  0.10690  1.0000
  O   O3        1.0  0.67460  0.00290  0.89310  1.0000
  O   O4        1.0  0.82540  0.99710  0.39310  1.0000
  O   O5        1.0  0.67460  0.49710  0.39310  1.0000
  O   O6        1.0  0.82540  0.50290  0.89310  1.0000
  O   O7        1.0  0.32540  0.99710  0.10690  1.0000
  O   O8        1.0  0.17460  0.00290  0.60690  1.0000
  O   O9        1.0  0.39390  0.49025  0.68610  1.0000
  O   O10       1.0  0.10610  0.50975  0.18610  1.0000
  O   O11       1.0  0.60610  0.99025  0.81390  1.0000
  O   O12       1.0  0.89390  0.00975  0.31390  1.0000
  O   O13       1.0  0.60610  0.50975  0.31390  1.0000
  O   O14       1.0  0.89390  0.49025  0.81390  1.0000
  O   O15       1.0  0.39390  0.00975  0.18610  1.0000
  O   O16       1.0  0.10610  0.99025  0.68610  1.0000
  H   H1        1.0  0.37130  0.43750  0.69320  1.0000
  H   H2        1.0  0.12870  0.56250  0.19320  1.0000
  H   H3        1.0  0.62870  0.93750  0.80680  1.0000
  H   H4        1.0  0.87130  0.06250  0.30680  1.0000
  H   H5        1.0  0.62870  0.56250  0.30680  1.0000
  H   H6        1.0  0.87130  0.43750  0.80680  1.0000
  H   H7        1.0  0.37130  0.06250  0.19320  1.0000
  H   H8        1.0  0.12870  0.93750  0.69320  1.0000
  O   O17       1.0  0.14270  0.49169  0.66564  1.0000
  O   O18       1.0  0.35730  0.50831  0.16564  1.0000
  O   O19       1.0  0.85730  0.99169  0.83436  1.0000
  O   O20       1.0  0.64270  0.00831  0.33436  1.0000
  O   O21       1.0  0.85730  0.50831  0.33436  1.0000
  O   O22       1.0  0.64270  0.49169  0.83436  1.0000
  O   O23       1.0  0.14270  0.00831  0.16564  1.0000
  O   O24       1.0  0.35730  0.99169  0.66564  1.0000
  H   H9        1.0  0.13630  0.43790  0.65700  1.0000
  H   H10       1.0  0.36370  0.56210  0.15700  1.0000
  H   H11       1.0  0.86370  0.93790  0.84300  1.0000
  H   H12       1.0  0.63630  0.06210  0.34300  1.0000
  H   H13       1.0  0.86370  0.56210  0.34300  1.0000
  H   H14       1.0  0.63630  0.43790  0.84300  1.0000
  H   H15       1.0  0.13630  0.06210  0.15700  1.0000
  H   H16       1.0  0.36370  0.93790  0.65700  1.0000
  O   O25       1.0  0.28170  0.63260  0.65879  1.0000
  O   O26       1.0  0.21830  0.36740  0.15879  1.0000
  O   O27       1.0  0.71830  0.13260  0.84121  1.0000
  O   O28       1.0  0.78170  0.86740  0.34121  1.0000
  O   O29       1.0  0.71830  0.36740  0.34121  1.0000
  O   O30       1.0  0.78170  0.63260  0.84121  1.0000
  O   O31       1.0  0.28170  0.86740  0.15879  1.0000
  O   O32       1.0  0.21830  0.13260  0.65879  1.0000
  O   O33       1.0  0.18810  0.32170  0.56932  1.0000
  O   O34       1.0  0.31190  0.67830  0.06932  1.0000
  O   O35       1.0  0.81190  0.82170  0.93068  1.0000
  O   O36       1.0  0.68810  0.17830  0.43068  1.0000
  O   O37       1.0  0.81190  0.67830  0.43068  1.0000
  O   O38       1.0  0.68810  0.32170  0.93068  1.0000
  O   O39       1.0  0.18810  0.17830  0.06932  1.0000
  O   O40       1.0  0.31190  0.82170  0.56932  1.0000
  O   O41       1.0  0.07590  0.32026  0.64442  1.0000
  O   O42       1.0  0.42410  0.67974  0.14442  1.0000
  O   O43       1.0  0.92410  0.82026  0.85558  1.0000
  O   O44       1.0  0.57590  0.17974  0.35558  1.0000
  O   O45       1.0  0.92410  0.67974  0.35558  1.0000
  O   O46       1.0  0.57590  0.32026  0.85558  1.0000
  O   O47       1.0  0.07590  0.17974  0.14442  1.0000
  O   O48       1.0  0.42410  0.82026  0.64442  1.0000
  O   O49       1.0  0.93110  0.34434  0.57759  1.0000
  O   O50       1.0  0.56890  0.65566  0.07759  1.0000
  O   O51       1.0  0.06890  0.84434  0.92241  1.0000
  O   O52       1.0  0.43110  0.15566  0.42241  1.0000
  O   O53       1.0  0.06890  0.65566  0.42241  1.0000
  O   O54       1.0  0.43110  0.34434  0.92241  1.0000
  O   O55       1.0  0.93110  0.15566  0.07759  1.0000
  O   O56       1.0  0.56890  0.84434  0.57759  1.0000
  H   H17       1.0  0.95040  0.39680  0.56910  1.0000
  H   H18       1.0  0.54960  0.60320  0.06910  1.0000
  H   H19       1.0  0.04960  0.89680  0.93090  1.0000
  H   H20       1.0  0.45040  0.10320  0.43090  1.0000
  H   H21       1.0  0.04960  0.60320  0.43090  1.0000
  H   H22       1.0  0.45040  0.39680  0.93090  1.0000
  H   H23       1.0  0.95040  0.10320  0.06910  1.0000
  H   H24       1.0  0.54960  0.89680  0.56910  1.0000
  O   O57       1.0  0.02840  0.19072  0.58922  1.0000
  O   O58       1.0  0.47160  0.80928  0.08922  1.0000
  O   O59       1.0  0.97160  0.69072  0.91078  1.0000
  O   O60       1.0  0.52840  0.30928  0.41078  1.0000
  O   O61       1.0  0.97160  0.80928  0.41078  1.0000
  O   O62       1.0  0.52840  0.19072  0.91078  1.0000
  O   O63       1.0  0.02840  0.30928  0.08922  1.0000
  O   O64       1.0  0.47160  0.69072  0.58922  1.0000
  H   H25       1.0  0.07410  0.15970  0.60680  1.0000
  H   H26       1.0  0.42590  0.84030  0.10680  1.0000
  H   H27       1.0  0.92590  0.65970  0.89320  1.0000
  H   H28       1.0  0.57410  0.34030  0.39320  1.0000
  H   H29       1.0  0.92590  0.84030  0.39320  1.0000
  H   H30       1.0  0.57410  0.15970  0.89320  1.0000
  H   H31       1.0  0.07410  0.34030  0.10680  1.0000
  H   H32       1.0  0.42590  0.65970  0.60680  1.0000
  O   O65       1.0  0.44610  0.39624  0.52473  1.0000
  O   O66       1.0  0.05390  0.60376  0.02473  1.0000
  O   O67       1.0  0.55390  0.89624  0.97527  1.0000
  O   O68       1.0  0.94610  0.10376  0.47527  1.0000
  O   O69       1.0  0.55390  0.60376  0.47527  1.0000
  O   O70       1.0  0.94610  0.39624  0.97527  1.0000
  O   O71       1.0  0.44610  0.10376  0.02473  1.0000
  O   O72       1.0  0.05390  0.89624  0.52473  1.0000
  O   O73       1.0  0.64490  0.43180  0.49199  1.0000
  O   O74       1.0  0.85510  0.56820  0.99199  1.0000
  O   O75       1.0  0.35510  0.93180  0.00801  1.0000
  O   O76       1.0  0.14490  0.06820  0.50801  1.0000
  O   O77       1.0  0.35510  0.56820  0.50801  1.0000
  O   O78       1.0  0.14490  0.43180  0.00801  1.0000
  O   O79       1.0  0.64490  0.06820  0.99199  1.0000
  O   O80       1.0  0.85510  0.93180  0.49199  1.0000
  O   O81       1.0  0.13050  0.42305  0.48493  1.0000
  O   O82       1.0  0.36950  0.57695  0.98493  1.0000
  O   O83       1.0  0.86950  0.92305  0.01507  1.0000
  O   O84       1.0  0.63050  0.07695  0.51507  1.0000
  O   O85       1.0  0.86950  0.57695  0.51507  1.0000
  O   O86       1.0  0.63050  0.42305  0.01507  1.0000
  O   O87       1.0  0.13050  0.07695  0.98493  1.0000
  O   O88       1.0  0.36950  0.92305  0.48493  1.0000
  O   O89       1.0  0.93200  0.45352  0.45081  1.0000
  O   O90       1.0  0.56800  0.54648  0.95081  1.0000
  O   O91       1.0  0.06800  0.95352  0.04919  1.0000
  O   O92       1.0  0.43200  0.04648  0.54919  1.0000
  O   O93       1.0  0.06800  0.54648  0.54919  1.0000
  O   O94       1.0  0.43200  0.45352  0.04919  1.0000
  O   O95       1.0  0.93200  0.04648  0.95081  1.0000
  O   O96       1.0  0.56800  0.95352  0.45081  1.0000
  O   O97       1.0  0.92710  0.17063  0.70349  1.0000
  O   O98       1.0  0.57290  0.82937  0.20349  1.0000
  O   O99       1.0  0.07290  0.67063  0.79651  1.0000
  O   O100      1.0  0.42710  0.32937  0.29651  1.0000
  O   O101      1.0  0.07290  0.82937  0.29651  1.0000
  O   O102      1.0  0.42710  0.17063  0.79651  1.0000
  O   O103      1.0  0.92710  0.32937  0.20349  1.0000
  O   O104      1.0  0.57290  0.67063  0.70349  1.0000
  O   O105      1.0  0.01570  0.31810  0.75027  1.0000
  O   O106      1.0  0.48430  0.68190  0.25027  1.0000
  O   O107      1.0  0.98430  0.81810  0.74973  1.0000
  O   O108      1.0  0.51570  0.18190  0.24973  1.0000
  O   O109      1.0  0.98430  0.68190  0.24973  1.0000
  O   O110      1.0  0.51570  0.31810  0.74973  1.0000
  O   O111      1.0  0.01570  0.18190  0.25027  1.0000
  O   O112      1.0  0.48430  0.81810  0.75027  1.0000
  O   O113      1.0  0.73160  0.17220  0.74166  1.0000
  O   O114      1.0  0.76840  0.82780  0.24166  1.0000
  O   O115      1.0  0.26840  0.67220  0.75834  1.0000
  O   O116      1.0  0.23160  0.32780  0.25834  1.0000
  O   O117      1.0  0.26840  0.82780  0.25834  1.0000
  O   O118      1.0  0.23160  0.17220  0.75834  1.0000
  O   O119      1.0  0.73160  0.32780  0.24166  1.0000
  O   O120      1.0  0.76840  0.67220  0.74166  1.0000
  O   O121      1.0  0.82200  0.31753  0.78965  1.0000
  O   O122      1.0  0.67800  0.68247  0.28965  1.0000
  O   O123      1.0  0.17800  0.81753  0.71035  1.0000
  O   O124      1.0  0.32200  0.18247  0.21035  1.0000
  O   O125      1.0  0.17800  0.68247  0.21035  1.0000
  O   O126      1.0  0.32200  0.31753  0.71035  1.0000
  O   O127      1.0  0.82200  0.18247  0.28965  1.0000
  O   O128      1.0  0.67800  0.81753  0.78965  1.0000
  C   C1        1.0  0.52600  0.45020  0.50465  1.0000
  C   C2        1.0  0.97400  0.54980  0.00465  1.0000
  C   C3        1.0  0.47400  0.95020  0.99535  1.0000
  C   C4        1.0  0.02600  0.04980  0.49535  1.0000
  C   C5        1.0  0.47400  0.54980  0.49535  1.0000
  C   C6        1.0  0.02600  0.45020  0.99535  1.0000
  C   C7        1.0  0.52600  0.04980  0.00465  1.0000
  C   C8        1.0  0.97400  0.95020  0.50465  1.0000
  C   C9        1.0  0.01870  0.46420  0.48163  1.0000
  C   C10       1.0  0.48130  0.53580  0.98163  1.0000
  C   C11       1.0  0.98130  0.96420  0.01837  1.0000
  C   C12       1.0  0.51870  0.03580  0.51837  1.0000
  C   C13       1.0  0.98130  0.53580  0.51837  1.0000
  C   C14       1.0  0.51870  0.46420  0.01837  1.0000
  C   C15       1.0  0.01870  0.03580  0.98163  1.0000
  C   C16       1.0  0.48130  0.96420  0.48163  1.0000
  C   C17       1.0  0.84890  0.20200  0.73337  1.0000
  C   C18       1.0  0.65110  0.79800  0.23337  1.0000
  C   C19       1.0  0.15110  0.70200  0.76663  1.0000
  C   C20       1.0  0.34890  0.29800  0.26663  1.0000
  C   C21       1.0  0.15110  0.79800  0.26663  1.0000
  C   C22       1.0  0.34890  0.20200  0.76663  1.0000
  C   C23       1.0  0.84890  0.29800  0.23337  1.0000
  C   C24       1.0  0.65110  0.70200  0.73337  1.0000
  C   C25       1.0  0.90140  0.28650  0.76006  1.0000
  C   C26       1.0  0.59860  0.71350  0.26006  1.0000
  C   C27       1.0  0.09860  0.78650  0.73994  1.0000
  C   C28       1.0  0.40140  0.21350  0.23994  1.0000
  C   C29       1.0  0.09860  0.71350  0.23994  1.0000
  C   C30       1.0  0.40140  0.28650  0.73994  1.0000
  C   C31       1.0  0.90140  0.21350  0.26006  1.0000
  C   C32       1.0  0.59860  0.78650  0.76006  1.0000
