data_image0
_chemical_formula_structural       C8N12Cu4Cl4
_chemical_formula_sum              "C8 N12 Cu4 Cl4"
_cell_length_a       12.955
_cell_length_b       29.9368
_cell_length_c       8.4811
_cell_angle_alpha    90
_cell_angle_beta     90
_cell_angle_gamma    90

_space_group_name_H-M_alt    "P 1"
_space_group_IT_number       1

loop_
  _space_group_symop_operation_xyz
  'x, y, z'

loop_
  _atom_site_type_symbol
  _atom_site_label
  _atom_site_symmetry_multiplicity
  _atom_site_fract_x
  _atom_site_fract_y
  _atom_site_fract_z
  _atom_site_occupancy
  C   C1        1.0  0.85310  0.25000  0.60330  1.0000
  C   C2        1.0  0.64690  0.75000  0.10330  1.0000
  C   C3        1.0  0.35310  0.25000  0.89670  1.0000
  C   C4        1.0  0.14690  0.75000  0.39670  1.0000
  C   C5        1.0  0.98140  0.25000  0.79080  1.0000
  C   C6        1.0  0.51860  0.75000  0.29080  1.0000
  C   C7        1.0  0.48140  0.25000  0.70920  1.0000
  C   C8        1.0  0.01860  0.75000  0.20920  1.0000
  N   N1        1.0  0.77360  0.25000  0.54580  1.0000
  N   N2        1.0  0.72640  0.75000  0.04580  1.0000
  N   N3        1.0  0.27360  0.25000  0.95420  1.0000
  N   N4        1.0  0.22640  0.75000  0.45420  1.0000
  N   N5        1.0  0.94810  0.25000  0.64690  1.0000
  N   N6        1.0  0.55190  0.75000  0.14690  1.0000
  N   N7        1.0  0.44810  0.25000  0.85310  1.0000
  N   N8        1.0  0.05190  0.75000  0.35310  1.0000
  N   N9        1.0  0.02660  0.25000  0.90800  1.0000
  N   N10       1.0  0.47340  0.75000  0.40800  1.0000
  N   N11       1.0  0.52660  0.25000  0.59200  1.0000
  N   N12       1.0  0.97340  0.75000  0.09200  1.0000
  Cu  Cu1       1.0  0.63788  0.25000  0.43724  1.0000
  Cu  Cu2       1.0  0.86212  0.75000  0.93724  1.0000
  Cu  Cu3       1.0  0.13788  0.25000  0.06276  1.0000
  Cu  Cu4       1.0  0.36212  0.75000  0.56276  1.0000
  Cl  Cl1       1.0  0.64796  0.25000  0.17425  1.0000
  Cl  Cl2       1.0  0.85204  0.75000  0.67425  1.0000
  Cl  Cl3       1.0  0.14796  0.25000  0.32575  1.0000
  Cl  Cl4       1.0  0.35204  0.75000  0.82575  1.0000
