data_image0
_chemical_formula_structural       Cu4Cl4C4N4C4N8
_chemical_formula_sum              "Cu4 Cl4 C8 N12"
_cell_length_a       12.929
_cell_length_b       29.879
_cell_length_c       8.457
_cell_angle_alpha    90
_cell_angle_beta     90
_cell_angle_gamma    90

_space_group_name_H-M_alt    "P 1"
_space_group_IT_number       1

loop_
  _space_group_symop_operation_xyz
  'x, y, z'

loop_
  _atom_site_type_symbol
  _atom_site_label
  _atom_site_symmetry_multiplicity
  _atom_site_fract_x
  _atom_site_fract_y
  _atom_site_fract_z
  _atom_site_occupancy
  Cu  Cu1       1.0  0.86150  0.25000  0.56491  1.0000
  Cu  Cu2       1.0  0.63850  0.75000  0.06491  1.0000
  Cu  Cu3       1.0  0.13850  0.75000  0.43509  1.0000
  Cu  Cu4       1.0  0.36150  0.25000  0.93509  1.0000
  Cl  Cl1       1.0  0.85089  0.25000  0.82400  1.0000
  Cl  Cl2       1.0  0.64911  0.75000  0.32400  1.0000
  Cl  Cl3       1.0  0.14911  0.75000  0.17600  1.0000
  Cl  Cl4       1.0  0.35089  0.25000  0.67600  1.0000
  C   C1        1.0  0.64500  0.25000  0.39780  1.0000
  C   C2        1.0  0.85500  0.75000  0.89780  1.0000
  C   C3        1.0  0.35500  0.75000  0.60220  1.0000
  C   C4        1.0  0.14500  0.25000  0.10220  1.0000
  N   N1        1.0  0.72560  0.25000  0.45750  1.0000
  N   N2        1.0  0.77440  0.75000  0.95750  1.0000
  N   N3        1.0  0.27440  0.75000  0.54250  1.0000
  N   N4        1.0  0.22560  0.25000  0.04250  1.0000
  C   C5        1.0  0.51680  0.25000  0.20630  1.0000
  C   C6        1.0  0.98320  0.75000  0.70630  1.0000
  C   C7        1.0  0.48320  0.75000  0.79370  1.0000
  C   C8        1.0  0.01680  0.25000  0.29370  1.0000
  N   N5        1.0  0.47400  0.25000  0.09110  1.0000
  N   N6        1.0  0.02600  0.75000  0.59110  1.0000
  N   N7        1.0  0.52600  0.75000  0.90890  1.0000
  N   N8        1.0  0.97400  0.25000  0.40890  1.0000
  N   N9        1.0  0.55090  0.25000  0.35450  1.0000
  N   N10       1.0  0.94910  0.75000  0.85450  1.0000
  N   N11       1.0  0.44910  0.75000  0.64550  1.0000
  N   N12       1.0  0.05090  0.25000  0.14550  1.0000
