data_image0
_chemical_formula_structural       Cu4O2H4O4H4O2H2O4H2O8H2O4H2O6H2O8H2O2P12C4H2C4H2C4H2C2H4C2H4C2H4C4H2C4H2C4H2C2H4C2H4C2H4
_chemical_formula_sum              "Cu4 O40 H56 P12 C36"
_cell_length_a       7.5069
_cell_length_b       12.8076
_cell_length_c       22.2479
_cell_angle_alpha    93.887
_cell_angle_beta     94.965
_cell_angle_gamma    92.39

_space_group_name_H-M_alt    "P 1"
_space_group_IT_number       1

loop_
  _space_group_symop_operation_xyz
  'x, y, z'

loop_
  _atom_site_type_symbol
  _atom_site_label
  _atom_site_symmetry_multiplicity
  _atom_site_fract_x
  _atom_site_fract_y
  _atom_site_fract_z
  _atom_site_occupancy
  Cu  Cu1       1.0  0.40667  0.70250  0.78060  1.0000
  Cu  Cu2       1.0  0.59333  0.29750  0.21940  1.0000
  Cu  Cu3       1.0  0.94634  0.18514  0.27758  1.0000
  Cu  Cu4       1.0  0.05366  0.81486  0.72242  1.0000
  O   O1        1.0  0.04400  0.17610  0.19800  1.0000
  O   O2        1.0  0.95600  0.82390  0.80200  1.0000
  H   H1        1.0  0.03830  0.24000  0.19020  1.0000
  H   H2        1.0  0.96170  0.76000  0.80980  1.0000
  H   H3        1.0  0.13330  0.13750  0.20020  1.0000
  H   H4        1.0  0.86670  0.86250  0.79980  1.0000
  O   O3        1.0  0.76330  0.58480  0.18890  1.0000
  O   O4        1.0  0.23670  0.41520  0.81110  1.0000
  O   O5        1.0  0.52710  0.68300  0.70530  1.0000
  O   O6        1.0  0.47290  0.31700  0.29470  1.0000
  H   H5        1.0  0.53710  0.74390  0.69250  1.0000
  H   H6        1.0  0.46290  0.25610  0.30750  1.0000
  H   H7        1.0  0.61430  0.64410  0.70010  1.0000
  H   H8        1.0  0.38570  0.35590  0.29990  1.0000
  O   O7        1.0  0.59210  0.49830  0.09720  1.0000
  O   O8        1.0  0.40790  0.50170  0.90280  1.0000
  H   H9        1.0  0.53350  0.44320  0.08790  1.0000
  H   H10       1.0  0.46650  0.55680  0.91210  1.0000
  O   O9        1.0  0.53520  0.43680  0.20240  1.0000
  O   O10       1.0  0.46480  0.56320  0.79760  1.0000
  O   O11       1.0  0.50520  0.98730  0.26870  1.0000
  O   O12       1.0  0.49480  0.01270  0.73130  1.0000
  H   H11       1.0  0.40280  0.96130  0.26430  1.0000
  H   H12       1.0  0.59720  0.03870  0.73570  1.0000
  O   O13       1.0  0.35940  0.08450  0.18270  1.0000
  O   O14       1.0  0.64060  0.91550  0.81730  1.0000
  O   O15       1.0  0.64740  0.15570  0.24300  1.0000
  O   O16       1.0  0.35260  0.84430  0.75700  1.0000
  O   O17       1.0  0.57400  0.66460  0.94140  1.0000
  O   O18       1.0  0.42600  0.33540  0.05860  1.0000
  O   O19       1.0  0.61140  0.85370  0.92250  1.0000
  O   O20       1.0  0.38860  0.14630  0.07750  1.0000
  H   H13       1.0  0.61590  0.87070  0.88770  1.0000
  H   H14       1.0  0.38410  0.12930  0.11230  1.0000
  O   O21       1.0  0.35870  0.74150  0.86310  1.0000
  O   O22       1.0  0.64130  0.25850  0.13690  1.0000
  O   O23       1.0  0.78890  0.00860  0.62260  1.0000
  O   O24       1.0  0.21110  0.99140  0.37740  1.0000
  H   H15       1.0  0.84340  0.96600  0.60300  1.0000
  H   H16       1.0  0.15660  0.03400  0.39700  1.0000
  O   O25       1.0  0.78700  0.11970  0.71640  1.0000
  O   O26       1.0  0.21300  0.88030  0.28360  1.0000
  O   O27       1.0  0.96620  0.95380  0.71790  1.0000
  O   O28       1.0  0.03380  0.04620  0.28210  1.0000
  O   O29       1.0  0.97280  0.49460  0.75650  1.0000
  O   O30       1.0  0.02720  0.50540  0.24350  1.0000
  H   H17       1.0  0.06560  0.47230  0.77190  1.0000
  H   H18       1.0  0.93440  0.52770  0.22810  1.0000
  O   O31       1.0  0.84250  0.59580  0.67500  1.0000
  O   O32       1.0  0.15750  0.40420  0.32500  1.0000
  O   O33       1.0  0.12160  0.67010  0.73850  1.0000
  O   O34       1.0  0.87840  0.32990  0.26150  1.0000
  O   O35       1.0  0.07970  0.12270  0.44700  1.0000
  O   O36       1.0  0.92030  0.87730  0.55300  1.0000
  O   O37       1.0  0.16970  0.29990  0.41830  1.0000
  O   O38       1.0  0.83030  0.70010  0.58170  1.0000
  H   H19       1.0  0.15460  0.32990  0.38690  1.0000
  H   H20       1.0  0.84540  0.67010  0.61310  1.0000
  O   O39       1.0  0.89650  0.20610  0.36230  1.0000
  O   O40       1.0  0.10350  0.79390  0.63770  1.0000
  P   P1        1.0  0.58730  0.52817  0.16668  1.0000
  P   P2        1.0  0.41270  0.47183  0.83332  1.0000
  P   P3        1.0  0.53460  0.05980  0.21592  1.0000
  P   P4        1.0  0.46540  0.94020  0.78408  1.0000
  P   P5        1.0  0.47350  0.75742  0.92272  1.0000
  P   P6        1.0  0.52650  0.24258  0.07728  1.0000
  P   P7        1.0  0.90380  0.04503  0.68324  1.0000
  P   P8        1.0  0.09620  0.95497  0.31676  1.0000
  P   P9        1.0  0.01850  0.57281  0.70855  1.0000
  P   P10       1.0  0.98150  0.42719  0.29145  1.0000
  P   P11       1.0  0.00890  0.22128  0.42265  1.0000
  P   P12       1.0  0.99110  0.77872  0.57735  1.0000
  C   C1        1.0  0.44020  0.71340  0.13680  1.0000
  C   C2        1.0  0.55980  0.28660  0.86320  1.0000
  C   C3        1.0  0.53470  0.80330  0.16430  1.0000
  C   C4        1.0  0.46530  0.19670  0.83570  1.0000
  H   H21       1.0  0.57790  0.80380  0.20480  1.0000
  H   H22       1.0  0.42210  0.19620  0.79520  1.0000
  C   C5        1.0  0.56580  0.89080  0.13350  1.0000
  C   C6        1.0  0.43420  0.10920  0.86650  1.0000
  C   C7        1.0  0.49720  0.88960  0.07240  1.0000
  C   C8        1.0  0.50280  0.11040  0.92760  1.0000
  H   H23       1.0  0.51380  0.94840  0.05080  1.0000
  H   H24       1.0  0.48620  0.05160  0.94920  1.0000
  C   C9        1.0  0.40400  0.79950  0.04410  1.0000
  C   C10       1.0  0.59600  0.20050  0.95590  1.0000
  C   C11       1.0  0.37660  0.71270  0.07660  1.0000
  C   C12       1.0  0.62340  0.28730  0.92340  1.0000
  H   H25       1.0  0.31470  0.65330  0.05770  1.0000
  H   H26       1.0  0.68530  0.34670  0.94230  1.0000
  C   C13       1.0  0.40890  0.61670  0.17220  1.0000
  C   C14       1.0  0.59110  0.38330  0.82780  1.0000
  H   H27       1.0  0.29650  0.58070  0.15650  1.0000
  H   H28       1.0  0.70350  0.41930  0.84350  1.0000
  H   H29       1.0  0.40010  0.63870  0.21430  1.0000
  H   H30       1.0  0.59990  0.36130  0.78570  1.0000
  C   C15       1.0  0.66560  0.98830  0.16470  1.0000
  C   C16       1.0  0.33440  0.01170  0.83530  1.0000
  H   H31       1.0  0.70050  0.03390  0.13430  1.0000
  H   H32       1.0  0.29950  0.96610  0.86570  1.0000
  H   H33       1.0  0.77400  0.96780  0.18700  1.0000
  H   H34       1.0  0.22600  0.03220  0.81300  1.0000
  C   C17       1.0  0.32720  0.79630  0.97810  1.0000
  C   C18       1.0  0.67280  0.20370  0.02190  1.0000
  H   H35       1.0  0.28770  0.86560  0.97000  1.0000
  H   H36       1.0  0.71230  0.13440  0.03000  1.0000
  H   H37       1.0  0.22220  0.74880  0.97300  1.0000
  H   H38       1.0  0.77780  0.25120  0.02700  1.0000
  C   C19       1.0  0.07410  0.21280  0.63230  1.0000
  C   C20       1.0  0.92590  0.78720  0.36770  1.0000
  C   C21       1.0  0.12640  0.31200  0.65870  1.0000
  C   C22       1.0  0.87360  0.68800  0.34130  1.0000
  H   H39       1.0  0.18050  0.31810  0.69810  1.0000
  H   H40       1.0  0.81950  0.68190  0.30190  1.0000
  C   C23       1.0  0.10120  0.40180  0.62870  1.0000
  C   C24       1.0  0.89880  0.59820  0.37130  1.0000
  C   C25       1.0  0.02070  0.39120  0.56940  1.0000
  C   C26       1.0  0.97930  0.60880  0.43060  1.0000
  H   H41       1.0  0.00430  0.45080  0.54820  1.0000
  H   H42       1.0  0.99570  0.54920  0.45180  1.0000
  C   C27       1.0  0.96510  0.29480  0.54160  1.0000
  C   C28       1.0  0.03490  0.70520  0.45840  1.0000
  C   C29       1.0  0.99170  0.20620  0.57320  1.0000
  C   C30       1.0  0.00830  0.79380  0.42680  1.0000
  H   H43       1.0  0.95380  0.14080  0.55470  1.0000
  H   H44       1.0  0.04620  0.85920  0.44530  1.0000
  C   C31       1.0  0.10290  0.11460  0.66550  1.0000
  C   C32       1.0  0.89710  0.88540  0.33450  1.0000
  H   H45       1.0  0.17660  0.13370  0.70290  1.0000
  H   H46       1.0  0.82340  0.86630  0.29710  1.0000
  H   H47       1.0  0.16960  0.06730  0.64100  1.0000
  H   H48       1.0  0.83040  0.93270  0.35900  1.0000
  C   C33       1.0  0.16390  0.50920  0.65890  1.0000
  C   C34       1.0  0.83610  0.49080  0.34110  1.0000
  H   H49       1.0  0.18520  0.55550  0.62720  1.0000
  H   H50       1.0  0.81480  0.44450  0.37280  1.0000
  H   H51       1.0  0.27800  0.50190  0.68180  1.0000
  H   H52       1.0  0.72200  0.49810  0.31820  1.0000
  C   C35       1.0  0.87480  0.27980  0.47700  1.0000
  C   C36       1.0  0.12520  0.72020  0.52300  1.0000
  H   H53       1.0  0.84090  0.34770  0.46410  1.0000
  H   H54       1.0  0.15910  0.65230  0.53590  1.0000
  H   H55       1.0  0.76580  0.23650  0.47740  1.0000
  H   H56       1.0  0.23420  0.76350  0.52260  1.0000
