data_image0
_chemical_formula_structural       Bi4K4S8C8N8S8C8N8S4C4N4S4C4N4
_chemical_formula_sum              "Bi4 K4 S24 C24 N24"
_cell_length_a       29.072
_cell_length_b       14.828
_cell_length_c       11.719
_cell_angle_alpha    90
_cell_angle_beta     90
_cell_angle_gamma    90

_space_group_name_H-M_alt    "P 1"
_space_group_IT_number       1

loop_
  _space_group_symop_operation_xyz
  'x, y, z'

loop_
  _atom_site_type_symbol
  _atom_site_label
  _atom_site_symmetry_multiplicity
  _atom_site_fract_x
  _atom_site_fract_y
  _atom_site_fract_z
  _atom_site_occupancy
  Bi  Bi1       1.0  0.12280  0.25000  0.10510  1.0000
  Bi  Bi2       1.0  0.37720  0.75000  0.60510  1.0000
  Bi  Bi3       1.0  0.87720  0.75000  0.89490  1.0000
  Bi  Bi4       1.0  0.62280  0.25000  0.39490  1.0000
  K   K1        1.0  0.12090  0.25000  0.61050  1.0000
  K   K2        1.0  0.37910  0.75000  0.11050  1.0000
  K   K3        1.0  0.87910  0.75000  0.38950  1.0000
  K   K4        1.0  0.62090  0.25000  0.88950  1.0000
  S   S1        1.0  0.07170  0.11200  0.21000  1.0000
  S   S2        1.0  0.42830  0.61200  0.71000  1.0000
  S   S3        1.0  0.07170  0.38800  0.21000  1.0000
  S   S4        1.0  0.42830  0.88800  0.71000  1.0000
  S   S5        1.0  0.92830  0.88800  0.79000  1.0000
  S   S6        1.0  0.57170  0.38800  0.29000  1.0000
  S   S7        1.0  0.92830  0.61200  0.79000  1.0000
  S   S8        1.0  0.57170  0.11200  0.29000  1.0000
  C   C1        1.0  0.08100  0.12900  0.34570  1.0000
  C   C2        1.0  0.41900  0.62900  0.84570  1.0000
  C   C3        1.0  0.08100  0.37100  0.34570  1.0000
  C   C4        1.0  0.41900  0.87100  0.84570  1.0000
  C   C5        1.0  0.91900  0.87100  0.65430  1.0000
  C   C6        1.0  0.58100  0.37100  0.15430  1.0000
  C   C7        1.0  0.91900  0.62900  0.65430  1.0000
  C   C8        1.0  0.58100  0.12900  0.15430  1.0000
  N   N1        1.0  0.08760  0.13890  0.44050  1.0000
  N   N2        1.0  0.41240  0.63890  0.94050  1.0000
  N   N3        1.0  0.08760  0.36110  0.44050  1.0000
  N   N4        1.0  0.41240  0.86110  0.94050  1.0000
  N   N5        1.0  0.91240  0.86110  0.55950  1.0000
  N   N6        1.0  0.58760  0.36110  0.05950  1.0000
  N   N7        1.0  0.91240  0.63890  0.55950  1.0000
  N   N8        1.0  0.58760  0.13890  0.05950  1.0000
  S   S9        1.0  0.17440  0.11030  0.00260  1.0000
  S   S10       1.0  0.32560  0.61030  0.50260  1.0000
  S   S11       1.0  0.17440  0.38970  0.00260  1.0000
  S   S12       1.0  0.32560  0.88970  0.50260  1.0000
  S   S13       1.0  0.82560  0.88970  0.99740  1.0000
  S   S14       1.0  0.67440  0.38970  0.49740  1.0000
  S   S15       1.0  0.82560  0.61030  0.99740  1.0000
  S   S16       1.0  0.67440  0.11030  0.49740  1.0000
  C   C9        1.0  0.16560  0.12840  0.86910  1.0000
  C   C10       1.0  0.33440  0.62840  0.36910  1.0000
  C   C11       1.0  0.16560  0.37160  0.86910  1.0000
  C   C12       1.0  0.33440  0.87160  0.36910  1.0000
  C   C13       1.0  0.83440  0.87160  0.13090  1.0000
  C   C14       1.0  0.66560  0.37160  0.63090  1.0000
  C   C15       1.0  0.83440  0.62840  0.13090  1.0000
  C   C16       1.0  0.66560  0.12840  0.63090  1.0000
  N   N9        1.0  0.15900  0.13710  0.77570  1.0000
  N   N10       1.0  0.34100  0.63710  0.27570  1.0000
  N   N11       1.0  0.15900  0.36290  0.77570  1.0000
  N   N12       1.0  0.34100  0.86290  0.27570  1.0000
  N   N13       1.0  0.84100  0.86290  0.22430  1.0000
  N   N14       1.0  0.65900  0.36290  0.72430  1.0000
  N   N15       1.0  0.84100  0.63710  0.22430  1.0000
  N   N16       1.0  0.65900  0.13710  0.72430  1.0000
  S   S17       1.0  0.02270  0.25000  0.75490  1.0000
  S   S18       1.0  0.47730  0.75000  0.25490  1.0000
  S   S19       1.0  0.97730  0.75000  0.24510  1.0000
  S   S20       1.0  0.52270  0.25000  0.74510  1.0000
  C   C17       1.0  0.04740  0.25000  0.87790  1.0000
  C   C18       1.0  0.45260  0.75000  0.37790  1.0000
  C   C19       1.0  0.95260  0.75000  0.12210  1.0000
  C   C20       1.0  0.54740  0.25000  0.62210  1.0000
  N   N17       1.0  0.06110  0.25000  0.96370  1.0000
  N   N18       1.0  0.43890  0.75000  0.46370  1.0000
  N   N19       1.0  0.93890  0.75000  0.03630  1.0000
  N   N20       1.0  0.56110  0.25000  0.53630  1.0000
  S   S21       1.0  0.21750  0.25000  0.46290  1.0000
  S   S22       1.0  0.28250  0.75000  0.96290  1.0000
  S   S23       1.0  0.78250  0.75000  0.53710  1.0000
  S   S24       1.0  0.71750  0.25000  0.03710  1.0000
  C   C21       1.0  0.19330  0.25000  0.33850  1.0000
  C   C22       1.0  0.30670  0.75000  0.83850  1.0000
  C   C23       1.0  0.80670  0.75000  0.66150  1.0000
  C   C24       1.0  0.69330  0.25000  0.16150  1.0000
  N   N21       1.0  0.17890  0.25000  0.24790  1.0000
  N   N22       1.0  0.32110  0.75000  0.74790  1.0000
  N   N23       1.0  0.82110  0.75000  0.75210  1.0000
  N   N24       1.0  0.67890  0.25000  0.25210  1.0000
