data_image0
_chemical_formula_structural       C16O32Cu4
_chemical_formula_sum              "C16 O32 Cu4"
_cell_length_a       13.4579
_cell_length_b       13.7234
_cell_length_c       16.3627
_cell_angle_alpha    109.33
_cell_angle_beta     90.691
_cell_angle_gamma    111.833

_space_group_name_H-M_alt    "P 1"
_space_group_IT_number       1

loop_
  _space_group_symop_operation_xyz
  'x, y, z'

loop_
  _atom_site_type_symbol
  _atom_site_label
  _atom_site_symmetry_multiplicity
  _atom_site_fract_x
  _atom_site_fract_y
  _atom_site_fract_z
  _atom_site_occupancy
  C   C1        1.0  0.42950  0.94210  0.21200  1.0000
  C   C2        1.0  0.57050  0.05790  0.78800  1.0000
  C   C3        1.0  0.33090  0.82990  0.18800  1.0000
  C   C4        1.0  0.66910  0.17010  0.81200  1.0000
  C   C5        1.0  0.49550  0.05830  0.51470  1.0000
  C   C6        1.0  0.50450  0.94170  0.48530  1.0000
  C   C7        1.0  0.13130  0.81440  0.39930  1.0000
  C   C8        1.0  0.86870  0.18560  0.60070  1.0000
  C   C9        1.0  0.01660  0.81600  0.40990  1.0000
  C   C10       1.0  0.98340  0.18400  0.59010  1.0000
  C   C11       1.0  0.85410  0.45340  0.21770  1.0000
  C   C12       1.0  0.14590  0.54660  0.78230  1.0000
  C   C13       1.0  0.77030  0.40320  0.27300  1.0000
  C   C14       1.0  0.22970  0.59680  0.72700  1.0000
  C   C15       1.0  0.98570  0.54230  0.53700  1.0000
  C   C16       1.0  0.01430  0.45770  0.46300  1.0000
  O   O1        1.0  0.45020  0.00310  0.29500  1.0000
  O   O2        1.0  0.54980  0.99690  0.70500  1.0000
  O   O3        1.0  0.27940  0.81480  0.25160  1.0000
  O   O4        1.0  0.72060  0.18520  0.74840  1.0000
  O   O5        1.0  0.47950  0.96690  0.15560  1.0000
  O   O6        1.0  0.52050  0.03310  0.84440  1.0000
  O   O7        1.0  0.30200  0.76000  0.11210  1.0000
  O   O8        1.0  0.69800  0.24000  0.88790  1.0000
  O   O9        1.0  0.20660  0.90890  0.40980  1.0000
  O   O10       1.0  0.79340  0.09110  0.59020  1.0000
  O   O11       1.0  0.00590  0.90550  0.42110  1.0000
  O   O12       1.0  0.99410  0.09450  0.57890  1.0000
  O   O13       1.0  0.13900  0.72290  0.38180  1.0000
  O   O14       1.0  0.86100  0.27710  0.61820  1.0000
  O   O15       1.0  0.93990  0.72490  0.40540  1.0000
  O   O16       1.0  0.06010  0.27510  0.59460  1.0000
  O   O17       1.0  0.42220  0.06470  0.47050  1.0000
  O   O18       1.0  0.57780  0.93530  0.52950  1.0000
  O   O19       1.0  0.55870  0.13520  0.57960  1.0000
  O   O20       1.0  0.44130  0.86480  0.42040  1.0000
  O   O21       1.0  0.94110  0.53740  0.26200  1.0000
  O   O22       1.0  0.05890  0.46260  0.73800  1.0000
  O   O23       1.0  0.79070  0.45630  0.35420  1.0000
  O   O24       1.0  0.20930  0.54370  0.64580  1.0000
  O   O25       1.0  0.83520  0.41210  0.13690  1.0000
  O   O26       1.0  0.16480  0.58790  0.86310  1.0000
  O   O27       1.0  0.69100  0.31400  0.23160  1.0000
  O   O28       1.0  0.30900  0.68600  0.76840  1.0000
  O   O29       1.0  0.96630  0.61630  0.51760  1.0000
  O   O30       1.0  0.03370  0.38370  0.48240  1.0000
  O   O31       1.0  0.98600  0.53300  0.61040  1.0000
  O   O32       1.0  0.01400  0.46700  0.38960  1.0000
  Cu  Cu1       1.0  0.34539  0.93354  0.36449  1.0000
  Cu  Cu2       1.0  0.65461  0.06646  0.63551  1.0000
  Cu  Cu3       1.0  0.96121  0.58711  0.39049  1.0000
  Cu  Cu4       1.0  0.03879  0.41289  0.60951  1.0000
