data_image0
_chemical_formula_structural       C16O32Cu4
_chemical_formula_sum              "C16 O32 Cu4"
_cell_length_a       13.5224
_cell_length_b       13.7774
_cell_length_c       16.3936
_cell_angle_alpha    109.481
_cell_angle_beta     91.465
_cell_angle_gamma    112.531

_space_group_name_H-M_alt    "P 1"
_space_group_IT_number       1

loop_
  _space_group_symop_operation_xyz
  'x, y, z'

loop_
  _atom_site_type_symbol
  _atom_site_label
  _atom_site_symmetry_multiplicity
  _atom_site_fract_x
  _atom_site_fract_y
  _atom_site_fract_z
  _atom_site_occupancy
  C   C1        1.0  0.42760  0.94750  0.21550  1.0000
  C   C2        1.0  0.57240  0.05250  0.78450  1.0000
  C   C3        1.0  0.32530  0.83420  0.18880  1.0000
  C   C4        1.0  0.67470  0.16580  0.81120  1.0000
  C   C5        1.0  0.49580  0.05810  0.51716  1.0000
  C   C6        1.0  0.50420  0.94190  0.48284  1.0000
  C   C7        1.0  0.13030  0.81600  0.40095  1.0000
  C   C8        1.0  0.86970  0.18400  0.59905  1.0000
  C   C9        1.0  0.01520  0.81650  0.41150  1.0000
  C   C10       1.0  0.98480  0.18350  0.58850  1.0000
  C   C11       1.0  0.85460  0.45310  0.21860  1.0000
  C   C12       1.0  0.14540  0.54690  0.78140  1.0000
  C   C13       1.0  0.77230  0.40120  0.27400  1.0000
  C   C14       1.0  0.22770  0.59880  0.72600  1.0000
  C   C15       1.0  0.98920  0.54450  0.53780  1.0000
  C   C16       1.0  0.01080  0.45550  0.46220  1.0000
  O   O1        1.0  0.44852  0.00790  0.29811  1.0000
  O   O2        1.0  0.55148  0.99210  0.70189  1.0000
  O   O3        1.0  0.27450  0.81970  0.25161  1.0000
  O   O4        1.0  0.72550  0.18030  0.74839  1.0000
  O   O5        1.0  0.47910  0.97120  0.15955  1.0000
  O   O6        1.0  0.52090  0.02880  0.84045  1.0000
  O   O7        1.0  0.29600  0.76590  0.11289  1.0000
  O   O8        1.0  0.70400  0.23410  0.88711  1.0000
  O   O9        1.0  0.20477  0.91251  0.41046  1.0000
  O   O10       1.0  0.79523  0.08749  0.58954  1.0000
  O   O11       1.0  0.00390  0.90410  0.42190  1.0000
  O   O12       1.0  0.99610  0.09590  0.57810  1.0000
  O   O13       1.0  0.13930  0.72700  0.38470  1.0000
  O   O14       1.0  0.86070  0.27300  0.61530  1.0000
  O   O15       1.0  0.94028  0.72505  0.40769  1.0000
  O   O16       1.0  0.05972  0.27495  0.59231  1.0000
  O   O17       1.0  0.42282  0.06647  0.47384  1.0000
  O   O18       1.0  0.57718  0.93353  0.52616  1.0000
  O   O19       1.0  0.55989  0.13341  0.58342  1.0000
  O   O20       1.0  0.44011  0.86659  0.41658  1.0000
  O   O21       1.0  0.94120  0.53830  0.26321  1.0000
  O   O22       1.0  0.05880  0.46170  0.73679  1.0000
  O   O23       1.0  0.79220  0.45530  0.35451  1.0000
  O   O24       1.0  0.20780  0.54470  0.64549  1.0000
  O   O25       1.0  0.83320  0.41190  0.13783  1.0000
  O   O26       1.0  0.16680  0.58810  0.86217  1.0000
  O   O27       1.0  0.69430  0.30960  0.23231  1.0000
  O   O28       1.0  0.30570  0.69040  0.76769  1.0000
  O   O29       1.0  0.97510  0.62030  0.51975  1.0000
  O   O30       1.0  0.02490  0.37970  0.48025  1.0000
  O   O31       1.0  0.98840  0.53340  0.61075  1.0000
  O   O32       1.0  0.01160  0.46660  0.38925  1.0000
  Cu  Cu1       1.0  0.34311  0.93647  0.36633  1.0000
  Cu  Cu2       1.0  0.65689  0.06353  0.63367  1.0000
  Cu  Cu3       1.0  0.96530  0.58954  0.39231  1.0000
  Cu  Cu4       1.0  0.03470  0.41046  0.60769  1.0000
