data_image0
_chemical_formula_structural       C32O64Cu8
_chemical_formula_sum              "C32 O64 Cu8"
_cell_length_a       13.7175
_cell_length_b       18.3394
_cell_length_c       21.3555
_cell_angle_alpha    101.865
_cell_angle_beta     92.098
_cell_angle_gamma    99.145

_space_group_name_H-M_alt    "P 1"
_space_group_IT_number       1

loop_
  _space_group_symop_operation_xyz
  'x, y, z'

loop_
  _atom_site_type_symbol
  _atom_site_label
  _atom_site_symmetry_multiplicity
  _atom_site_fract_x
  _atom_site_fract_y
  _atom_site_fract_z
  _atom_site_occupancy
  C   C1        1.0  0.37387  0.32052  0.11278  1.0000
  C   C2        1.0  0.62613  0.67948  0.88722  1.0000
  C   C3        1.0  0.42582  0.25679  0.07606  1.0000
  C   C4        1.0  0.57418  0.74321  0.92394  1.0000
  C   C5        1.0  0.44745  0.50508  0.98810  1.0000
  C   C6        1.0  0.55255  0.49492  0.01190  1.0000
  C   C7        1.0  0.46170  0.27001  0.87235  1.0000
  C   C8        1.0  0.53830  0.72999  0.12765  1.0000
  C   C9        1.0  0.41199  0.21753  0.80814  1.0000
  C   C10       1.0  0.58801  0.78247  0.19186  1.0000
  C   C11       1.0  0.61080  0.04742  0.82731  1.0000
  C   C12       1.0  0.38920  0.95258  0.17269  1.0000
  C   C13       1.0  0.64494  0.03476  0.75744  1.0000
  C   C14       1.0  0.35506  0.96524  0.24256  1.0000
  C   C15       1.0  0.73414  0.27631  0.73578  1.0000
  C   C16       1.0  0.26586  0.72369  0.26422  1.0000
  C   C17       1.0  0.79888  0.24854  0.78409  1.0000
  C   C18       1.0  0.20112  0.75146  0.21591  1.0000
  C   C19       1.0  0.93779  0.47330  0.68974  1.0000
  C   C20       1.0  0.06221  0.52670  0.31026  1.0000
  C   C21       1.0  0.90440  0.48938  0.75968  1.0000
  C   C22       1.0  0.09560  0.51062  0.24032  1.0000
  C   C23       1.0  0.11623  0.29135  0.70255  1.0000
  C   C24       1.0  0.88377  0.70865  0.29745  1.0000
  C   C25       1.0  0.05947  0.23821  0.64061  1.0000
  C   C26       1.0  0.94053  0.76179  0.35939  1.0000
  C   C27       1.0  0.05245  0.99293  0.51034  1.0000
  C   C28       1.0  0.94755  0.00707  0.48966  1.0000
  C   C29       1.0  0.06791  0.24064  0.43417  1.0000
  C   C30       1.0  0.93209  0.75936  0.56583  1.0000
  C   C31       1.0  0.11674  0.17599  0.39581  1.0000
  C   C32       1.0  0.88326  0.82401  0.60419  1.0000
  O   O1        1.0  0.36565  0.37261  0.08172  1.0000
  O   O2        1.0  0.63435  0.62739  0.91828  1.0000
  O   O3        1.0  0.45077  0.26479  0.02025  1.0000
  O   O4        1.0  0.54923  0.73521  0.97975  1.0000
  O   O5        1.0  0.34538  0.31754  0.16584  1.0000
  O   O6        1.0  0.65462  0.68246  0.83416  1.0000
  O   O7        1.0  0.43982  0.20319  0.09936  1.0000
  O   O8        1.0  0.56018  0.79681  0.90064  1.0000
  O   O9        1.0  0.38067  0.44686  0.97880  1.0000
  O   O10       1.0  0.61933  0.55314  0.02120  1.0000
  O   O11       1.0  0.43600  0.56817  0.98018  1.0000
  O   O12       1.0  0.56400  0.43183  0.01982  1.0000
  O   O13       1.0  0.40453  0.30999  0.90464  1.0000
  O   O14       1.0  0.59547  0.69001  0.09536  1.0000
  O   O15       1.0  0.32290  0.21572  0.79536  1.0000
  O   O16       1.0  0.67710  0.78428  0.20464  1.0000
  O   O17       1.0  0.54860  0.26881  0.88669  1.0000
  O   O18       1.0  0.45140  0.73119  0.11331  1.0000
  O   O19       1.0  0.46709  0.17954  0.77349  1.0000
  O   O20       1.0  0.53291  0.82046  0.22651  1.0000
  O   O21       1.0  0.59129  0.11336  0.85015  1.0000
  O   O22       1.0  0.40871  0.88664  0.14985  1.0000
  O   O23       1.0  0.64453  0.08760  0.72900  1.0000
  O   O24       1.0  0.35547  0.91240  0.27100  1.0000
  O   O25       1.0  0.60486  0.99559  0.85645  1.0000
  O   O26       1.0  0.39514  0.00441  0.14355  1.0000
  O   O27       1.0  0.67100  0.97251  0.73618  1.0000
  O   O28       1.0  0.32900  0.02749  0.26382  1.0000
  O   O29       1.0  0.64216  0.26102  0.73861  1.0000
  O   O30       1.0  0.35784  0.73898  0.26139  1.0000
  O   O31       1.0  0.75431  0.21445  0.82232  1.0000
  O   O32       1.0  0.24569  0.78555  0.17768  1.0000
  O   O33       1.0  0.77917  0.31272  0.69902  1.0000
  O   O34       1.0  0.22083  0.68728  0.30098  1.0000
  O   O35       1.0  0.89088  0.26279  0.78082  1.0000
  O   O36       1.0  0.10912  0.73721  0.21918  1.0000
  O   O37       1.0  0.95069  0.40547  0.66774  1.0000
  O   O38       1.0  0.04931  0.59453  0.33226  1.0000
  O   O39       1.0  0.90856  0.43917  0.79057  1.0000
  O   O40       1.0  0.09144  0.56083  0.20943  1.0000
  O   O41       1.0  0.94906  0.52379  0.65923  1.0000
  O   O42       1.0  0.05094  0.47621  0.34077  1.0000
  O   O43       1.0  0.87431  0.55082  0.77812  1.0000
  O   O44       1.0  0.12569  0.44918  0.22188  1.0000
  O   O45       1.0  0.06632  0.33204  0.73932  1.0000
  O   O46       1.0  0.93368  0.66796  0.26068  1.0000
  O   O47       1.0  0.97273  0.24319  0.62882  1.0000
  O   O48       1.0  0.02727  0.75681  0.37118  1.0000
  O   O49       1.0  0.20544  0.29141  0.71245  1.0000
  O   O50       1.0  0.79456  0.70859  0.28755  1.0000
  O   O51       1.0  0.11061  0.19381  0.60749  1.0000
  O   O52       1.0  0.88939  0.80619  0.39251  1.0000
  O   O53       1.0  0.11827  0.05124  0.52907  1.0000
  O   O54       1.0  0.88173  0.94876  0.47093  1.0000
  O   O55       1.0  0.06422  0.92678  0.50679  1.0000
  O   O56       1.0  0.93578  0.07322  0.49321  1.0000
  O   O57       1.0  0.05145  0.23580  0.49206  1.0000
  O   O58       1.0  0.94855  0.76420  0.50794  1.0000
  O   O59       1.0  0.12802  0.12441  0.42696  1.0000
  O   O60       1.0  0.87198  0.87559  0.57304  1.0000
  O   O61       1.0  0.04813  0.29206  0.41003  1.0000
  O   O62       1.0  0.95187  0.70794  0.58997  1.0000
  O   O63       1.0  0.14002  0.17800  0.34154  1.0000
  O   O64       1.0  0.85998  0.82200  0.65846  1.0000
  Cu  Cu1       1.0  0.42286  0.35602  0.99641  1.0000
  Cu  Cu2       1.0  0.57714  0.64398  0.00359  1.0000
  Cu  Cu3       1.0  0.60872  0.19047  0.79725  1.0000
  Cu  Cu4       1.0  0.39128  0.80953  0.20275  1.0000
  Cu  Cu5       1.0  0.92564  0.33034  0.72115  1.0000
  Cu  Cu6       1.0  0.07436  0.66966  0.27885  1.0000
  Cu  Cu7       1.0  0.08099  0.14526  0.51592  1.0000
  Cu  Cu8       1.0  0.91901  0.85474  0.48408  1.0000
