data_image0
_chemical_formula_structural       C32O64Cu8
_chemical_formula_sum              "C32 O64 Cu8"
_cell_length_a       13.6655
_cell_length_b       18.292
_cell_length_c       21.3097
_cell_angle_alpha    101.705
_cell_angle_beta     92.402
_cell_angle_gamma    99.034

_space_group_name_H-M_alt    "P 1"
_space_group_IT_number       1

loop_
  _space_group_symop_operation_xyz
  'x, y, z'

loop_
  _atom_site_type_symbol
  _atom_site_label
  _atom_site_symmetry_multiplicity
  _atom_site_fract_x
  _atom_site_fract_y
  _atom_site_fract_z
  _atom_site_occupancy
  C   C1        1.0  0.37552  0.31949  0.11366  1.0000
  C   C2        1.0  0.62448  0.68051  0.88634  1.0000
  C   C3        1.0  0.42743  0.25572  0.07635  1.0000
  C   C4        1.0  0.57257  0.74428  0.92365  1.0000
  C   C5        1.0  0.44689  0.50511  0.98823  1.0000
  C   C6        1.0  0.55311  0.49489  0.01177  1.0000
  C   C7        1.0  0.46169  0.27041  0.87258  1.0000
  C   C8        1.0  0.53831  0.72959  0.12742  1.0000
  C   C9        1.0  0.41139  0.21785  0.80836  1.0000
  C   C10       1.0  0.58861  0.78215  0.19164  1.0000
  C   C11       1.0  0.61178  0.04817  0.82687  1.0000
  C   C12       1.0  0.38822  0.95183  0.17313  1.0000
  C   C13       1.0  0.64494  0.03543  0.75669  1.0000
  C   C14       1.0  0.35506  0.96457  0.24331  1.0000
  C   C15       1.0  0.73445  0.27811  0.73561  1.0000
  C   C16       1.0  0.26555  0.72189  0.26439  1.0000
  C   C17       1.0  0.79949  0.24966  0.78377  1.0000
  C   C18       1.0  0.20051  0.75034  0.21623  1.0000
  C   C19       1.0  0.93994  0.47544  0.68998  1.0000
  C   C20       1.0  0.06006  0.52456  0.31002  1.0000
  C   C21       1.0  0.90597  0.49117  0.75995  1.0000
  C   C22       1.0  0.09403  0.50883  0.24005  1.0000
  C   C23       1.0  0.11797  0.29279  0.70280  1.0000
  C   C24       1.0  0.88203  0.70721  0.29720  1.0000
  C   C25       1.0  0.06010  0.23918  0.64111  1.0000
  C   C26       1.0  0.93990  0.76082  0.35889  1.0000
  C   C27       1.0  0.05270  0.99276  0.51038  1.0000
  C   C28       1.0  0.94730  0.00724  0.48962  1.0000
  C   C29       1.0  0.06667  0.24056  0.43428  1.0000
  C   C30       1.0  0.93333  0.75944  0.56572  1.0000
  C   C31       1.0  0.11630  0.17603  0.39596  1.0000
  C   C32       1.0  0.88370  0.82397  0.60404  1.0000
  O   O1        1.0  0.36680  0.37208  0.08268  1.0000
  O   O2        1.0  0.63320  0.62792  0.91732  1.0000
  O   O3        1.0  0.45163  0.26408  0.02045  1.0000
  O   O4        1.0  0.54837  0.73592  0.97955  1.0000
  O   O5        1.0  0.34706  0.31596  0.16678  1.0000
  O   O6        1.0  0.65294  0.68404  0.83322  1.0000
  O   O7        1.0  0.44237  0.20185  0.09980  1.0000
  O   O8        1.0  0.55763  0.79815  0.90020  1.0000
  O   O9        1.0  0.37972  0.44681  0.97958  1.0000
  O   O10       1.0  0.62028  0.55319  0.02042  1.0000
  O   O11       1.0  0.43511  0.56829  0.97983  1.0000
  O   O12       1.0  0.56489  0.43171  0.02017  1.0000
  O   O13       1.0  0.40450  0.31030  0.90495  1.0000
  O   O14       1.0  0.59550  0.68970  0.09505  1.0000
  O   O15       1.0  0.32141  0.21528  0.79592  1.0000
  O   O16       1.0  0.67859  0.78472  0.20408  1.0000
  O   O17       1.0  0.54962  0.26944  0.88679  1.0000
  O   O18       1.0  0.45038  0.73056  0.11321  1.0000
  O   O19       1.0  0.46681  0.18050  0.77298  1.0000
  O   O20       1.0  0.53319  0.81950  0.22702  1.0000
  O   O21       1.0  0.59213  0.11419  0.84976  1.0000
  O   O22       1.0  0.40787  0.88581  0.15024  1.0000
  O   O23       1.0  0.64467  0.08877  0.72825  1.0000
  O   O24       1.0  0.35533  0.91123  0.27175  1.0000
  O   O25       1.0  0.60673  0.99620  0.85625  1.0000
  O   O26       1.0  0.39327  0.00380  0.14375  1.0000
  O   O27       1.0  0.67037  0.97259  0.73512  1.0000
  O   O28       1.0  0.32963  0.02741  0.26488  1.0000
  O   O29       1.0  0.64208  0.26299  0.73838  1.0000
  O   O30       1.0  0.35792  0.73701  0.26162  1.0000
  O   O31       1.0  0.75477  0.21532  0.82206  1.0000
  O   O32       1.0  0.24523  0.78468  0.17794  1.0000
  O   O33       1.0  0.77962  0.31492  0.69890  1.0000
  O   O34       1.0  0.22038  0.68508  0.30110  1.0000
  O   O35       1.0  0.89198  0.26377  0.78071  1.0000
  O   O36       1.0  0.10802  0.73623  0.21929  1.0000
  O   O37       1.0  0.95212  0.40725  0.66777  1.0000
  O   O38       1.0  0.04788  0.59275  0.33223  1.0000
  O   O39       1.0  0.91033  0.44054  0.79095  1.0000
  O   O40       1.0  0.08967  0.55946  0.20905  1.0000
  O   O41       1.0  0.95217  0.52655  0.65970  1.0000
  O   O42       1.0  0.04783  0.47345  0.34030  1.0000
  O   O43       1.0  0.87503  0.55261  0.77818  1.0000
  O   O44       1.0  0.12497  0.44739  0.22182  1.0000
  O   O45       1.0  0.06787  0.33341  0.73977  1.0000
  O   O46       1.0  0.93213  0.66659  0.26023  1.0000
  O   O47       1.0  0.97292  0.24460  0.62916  1.0000
  O   O48       1.0  0.02708  0.75540  0.37084  1.0000
  O   O49       1.0  0.20801  0.29313  0.71237  1.0000
  O   O50       1.0  0.79199  0.70687  0.28763  1.0000
  O   O51       1.0  0.11090  0.19390  0.60825  1.0000
  O   O52       1.0  0.88910  0.80610  0.39175  1.0000
  O   O53       1.0  0.11879  0.05109  0.52980  1.0000
  O   O54       1.0  0.88121  0.94891  0.47020  1.0000
  O   O55       1.0  0.06469  0.92620  0.50636  1.0000
  O   O56       1.0  0.93531  0.07380  0.49364  1.0000
  O   O57       1.0  0.05050  0.23565  0.49243  1.0000
  O   O58       1.0  0.94950  0.76435  0.50757  1.0000
  O   O59       1.0  0.12828  0.12437  0.42742  1.0000
  O   O60       1.0  0.87172  0.87563  0.57258  1.0000
  O   O61       1.0  0.04591  0.29205  0.40986  1.0000
  O   O62       1.0  0.95409  0.70795  0.59014  1.0000
  O   O63       1.0  0.13960  0.17830  0.34158  1.0000
  O   O64       1.0  0.86040  0.82170  0.65842  1.0000
  Cu  Cu1       1.0  0.42303  0.35585  0.99708  1.0000
  Cu  Cu2       1.0  0.57697  0.64415  0.00292  1.0000
  Cu  Cu3       1.0  0.60901  0.19187  0.79694  1.0000
  Cu  Cu4       1.0  0.39099  0.80813  0.20306  1.0000
  Cu  Cu5       1.0  0.92675  0.33181  0.72119  1.0000
  Cu  Cu6       1.0  0.07325  0.66819  0.27881  1.0000
  Cu  Cu7       1.0  0.08133  0.14529  0.51652  1.0000
  Cu  Cu8       1.0  0.91867  0.85471  0.48348  1.0000
