data_image0
_chemical_formula_structural       O32C24O8Mn8C16H8C24H8C8H8O8
_chemical_formula_sum              "O48 C72 Mn8 H24"
_cell_length_a       14.6452
_cell_length_b       12.3672
_cell_length_c       16.6648
_cell_angle_alpha    90
_cell_angle_beta     90
_cell_angle_gamma    90

_space_group_name_H-M_alt    "P 1"
_space_group_IT_number       1

loop_
  _space_group_symop_operation_xyz
  'x, y, z'

loop_
  _atom_site_type_symbol
  _atom_site_label
  _atom_site_symmetry_multiplicity
  _atom_site_fract_x
  _atom_site_fract_y
  _atom_site_fract_z
  _atom_site_occupancy
  O   O1        1.0  0.67534  0.48793  0.70085  1.0000
  O   O2        1.0  0.82466  0.51207  0.20085  1.0000
  O   O3        1.0  0.17534  0.01207  0.29915  1.0000
  O   O4        1.0  0.32466  0.98793  0.79915  1.0000
  O   O5        1.0  0.32466  0.51207  0.29915  1.0000
  O   O6        1.0  0.17534  0.48793  0.79915  1.0000
  O   O7        1.0  0.82466  0.98793  0.70085  1.0000
  O   O8        1.0  0.67534  0.01207  0.20085  1.0000
  O   O9        1.0  0.79050  0.52091  0.98389  1.0000
  O   O10       1.0  0.70950  0.47909  0.48389  1.0000
  O   O11       1.0  0.29050  0.97909  0.01611  1.0000
  O   O12       1.0  0.20950  0.02091  0.51611  1.0000
  O   O13       1.0  0.20950  0.47909  0.01611  1.0000
  O   O14       1.0  0.29050  0.52091  0.51611  1.0000
  O   O15       1.0  0.70950  0.02091  0.98389  1.0000
  O   O16       1.0  0.79050  0.97909  0.48389  1.0000
  O   O17       1.0  0.59521  0.34538  0.66611  1.0000
  O   O18       1.0  0.90479  0.65462  0.16611  1.0000
  O   O19       1.0  0.09521  0.15462  0.33389  1.0000
  O   O20       1.0  0.40479  0.84538  0.83389  1.0000
  O   O21       1.0  0.40479  0.65462  0.33389  1.0000
  O   O22       1.0  0.09521  0.34538  0.83389  1.0000
  O   O23       1.0  0.90479  0.84538  0.66611  1.0000
  O   O24       1.0  0.59521  0.15462  0.16611  1.0000
  O   O25       1.0  0.80125  0.36977  0.05109  1.0000
  O   O26       1.0  0.69875  0.63023  0.55109  1.0000
  O   O27       1.0  0.30125  0.13023  0.94891  1.0000
  O   O28       1.0  0.19875  0.86977  0.44891  1.0000
  O   O29       1.0  0.19875  0.63023  0.94891  1.0000
  O   O30       1.0  0.30125  0.36977  0.44891  1.0000
  O   O31       1.0  0.69875  0.86977  0.05109  1.0000
  O   O32       1.0  0.80125  0.13023  0.55109  1.0000
  C   C1        1.0  0.76860  0.42630  0.99452  1.0000
  C   C2        1.0  0.73140  0.57370  0.49452  1.0000
  C   C3        1.0  0.26860  0.07370  0.00548  1.0000
  C   C4        1.0  0.23140  0.92630  0.50548  1.0000
  C   C5        1.0  0.23140  0.57370  0.00548  1.0000
  C   C6        1.0  0.26860  0.42630  0.50548  1.0000
  C   C7        1.0  0.73140  0.92630  0.99452  1.0000
  C   C8        1.0  0.76860  0.07370  0.49452  1.0000
  C   C9        1.0  0.63842  0.39760  0.71656  1.0000
  C   C10       1.0  0.86158  0.60240  0.21656  1.0000
  C   C11       1.0  0.13842  0.10240  0.28344  1.0000
  C   C12       1.0  0.36158  0.89760  0.78344  1.0000
  C   C13       1.0  0.36158  0.60240  0.28344  1.0000
  C   C14       1.0  0.13842  0.39760  0.78344  1.0000
  C   C15       1.0  0.86158  0.89760  0.71656  1.0000
  C   C16       1.0  0.63842  0.10240  0.21656  1.0000
  C   C17       1.0  0.64270  0.35820  0.80239  1.0000
  C   C18       1.0  0.85730  0.64180  0.30239  1.0000
  C   C19       1.0  0.14270  0.14180  0.19761  1.0000
  C   C20       1.0  0.35730  0.85820  0.69761  1.0000
  C   C21       1.0  0.35730  0.64180  0.19761  1.0000
  C   C22       1.0  0.14270  0.35820  0.69761  1.0000
  C   C23       1.0  0.85730  0.85820  0.80239  1.0000
  C   C24       1.0  0.64270  0.14180  0.30239  1.0000
  O   O33       1.0  0.50136  0.07963  0.87377  1.0000
  O   O34       1.0  0.99864  0.92037  0.37377  1.0000
  O   O35       1.0  0.00136  0.42037  0.12623  1.0000
  O   O36       1.0  0.49864  0.57963  0.62623  1.0000
  O   O37       1.0  0.49864  0.92037  0.12623  1.0000
  O   O38       1.0  0.00136  0.07963  0.62623  1.0000
  O   O39       1.0  0.99864  0.57963  0.87377  1.0000
  O   O40       1.0  0.50136  0.42037  0.37377  1.0000
  Mn  Mn1       1.0  0.60517  0.48140  0.57834  1.0000
  Mn  Mn2       1.0  0.89483  0.51860  0.07834  1.0000
  Mn  Mn3       1.0  0.10517  0.01860  0.42166  1.0000
  Mn  Mn4       1.0  0.39483  0.98140  0.92166  1.0000
  Mn  Mn5       1.0  0.39483  0.51860  0.42166  1.0000
  Mn  Mn6       1.0  0.10517  0.48140  0.92166  1.0000
  Mn  Mn7       1.0  0.89483  0.98140  0.57834  1.0000
  Mn  Mn8       1.0  0.60517  0.01860  0.07834  1.0000
  C   C25       1.0  0.53700  0.13660  0.92869  1.0000
  C   C26       1.0  0.96300  0.86340  0.42869  1.0000
  C   C27       1.0  0.03700  0.36340  0.07131  1.0000
  C   C28       1.0  0.46300  0.63660  0.57131  1.0000
  C   C29       1.0  0.46300  0.86340  0.07131  1.0000
  C   C30       1.0  0.03700  0.13660  0.57131  1.0000
  C   C31       1.0  0.96300  0.63660  0.92869  1.0000
  C   C32       1.0  0.53700  0.36340  0.42869  1.0000
  C   C33       1.0  0.65220  0.28160  0.95925  1.0000
  C   C34       1.0  0.84780  0.71840  0.45925  1.0000
  C   C35       1.0  0.15220  0.21840  0.04075  1.0000
  C   C36       1.0  0.34780  0.78160  0.54075  1.0000
  C   C37       1.0  0.34780  0.71840  0.04075  1.0000
  C   C38       1.0  0.15220  0.28160  0.54075  1.0000
  C   C39       1.0  0.84780  0.78160  0.95925  1.0000
  C   C40       1.0  0.65220  0.21840  0.45925  1.0000
  H   H1        1.0  0.65580  0.25540  0.01270  1.0000
  H   H2        1.0  0.84420  0.74460  0.51270  1.0000
  H   H3        1.0  0.15580  0.24460  0.98730  1.0000
  H   H4        1.0  0.34420  0.75540  0.48730  1.0000
  H   H5        1.0  0.34420  0.74460  0.98730  1.0000
  H   H6        1.0  0.15580  0.25540  0.48730  1.0000
  H   H7        1.0  0.84420  0.75540  0.01270  1.0000
  H   H8        1.0  0.65580  0.24460  0.51270  1.0000
  C   C41       1.0  0.59630  0.22970  0.90395  1.0000
  C   C42       1.0  0.90370  0.77030  0.40395  1.0000
  C   C43       1.0  0.09630  0.27030  0.09605  1.0000
  C   C44       1.0  0.40370  0.72970  0.59605  1.0000
  C   C45       1.0  0.40370  0.77030  0.09605  1.0000
  C   C46       1.0  0.09630  0.22970  0.59605  1.0000
  C   C47       1.0  0.90370  0.72970  0.90395  1.0000
  C   C48       1.0  0.59630  0.27030  0.40395  1.0000
  C   C49       1.0  0.70300  0.37190  0.93676  1.0000
  C   C50       1.0  0.79700  0.62810  0.43676  1.0000
  C   C51       1.0  0.20300  0.12810  0.06324  1.0000
  C   C52       1.0  0.29700  0.87190  0.56324  1.0000
  C   C53       1.0  0.29700  0.62810  0.06324  1.0000
  C   C54       1.0  0.20300  0.37190  0.56324  1.0000
  C   C55       1.0  0.79700  0.87190  0.93676  1.0000
  C   C56       1.0  0.70300  0.12810  0.43676  1.0000
  C   C57       1.0  0.59330  0.26700  0.82546  1.0000
  C   C58       1.0  0.90670  0.73300  0.32546  1.0000
  C   C59       1.0  0.09330  0.23300  0.17454  1.0000
  C   C60       1.0  0.40670  0.76700  0.67454  1.0000
  C   C61       1.0  0.40670  0.73300  0.17454  1.0000
  C   C62       1.0  0.09330  0.26700  0.67454  1.0000
  C   C63       1.0  0.90670  0.76700  0.82546  1.0000
  C   C64       1.0  0.59330  0.23300  0.32546  1.0000
  H   H9        1.0  0.55710  0.22990  0.78700  1.0000
  H   H10       1.0  0.94290  0.77010  0.28700  1.0000
  H   H11       1.0  0.05710  0.27010  0.21300  1.0000
  H   H12       1.0  0.44290  0.72990  0.71300  1.0000
  H   H13       1.0  0.44290  0.77010  0.21300  1.0000
  H   H14       1.0  0.05710  0.22990  0.71300  1.0000
  H   H15       1.0  0.94290  0.72990  0.78700  1.0000
  H   H16       1.0  0.55710  0.27010  0.28700  1.0000
  C   C65       1.0  0.69590  0.41190  0.85911  1.0000
  C   C66       1.0  0.80410  0.58810  0.35911  1.0000
  C   C67       1.0  0.19590  0.08810  0.14089  1.0000
  C   C68       1.0  0.30410  0.91190  0.64089  1.0000
  C   C69       1.0  0.30410  0.58810  0.14089  1.0000
  C   C70       1.0  0.19590  0.41190  0.64089  1.0000
  C   C71       1.0  0.80410  0.91190  0.85911  1.0000
  C   C72       1.0  0.69590  0.08810  0.35911  1.0000
  H   H17       1.0  0.72740  0.47610  0.84460  1.0000
  H   H18       1.0  0.77260  0.52390  0.34460  1.0000
  H   H19       1.0  0.22740  0.02390  0.15540  1.0000
  H   H20       1.0  0.27260  0.97610  0.65540  1.0000
  H   H21       1.0  0.27260  0.52390  0.15540  1.0000
  H   H22       1.0  0.22740  0.47610  0.65540  1.0000
  H   H23       1.0  0.77260  0.97610  0.84460  1.0000
  H   H24       1.0  0.72740  0.02390  0.34460  1.0000
  O   O41       1.0  0.52298  0.12024  0.00259  1.0000
  O   O42       1.0  0.97702  0.87976  0.50259  1.0000
  O   O43       1.0  0.02298  0.37976  0.99741  1.0000
  O   O44       1.0  0.47702  0.62024  0.49741  1.0000
  O   O45       1.0  0.47702  0.87976  0.99741  1.0000
  O   O46       1.0  0.02298  0.12024  0.49741  1.0000
  O   O47       1.0  0.97702  0.62024  0.00259  1.0000
  O   O48       1.0  0.52298  0.37976  0.50259  1.0000
