data_image0
_chemical_formula_structural       C8O8C8O8C8H8C8Mn8O8C16H8C16H8C8O24
_chemical_formula_sum              "C72 O48 H24 Mn8"
_cell_length_a       14.9773
_cell_length_b       12.5017
_cell_length_c       16.5629
_cell_angle_alpha    90
_cell_angle_beta     90
_cell_angle_gamma    90

_space_group_name_H-M_alt    "P 1"
_space_group_IT_number       1

loop_
  _space_group_symop_operation_xyz
  'x, y, z'

loop_
  _atom_site_type_symbol
  _atom_site_label
  _atom_site_symmetry_multiplicity
  _atom_site_fract_x
  _atom_site_fract_y
  _atom_site_fract_z
  _atom_site_occupancy
  C   C1        1.0  0.76830  0.42140  0.00080  1.0000
  C   C2        1.0  0.73170  0.57860  0.50080  1.0000
  C   C3        1.0  0.26830  0.07860  0.99920  1.0000
  C   C4        1.0  0.23170  0.92140  0.49920  1.0000
  C   C5        1.0  0.23170  0.57860  0.99920  1.0000
  C   C6        1.0  0.26830  0.42140  0.49920  1.0000
  C   C7        1.0  0.73170  0.92140  0.00080  1.0000
  C   C8        1.0  0.76830  0.07860  0.50080  1.0000
  O   O1        1.0  0.52810  0.11920  0.00679  1.0000
  O   O2        1.0  0.97190  0.88080  0.50679  1.0000
  O   O3        1.0  0.02810  0.38080  0.99321  1.0000
  O   O4        1.0  0.47190  0.61920  0.49321  1.0000
  O   O5        1.0  0.47190  0.88080  0.99321  1.0000
  O   O6        1.0  0.02810  0.11920  0.49321  1.0000
  O   O7        1.0  0.97190  0.61920  0.00679  1.0000
  O   O8        1.0  0.52810  0.38080  0.50679  1.0000
  C   C9        1.0  0.63410  0.40400  0.72280  1.0000
  C   C10       1.0  0.86590  0.59600  0.22280  1.0000
  C   C11       1.0  0.13410  0.09600  0.27720  1.0000
  C   C12       1.0  0.36590  0.90400  0.77720  1.0000
  C   C13       1.0  0.36590  0.59600  0.27720  1.0000
  C   C14       1.0  0.13410  0.40400  0.77720  1.0000
  C   C15       1.0  0.86590  0.90400  0.72280  1.0000
  C   C16       1.0  0.63410  0.09600  0.22280  1.0000
  O   O9        1.0  0.50080  0.08670  0.87730  1.0000
  O   O10       1.0  0.99920  0.91330  0.37730  1.0000
  O   O11       1.0  0.00080  0.41330  0.12270  1.0000
  O   O12       1.0  0.49920  0.58670  0.62270  1.0000
  O   O13       1.0  0.49920  0.91330  0.12270  1.0000
  O   O14       1.0  0.00080  0.08670  0.62270  1.0000
  O   O15       1.0  0.99920  0.58670  0.87730  1.0000
  O   O16       1.0  0.50080  0.41330  0.37730  1.0000
  C   C17       1.0  0.59180  0.27210  0.83060  1.0000
  C   C18       1.0  0.90820  0.72790  0.33060  1.0000
  C   C19       1.0  0.09180  0.22790  0.16940  1.0000
  C   C20       1.0  0.40820  0.77210  0.66940  1.0000
  C   C21       1.0  0.40820  0.72790  0.16940  1.0000
  C   C22       1.0  0.09180  0.27210  0.66940  1.0000
  C   C23       1.0  0.90820  0.77210  0.83060  1.0000
  C   C24       1.0  0.59180  0.22790  0.33060  1.0000
  H   H1        1.0  0.55600  0.23780  0.79270  1.0000
  H   H2        1.0  0.94400  0.76220  0.29270  1.0000
  H   H3        1.0  0.05600  0.26220  0.20730  1.0000
  H   H4        1.0  0.44400  0.73780  0.70730  1.0000
  H   H5        1.0  0.44400  0.76220  0.20730  1.0000
  H   H6        1.0  0.05600  0.23780  0.70730  1.0000
  H   H7        1.0  0.94400  0.73780  0.79270  1.0000
  H   H8        1.0  0.55600  0.26220  0.29270  1.0000
  C   C25       1.0  0.53850  0.13890  0.93320  1.0000
  C   C26       1.0  0.96150  0.86110  0.43320  1.0000
  C   C27       1.0  0.03850  0.36110  0.06680  1.0000
  C   C28       1.0  0.46150  0.63890  0.56680  1.0000
  C   C29       1.0  0.46150  0.86110  0.06680  1.0000
  C   C30       1.0  0.03850  0.13890  0.56680  1.0000
  C   C31       1.0  0.96150  0.63890  0.93320  1.0000
  C   C32       1.0  0.53850  0.36110  0.43320  1.0000
  Mn  Mn1       1.0  0.60384  0.48631  0.58239  1.0000
  Mn  Mn2       1.0  0.89616  0.51369  0.08239  1.0000
  Mn  Mn3       1.0  0.10384  0.01369  0.41761  1.0000
  Mn  Mn4       1.0  0.39616  0.98631  0.91761  1.0000
  Mn  Mn5       1.0  0.39616  0.51369  0.41761  1.0000
  Mn  Mn6       1.0  0.10384  0.48631  0.91761  1.0000
  Mn  Mn7       1.0  0.89616  0.98631  0.58239  1.0000
  Mn  Mn8       1.0  0.60384  0.01369  0.08239  1.0000
  O   O17       1.0  0.59300  0.35360  0.67170  1.0000
  O   O18       1.0  0.90700  0.64640  0.17170  1.0000
  O   O19       1.0  0.09300  0.14640  0.32830  1.0000
  O   O20       1.0  0.40700  0.85360  0.82830  1.0000
  O   O21       1.0  0.40700  0.64640  0.32830  1.0000
  O   O22       1.0  0.09300  0.35360  0.82830  1.0000
  O   O23       1.0  0.90700  0.85360  0.67170  1.0000
  O   O24       1.0  0.59300  0.14640  0.17170  1.0000
  C   C33       1.0  0.70260  0.36970  0.94280  1.0000
  C   C34       1.0  0.79740  0.63030  0.44280  1.0000
  C   C35       1.0  0.20260  0.13030  0.05720  1.0000
  C   C36       1.0  0.29740  0.86970  0.55720  1.0000
  C   C37       1.0  0.29740  0.63030  0.05720  1.0000
  C   C38       1.0  0.20260  0.36970  0.55720  1.0000
  C   C39       1.0  0.79740  0.86970  0.94280  1.0000
  C   C40       1.0  0.70260  0.13030  0.44280  1.0000
  C   C41       1.0  0.65250  0.28060  0.96430  1.0000
  C   C42       1.0  0.84750  0.71940  0.46430  1.0000
  C   C43       1.0  0.15250  0.21940  0.03570  1.0000
  C   C44       1.0  0.34750  0.78060  0.53570  1.0000
  C   C45       1.0  0.34750  0.71940  0.03570  1.0000
  C   C46       1.0  0.15250  0.28060  0.53570  1.0000
  C   C47       1.0  0.84750  0.78060  0.96430  1.0000
  C   C48       1.0  0.65250  0.21940  0.46430  1.0000
  H   H9        1.0  0.65690  0.25320  0.01640  1.0000
  H   H10       1.0  0.84310  0.74680  0.51640  1.0000
  H   H11       1.0  0.15690  0.24680  0.98360  1.0000
  H   H12       1.0  0.34310  0.75320  0.48360  1.0000
  H   H13       1.0  0.34310  0.74680  0.98360  1.0000
  H   H14       1.0  0.15690  0.25320  0.48360  1.0000
  H   H15       1.0  0.84310  0.75320  0.01640  1.0000
  H   H16       1.0  0.65690  0.24680  0.51640  1.0000
  C   C49       1.0  0.64000  0.36150  0.80840  1.0000
  C   C50       1.0  0.86000  0.63850  0.30840  1.0000
  C   C51       1.0  0.14000  0.13850  0.19160  1.0000
  C   C52       1.0  0.36000  0.86150  0.69160  1.0000
  C   C53       1.0  0.36000  0.63850  0.19160  1.0000
  C   C54       1.0  0.14000  0.36150  0.69160  1.0000
  C   C55       1.0  0.86000  0.86150  0.80840  1.0000
  C   C56       1.0  0.64000  0.13850  0.30840  1.0000
  C   C57       1.0  0.69390  0.41220  0.86500  1.0000
  C   C58       1.0  0.80610  0.58780  0.36500  1.0000
  C   C59       1.0  0.19390  0.08780  0.13500  1.0000
  C   C60       1.0  0.30610  0.91220  0.63500  1.0000
  C   C61       1.0  0.30610  0.58780  0.13500  1.0000
  C   C62       1.0  0.19390  0.41220  0.63500  1.0000
  C   C63       1.0  0.80610  0.91220  0.86500  1.0000
  C   C64       1.0  0.69390  0.08780  0.36500  1.0000
  H   H17       1.0  0.72420  0.47450  0.85120  1.0000
  H   H18       1.0  0.77580  0.52550  0.35120  1.0000
  H   H19       1.0  0.22420  0.02550  0.14880  1.0000
  H   H20       1.0  0.27580  0.97450  0.64880  1.0000
  H   H21       1.0  0.27580  0.52550  0.14880  1.0000
  H   H22       1.0  0.22420  0.47450  0.64880  1.0000
  H   H23       1.0  0.77580  0.97450  0.85120  1.0000
  H   H24       1.0  0.72420  0.02550  0.35120  1.0000
  C   C65       1.0  0.59640  0.23250  0.90940  1.0000
  C   C66       1.0  0.90360  0.76750  0.40940  1.0000
  C   C67       1.0  0.09640  0.26750  0.09060  1.0000
  C   C68       1.0  0.40360  0.73250  0.59060  1.0000
  C   C69       1.0  0.40360  0.76750  0.09060  1.0000
  C   C70       1.0  0.09640  0.23250  0.59060  1.0000
  C   C71       1.0  0.90360  0.73250  0.90940  1.0000
  C   C72       1.0  0.59640  0.26750  0.40940  1.0000
  O   O25       1.0  0.80110  0.36550  0.05470  1.0000
  O   O26       1.0  0.69890  0.63450  0.55470  1.0000
  O   O27       1.0  0.30110  0.13450  0.94530  1.0000
  O   O28       1.0  0.19890  0.86550  0.44530  1.0000
  O   O29       1.0  0.19890  0.63450  0.94530  1.0000
  O   O30       1.0  0.30110  0.36550  0.44530  1.0000
  O   O31       1.0  0.69890  0.86550  0.05470  1.0000
  O   O32       1.0  0.80110  0.13450  0.55470  1.0000
  O   O33       1.0  0.66950  0.49280  0.70800  1.0000
  O   O34       1.0  0.83050  0.50720  0.20800  1.0000
  O   O35       1.0  0.16950  0.00720  0.29200  1.0000
  O   O36       1.0  0.33050  0.99280  0.79200  1.0000
  O   O37       1.0  0.33050  0.50720  0.29200  1.0000
  O   O38       1.0  0.16950  0.49280  0.79200  1.0000
  O   O39       1.0  0.83050  0.99280  0.70800  1.0000
  O   O40       1.0  0.66950  0.00720  0.20800  1.0000
  O   O41       1.0  0.79250  0.51360  0.98960  1.0000
  O   O42       1.0  0.70750  0.48640  0.48960  1.0000
  O   O43       1.0  0.29250  0.98640  0.01040  1.0000
  O   O44       1.0  0.20750  0.01360  0.51040  1.0000
  O   O45       1.0  0.20750  0.48640  0.01040  1.0000
  O   O46       1.0  0.29250  0.51360  0.51040  1.0000
  O   O47       1.0  0.70750  0.01360  0.98960  1.0000
  O   O48       1.0  0.79250  0.98640  0.48960  1.0000
