data_image0
_chemical_formula_structural       Co8NiN26H2N2H2C2H2C10H2C10H2C10H2C10H2C10H2C10H4C2H4C2H4C2H4C2H4O48
_chemical_formula_sum              "Co8 Ni1 N28 H36 C70 O48"
_cell_length_a       18.057
_cell_length_b       18.204
_cell_length_c       19.226
_cell_angle_alpha    112.441
_cell_angle_beta     98.555
_cell_angle_gamma    112.615

_space_group_name_H-M_alt    "P 1"
_space_group_IT_number       1

loop_
  _space_group_symop_operation_xyz
  'x, y, z'

loop_
  _atom_site_type_symbol
  _atom_site_label
  _atom_site_symmetry_multiplicity
  _atom_site_fract_x
  _atom_site_fract_y
  _atom_site_fract_z
  _atom_site_occupancy
  Co  Co1       1.0  0.44466  0.76968  0.62973  1.0000
  Co  Co2       1.0  0.55534  0.23032  0.37027  1.0000
  Co  Co3       1.0  0.38584  0.48799  0.74012  1.0000
  Co  Co4       1.0  0.61416  0.51201  0.25988  1.0000
  Co  Co5       1.0  0.21214  0.18910  0.39738  1.0000
  Co  Co6       1.0  0.78786  0.81090  0.60262  1.0000
  Co  Co7       1.0  0.26485  0.46464  0.27516  1.0000
  Co  Co8       1.0  0.73515  0.53536  0.72484  1.0000
  Ni  Ni1       1.0  0.50000  1.00000  0.50000  1.0000
  N   N1        1.0  0.41660  0.67810  0.66750  1.0000
  N   N2        1.0  0.58340  0.32190  0.33250  1.0000
  N   N3        1.0  0.39390  0.57500  0.70720  1.0000
  N   N4        1.0  0.60610  0.42500  0.29280  1.0000
  N   N5        1.0  0.33100  0.38620  0.63440  1.0000
  N   N6        1.0  0.66900  0.61380  0.36560  1.0000
  N   N7        1.0  0.26630  0.27680  0.50850  1.0000
  N   N8        1.0  0.73370  0.72320  0.49150  1.0000
  N   N9        1.0  0.21900  0.27360  0.36050  1.0000
  N   N10       1.0  0.78100  0.72640  0.63950  1.0000
  N   N11       1.0  0.23590  0.36760  0.31070  1.0000
  N   N12       1.0  0.76410  0.63240  0.68930  1.0000
  N   N13       1.0  0.32270  0.56950  0.38740  1.0000
  N   N14       1.0  0.67730  0.43050  0.61260  1.0000
  N   N15       1.0  0.38870  0.67990  0.51410  1.0000
  N   N16       1.0  0.61130  0.32010  0.48590  1.0000
  N   N17       1.0  0.56150  0.79190  0.63200  1.0000
  N   N18       1.0  0.43850  0.20810  0.36800  1.0000
  N   N19       1.0  0.68610  0.81040  0.62030  1.0000
  N   N20       1.0  0.31390  0.18960  0.37970  1.0000
  N   N21       1.0  0.50180  0.49050  0.25350  1.0000
  N   N22       1.0  0.49820  0.50950  0.74650  1.0000
  N   N23       1.0  0.37530  0.47170  0.26020  1.0000
  N   N24       1.0  0.62470  0.52830  0.73980  1.0000
  N   N25       1.0  0.48800  0.94760  0.38090  1.0000
  N   N26       1.0  0.51200  0.05240  0.61910  1.0000
  H   H1        1.0  0.52060  0.99890  0.37910  1.0000
  H   H2        1.0  0.47940  0.00110  0.62090  1.0000
  N   N27       1.0  0.38500  0.99540  0.46500  1.0000
  N   N28       1.0  0.61500  0.00460  0.53500  1.0000
  H   H3        1.0  0.34580  0.94470  0.46370  1.0000
  H   H4        1.0  0.65420  0.05530  0.53630  1.0000
  C   C1        1.0  0.44540  0.62740  0.68220  1.0000
  C   C2        1.0  0.55460  0.37260  0.31780  1.0000
  H   H5        1.0  0.49560  0.62770  0.67600  1.0000
  H   H6        1.0  0.50440  0.37230  0.32400  1.0000
  C   C3        1.0  0.34120  0.65900  0.68340  1.0000
  C   C4        1.0  0.65880  0.34100  0.31660  1.0000
  C   C5        1.0  0.32790  0.59400  0.70880  1.0000
  C   C6        1.0  0.67210  0.40600  0.29120  1.0000
  C   C7        1.0  0.29790  0.70960  0.66970  1.0000
  C   C8        1.0  0.70210  0.29040  0.33030  1.0000
  C   C9        1.0  0.26400  0.54460  0.73750  1.0000
  C   C10       1.0  0.73600  0.45540  0.26250  1.0000
  C   C11       1.0  0.30640  0.36630  0.55880  1.0000
  C   C12       1.0  0.69360  0.63370  0.44120  1.0000
  H   H7        1.0  0.31590  0.40970  0.54200  1.0000
  H   H8        1.0  0.68410  0.59030  0.45800  1.0000
  C   C13       1.0  0.30390  0.30490  0.63400  1.0000
  C   C14       1.0  0.69610  0.69510  0.36600  1.0000
  C   C15       1.0  0.26330  0.23730  0.55710  1.0000
  C   C16       1.0  0.73670  0.76270  0.44290  1.0000
  C   C17       1.0  0.32910  0.31440  0.71610  1.0000
  C   C18       1.0  0.67090  0.68560  0.28390  1.0000
  C   C19       1.0  0.21610  0.13660  0.51340  1.0000
  C   C20       1.0  0.78390  0.86340  0.48660  1.0000
  C   C21       1.0  0.26950  0.32420  0.33550  1.0000
  C   C22       1.0  0.73050  0.67580  0.66450  1.0000
  H   H9        1.0  0.32270  0.32920  0.33520  1.0000
  H   H10       1.0  0.67730  0.67080  0.66480  1.0000
  C   C23       1.0  0.14610  0.28080  0.34840  1.0000
  C   C24       1.0  0.85390  0.71920  0.65160  1.0000
  C   C25       1.0  0.15690  0.33940  0.31760  1.0000
  C   C26       1.0  0.84310  0.66060  0.68240  1.0000
  C   C27       1.0  0.08150  0.22800  0.37490  1.0000
  C   C28       1.0  0.91850  0.77200  0.62510  1.0000
  C   C29       1.0  0.10370  0.37600  0.29170  1.0000
  C   C30       1.0  0.89630  0.62400  0.70830  1.0000
  C   C31       1.0  0.35540  0.59090  0.46260  1.0000
  C   C32       1.0  0.64460  0.40910  0.53740  1.0000
  H   H11       1.0  0.35560  0.54880  0.47870  1.0000
  H   H12       1.0  0.64440  0.45120  0.52130  1.0000
  C   C33       1.0  0.33560  0.64930  0.38810  1.0000
  C   C34       1.0  0.66440  0.35070  0.61190  1.0000
  C   C35       1.0  0.37780  0.71790  0.46790  1.0000
  C   C36       1.0  0.62220  0.28210  0.53210  1.0000
  C   C37       1.0  0.30130  0.64610  0.31280  1.0000
  C   C38       1.0  0.69870  0.35390  0.68720  1.0000
  C   C39       1.0  0.41820  0.81810  0.51150  1.0000
  C   C40       1.0  0.58180  0.18190  0.48850  1.0000
  C   C41       1.0  0.60210  0.76270  0.58470  1.0000
  C   C42       1.0  0.39790  0.23730  0.41530  1.0000
  H   H13       1.0  0.57460  0.71450  0.53260  1.0000
  H   H14       1.0  0.42540  0.28550  0.46740  1.0000
  C   C43       1.0  0.62370  0.86230  0.70220  1.0000
  C   C44       1.0  0.37630  0.13770  0.29780  1.0000
  C   C45       1.0  0.70200  0.87410  0.69590  1.0000
  C   C46       1.0  0.29800  0.12590  0.30410  1.0000
  C   C47       1.0  0.59240  0.90700  0.76530  1.0000
  C   C48       1.0  0.40760  0.09300  0.23470  1.0000
  C   C49       1.0  0.79510  0.93380  0.74620  1.0000
  C   C50       1.0  0.20490  0.06620  0.25380  1.0000
  C   C51       1.0  0.45830  0.51640  0.30000  1.0000
  C   C52       1.0  0.54170  0.48360  0.70000  1.0000
  H   H15       1.0  0.48370  0.56040  0.35380  1.0000
  H   H16       1.0  0.51630  0.43960  0.64620  1.0000
  C   C53       1.0  0.44250  0.42540  0.17910  1.0000
  C   C54       1.0  0.55750  0.57460  0.82090  1.0000
  C   C55       1.0  0.36440  0.41590  0.18350  1.0000
  C   C56       1.0  0.63560  0.58410  0.81650  1.0000
  C   C57       1.0  0.47770  0.38650  0.11840  1.0000
  C   C58       1.0  0.52230  0.61350  0.88160  1.0000
  C   C59       1.0  0.27530  0.36660  0.12660  1.0000
  C   C60       1.0  0.72470  0.63340  0.87340  1.0000
  C   C61       1.0  0.53170  0.89570  0.35470  1.0000
  C   C62       1.0  0.46830  0.10430  0.64530  1.0000
  H   H17       1.0  0.49320  0.83290  0.33860  1.0000
  H   H18       1.0  0.50680  0.16710  0.66140  1.0000
  H   H19       1.0  0.54240  0.89780  0.30730  1.0000
  H   H20       1.0  0.45760  0.10220  0.69270  1.0000
  C   C63       1.0  0.40750  0.92280  0.33470  1.0000
  C   C64       1.0  0.59250  0.07720  0.66530  1.0000
  H   H21       1.0  0.37080  0.85900  0.31670  1.0000
  H   H22       1.0  0.62920  0.14100  0.68330  1.0000
  H   H23       1.0  0.41190  0.92910  0.28740  1.0000
  H   H24       1.0  0.58810  0.07090  0.71260  1.0000
  C   C65       1.0  0.36320  0.97480  0.37380  1.0000
  C   C66       1.0  0.63680  0.02520  0.62620  1.0000
  H   H25       1.0  0.30190  0.93890  0.34580  1.0000
  H   H26       1.0  0.69810  0.06110  0.65420  1.0000
  H   H27       1.0  0.38320  0.03120  0.37140  1.0000
  H   H28       1.0  0.61680  0.96880  0.62860  1.0000
  C   C67       1.0  0.36920  0.06120  0.50690  1.0000
  C   C68       1.0  0.63080  0.93880  0.49310  1.0000
  H   H29       1.0  0.30950  0.04350  0.48440  1.0000
  H   H30       1.0  0.69050  0.95650  0.51560  1.0000
  H   H31       1.0  0.40410  0.11620  0.50550  1.0000
  H   H32       1.0  0.59590  0.88380  0.49450  1.0000
  C   C69       1.0  0.61090  0.92330  0.41120  1.0000
  C   C70       1.0  0.38910  0.07670  0.58880  1.0000
  H   H33       1.0  0.62820  0.87900  0.38420  1.0000
  H   H34       1.0  0.37180  0.12100  0.61580  1.0000
  H   H35       1.0  0.65110  0.97960  0.41470  1.0000
  H   H36       1.0  0.34890  0.02040  0.58530  1.0000
  O   O1        1.0  0.33590  0.76280  0.64420  1.0000
  O   O2        1.0  0.66410  0.23720  0.35580  1.0000
  O   O3        1.0  0.22850  0.69410  0.67940  1.0000
  O   O4        1.0  0.77150  0.30590  0.32060  1.0000
  O   O5        1.0  0.20610  0.55920  0.74880  1.0000
  O   O6        1.0  0.79390  0.44080  0.25120  1.0000
  O   O7        1.0  0.28060  0.48460  0.74860  1.0000
  O   O8        1.0  0.71940  0.51540  0.25140  1.0000
  O   O9        1.0  0.36850  0.39770  0.77260  1.0000
  O   O10       1.0  0.63150  0.60230  0.22740  1.0000
  O   O11       1.0  0.31220  0.24800  0.72750  1.0000
  O   O12       1.0  0.68780  0.75200  0.27250  1.0000
  O   O13       1.0  0.19870  0.08930  0.54580  1.0000
  O   O14       1.0  0.80130  0.91070  0.45420  1.0000
  O   O15       1.0  0.19250  0.10290  0.43570  1.0000
  O   O16       1.0  0.80750  0.89710  0.56430  1.0000
  O   O17       1.0  0.10320  0.18060  0.40020  1.0000
  O   O18       1.0  0.89680  0.81940  0.59980  1.0000
  O   O19       1.0  0.01440  0.23150  0.37250  1.0000
  O   O20       1.0  0.98560  0.76850  0.62750  1.0000
  O   O21       1.0  0.02930  0.35070  0.29220  1.0000
  O   O22       1.0  0.97070  0.64930  0.70780  1.0000
  O   O23       1.0  0.14260  0.43590  0.27140  1.0000
  O   O24       1.0  0.85740  0.56410  0.72860  1.0000
  O   O25       1.0  0.27290  0.56780  0.25150  1.0000
  O   O26       1.0  0.72710  0.43220  0.74850  1.0000
  O   O27       1.0  0.29510  0.70750  0.30740  1.0000
  O   O28       1.0  0.70490  0.29250  0.69260  1.0000
  O   O29       1.0  0.42440  0.86190  0.47310  1.0000
  O   O30       1.0  0.57560  0.13810  0.52690  1.0000
  O   O31       1.0  0.44900  0.85340  0.58700  1.0000
  O   O32       1.0  0.55100  0.14660  0.41300  1.0000
  O   O33       1.0  0.51060  0.87310  0.73990  1.0000
  O   O34       1.0  0.48940  0.12690  0.26010  1.0000
  O   O35       1.0  0.64070  0.96750  0.83140  1.0000
  O   O36       1.0  0.35930  0.03250  0.16860  1.0000
  O   O37       1.0  0.82020  0.99790  0.81260  1.0000
  O   O38       1.0  0.17980  0.00210  0.18740  1.0000
  O   O39       1.0  0.84330  0.90990  0.71090  1.0000
  O   O40       1.0  0.15670  0.09010  0.28910  1.0000
  O   O41       1.0  0.56030  0.42020  0.14900  1.0000
  O   O42       1.0  0.43970  0.57980  0.85100  1.0000
  O   O43       1.0  0.43490  0.33180  0.04980  1.0000
  O   O44       1.0  0.56510  0.66820  0.95020  1.0000
  O   O45       1.0  0.25850  0.32030  0.05280  1.0000
  O   O46       1.0  0.74150  0.67970  0.94720  1.0000
  O   O47       1.0  0.22020  0.37670  0.15530  1.0000
  O   O48       1.0  0.77980  0.62330  0.84470  1.0000
