data_image0
_chemical_formula_structural       Cu4S8C16O8
_chemical_formula_sum              "Cu4 S8 C16 O8"
_cell_length_a       3.89
_cell_length_b       11.811
_cell_length_c       19.83
_cell_angle_alpha    90
_cell_angle_beta     91.62
_cell_angle_gamma    90

_space_group_name_H-M_alt    "P 1"
_space_group_IT_number       1

loop_
  _space_group_symop_operation_xyz
  'x, y, z'

loop_
  _atom_site_type_symbol
  _atom_site_label
  _atom_site_symmetry_multiplicity
  _atom_site_fract_x
  _atom_site_fract_y
  _atom_site_fract_z
  _atom_site_occupancy
  Cu  Cu1       1.0  0.14470  0.04990  0.45010  1.0000
  Cu  Cu2       1.0  0.35530  0.54990  0.04990  1.0000
  Cu  Cu3       1.0  0.85530  0.95010  0.54990  1.0000
  Cu  Cu4       1.0  0.64470  0.45010  0.95010  1.0000
  S   S1        1.0  0.13760  0.94230  0.35570  1.0000
  S   S2        1.0  0.36240  0.44230  0.14430  1.0000
  S   S3        1.0  0.86240  0.05770  0.64430  1.0000
  S   S4        1.0  0.63760  0.55770  0.85570  1.0000
  S   S5        1.0  0.65340  0.14550  0.46750  1.0000
  S   S6        1.0  0.84660  0.64550  0.03250  1.0000
  S   S7        1.0  0.34660  0.85450  0.53250  1.0000
  S   S8        1.0  0.15340  0.35450  0.96750  1.0000
  C   C1        1.0  0.31470  0.82480  0.38990  1.0000
  C   C2        1.0  0.18530  0.32480  0.11010  1.0000
  C   C3        1.0  0.68530  0.17520  0.61010  1.0000
  C   C4        1.0  0.81470  0.67520  0.88990  1.0000
  C   C5        1.0  0.60120  0.20650  0.54440  1.0000
  C   C6        1.0  0.89880  0.70650  0.95560  1.0000
  C   C7        1.0  0.39880  0.79350  0.45560  1.0000
  C   C8        1.0  0.10120  0.29350  0.04440  1.0000
  C   C9        1.0  0.43360  0.31130  0.56530  1.0000
  C   C10       1.0  0.06640  0.81130  0.93470  1.0000
  C   C11       1.0  0.56640  0.68870  0.43470  1.0000
  C   C12       1.0  0.93360  0.18870  0.06530  1.0000
  C   C13       1.0  0.47060  0.72150  0.36280  1.0000
  C   C14       1.0  0.02940  0.22150  0.13720  1.0000
  C   C15       1.0  0.52940  0.27850  0.63720  1.0000
  C   C16       1.0  0.97060  0.77850  0.86280  1.0000
  O   O1        1.0  0.27490  0.38760  0.53860  1.0000
  O   O2        1.0  0.22510  0.88760  0.96140  1.0000
  O   O3        1.0  0.72510  0.61240  0.46140  1.0000
  O   O4        1.0  0.77490  0.11240  0.03860  1.0000
  O   O5        1.0  0.51790  0.68110  0.30760  1.0000
  O   O6        1.0  0.98210  0.18110  0.19240  1.0000
  O   O7        1.0  0.48210  0.31890  0.69240  1.0000
  O   O8        1.0  0.01790  0.81890  0.80760  1.0000
