data_image0
_chemical_formula_structural       La3Ag9Co6S18O36N6H12N6H12N6H12C12H6C12H18C6H18C12H6C12H18C6H18C12H6C6H18C6H18C6
_chemical_formula_sum              "La3 Ag9 Co6 S18 O36 N18 H162 C90"
_cell_length_a       10.1695
_cell_length_b       10.1695
_cell_length_c       41.686
_cell_angle_alpha    90
_cell_angle_beta     90
_cell_angle_gamma    120

_space_group_name_H-M_alt    "P 1"
_space_group_IT_number       1

loop_
  _space_group_symop_operation_xyz
  'x, y, z'

loop_
  _atom_site_type_symbol
  _atom_site_label
  _atom_site_symmetry_multiplicity
  _atom_site_fract_x
  _atom_site_fract_y
  _atom_site_fract_z
  _atom_site_occupancy
  La  La1       1.0  0.00000  0.59436  0.83330  1.0000
  La  La2       1.0  0.40564  0.40564  0.49997  1.0000
  La  La3       1.0  0.59436  0.00000  0.16663  1.0000
  Ag  Ag1       1.0  0.84240  0.00000  0.66670  1.0000
  Ag  Ag2       1.0  1.00000  0.84240  0.33337  1.0000
  Ag  Ag3       1.0  0.15760  0.15760  0.00003  1.0000
  Ag  Ag4       1.0  0.67084  0.16137  0.67414  1.0000
  Ag  Ag5       1.0  0.83863  0.50947  0.34080  1.0000
  Ag  Ag6       1.0  0.49053  0.32916  0.00747  1.0000
  Ag  Ag7       1.0  0.16137  0.67084  0.32586  1.0000
  Ag  Ag8       1.0  0.50947  0.83863  0.65920  1.0000
  Ag  Ag9       1.0  0.32916  0.49053  0.99253  1.0000
  Co  Co1       1.0  0.62957  0.91289  0.74786  1.0000
  Co  Co2       1.0  0.08711  0.71668  0.41453  1.0000
  Co  Co3       1.0  0.28332  0.37043  0.08119  1.0000
  Co  Co4       1.0  0.91289  0.62957  0.25214  1.0000
  Co  Co5       1.0  0.71668  0.08711  0.58547  1.0000
  Co  Co6       1.0  0.37043  0.28332  0.91881  1.0000
  S   S1        1.0  0.85860  0.03460  0.72306  1.0000
  S   S2        1.0  0.96540  0.82400  0.38973  1.0000
  S   S3        1.0  0.17600  0.14140  0.05639  1.0000
  S   S4        1.0  0.03460  0.85860  0.27694  1.0000
  S   S5        1.0  0.82400  0.96540  0.61027  1.0000
  S   S6        1.0  0.14140  0.17600  0.94361  1.0000
  S   S7        1.0  0.54730  0.05920  0.72406  1.0000
  S   S8        1.0  0.94080  0.48810  0.39073  1.0000
  S   S9        1.0  0.51190  0.45270  0.05739  1.0000
  S   S10       1.0  0.05920  0.54730  0.27594  1.0000
  S   S11       1.0  0.48810  0.94080  0.60927  1.0000
  S   S12       1.0  0.45270  0.51190  0.94261  1.0000
  S   S13       1.0  0.53090  0.73490  0.70885  1.0000
  S   S14       1.0  0.26510  0.79600  0.37552  1.0000
  S   S15       1.0  0.20400  0.46910  0.04218  1.0000
  S   S16       1.0  0.73490  0.53090  0.29115  1.0000
  S   S17       1.0  0.79600  0.26510  0.62448  1.0000
  S   S18       1.0  0.46910  0.20400  0.95782  1.0000
  O   O1        1.0  0.84560  0.64710  0.79287  1.0000
  O   O2        1.0  0.35290  0.19850  0.45954  1.0000
  O   O3        1.0  0.80150  0.15440  0.12620  1.0000
  O   O4        1.0  0.64710  0.84560  0.20713  1.0000
  O   O5        1.0  0.19850  0.35290  0.54046  1.0000
  O   O6        1.0  0.15440  0.80150  0.87380  1.0000
  O   O7        1.0  0.07250  0.84800  0.80055  1.0000
  O   O8        1.0  0.15200  0.22450  0.46722  1.0000
  O   O9        1.0  0.77550  0.92750  0.13388  1.0000
  O   O10       1.0  0.84800  0.07250  0.19945  1.0000
  O   O11       1.0  0.22450  0.15200  0.53278  1.0000
  O   O12       1.0  0.92750  0.77550  0.86612  1.0000
  O   O13       1.0  0.82540  0.34300  0.81471  1.0000
  O   O14       1.0  0.65700  0.48240  0.48138  1.0000
  O   O15       1.0  0.51760  0.17460  0.14804  1.0000
  O   O16       1.0  0.34300  0.82540  0.18529  1.0000
  O   O17       1.0  0.48240  0.65700  0.51862  1.0000
  O   O18       1.0  0.17460  0.51760  0.85196  1.0000
  O   O19       1.0  0.59850  0.31290  0.82400  1.0000
  O   O20       1.0  0.68710  0.28560  0.49067  1.0000
  O   O21       1.0  0.71440  0.40150  0.15733  1.0000
  O   O22       1.0  0.31290  0.59850  0.17600  1.0000
  O   O23       1.0  0.28560  0.68710  0.50933  1.0000
  O   O24       1.0  0.40150  0.71440  0.84267  1.0000
  O   O25       1.0  0.13200  0.59450  0.78476  1.0000
  O   O26       1.0  0.40550  0.53750  0.45143  1.0000
  O   O27       1.0  0.46250  0.86800  0.11809  1.0000
  O   O28       1.0  0.59450  0.13200  0.21524  1.0000
  O   O29       1.0  0.53750  0.40550  0.54857  1.0000
  O   O30       1.0  0.86800  0.46250  0.88191  1.0000
  O   O31       1.0  0.15270  0.38620  0.78040  1.0000
  O   O32       1.0  0.61380  0.76650  0.44707  1.0000
  O   O33       1.0  0.23350  0.84730  0.11373  1.0000
  O   O34       1.0  0.38620  0.15270  0.21960  1.0000
  O   O35       1.0  0.76650  0.61380  0.55293  1.0000
  O   O36       1.0  0.84730  0.23350  0.88627  1.0000
  N   N1        1.0  0.71730  0.80620  0.77114  1.0000
  N   N2        1.0  0.19380  0.91110  0.43781  1.0000
  N   N3        1.0  0.08890  0.28270  0.10447  1.0000
  N   N4        1.0  0.80620  0.71730  0.22886  1.0000
  N   N5        1.0  0.91110  0.19380  0.56219  1.0000
  N   N6        1.0  0.28270  0.08890  0.89553  1.0000
  H   H1        1.0  0.68190  0.78980  0.79140  1.0000
  H   H2        1.0  0.21020  0.89210  0.45807  1.0000
  H   H3        1.0  0.10790  0.31810  0.12473  1.0000
  H   H4        1.0  0.78980  0.68190  0.20860  1.0000
  H   H5        1.0  0.89210  0.21020  0.54193  1.0000
  H   H6        1.0  0.31810  0.10790  0.87527  1.0000
  H   H7        1.0  0.68370  0.71490  0.76190  1.0000
  H   H8        1.0  0.28510  0.96880  0.42857  1.0000
  H   H9        1.0  0.03120  0.31630  0.09523  1.0000
  H   H10       1.0  0.71490  0.68370  0.23810  1.0000
  H   H11       1.0  0.96880  0.28510  0.57143  1.0000
  H   H12       1.0  0.31630  0.03120  0.90477  1.0000
  N   N7        1.0  0.69680  0.06670  0.78295  1.0000
  N   N8        1.0  0.93330  0.63010  0.44962  1.0000
  N   N9        1.0  0.36990  0.30320  0.11628  1.0000
  N   N10       1.0  0.06670  0.69680  0.21705  1.0000
  N   N11       1.0  0.63010  0.93330  0.55038  1.0000
  N   N12       1.0  0.30320  0.36990  0.88372  1.0000
  H   H13       1.0  0.68220  0.01820  0.80180  1.0000
  H   H14       1.0  0.98180  0.66400  0.46847  1.0000
  H   H15       1.0  0.33600  0.31780  0.13513  1.0000
  H   H16       1.0  0.01820  0.68220  0.19820  1.0000
  H   H17       1.0  0.66400  0.98180  0.53153  1.0000
  H   H18       1.0  0.31780  0.33600  0.86487  1.0000
  H   H19       1.0  0.79730  0.13040  0.78080  1.0000
  H   H20       1.0  0.86960  0.66690  0.44747  1.0000
  H   H21       1.0  0.33310  0.20270  0.11413  1.0000
  H   H22       1.0  0.13040  0.79730  0.21920  1.0000
  H   H23       1.0  0.66690  0.86960  0.55253  1.0000
  H   H24       1.0  0.20270  0.33310  0.88587  1.0000
  N   N13       1.0  0.42890  0.78060  0.76993  1.0000
  N   N14       1.0  0.21940  0.64830  0.43660  1.0000
  N   N15       1.0  0.35170  0.57110  0.10326  1.0000
  N   N16       1.0  0.78060  0.42890  0.23007  1.0000
  N   N17       1.0  0.64830  0.21940  0.56340  1.0000
  N   N18       1.0  0.57110  0.35170  0.89674  1.0000
  H   H25       1.0  0.44530  0.78350  0.79120  1.0000
  H   H26       1.0  0.21650  0.66180  0.45787  1.0000
  H   H27       1.0  0.33820  0.55470  0.12453  1.0000
  H   H28       1.0  0.78350  0.44530  0.20880  1.0000
  H   H29       1.0  0.66180  0.21650  0.54213  1.0000
  H   H30       1.0  0.55470  0.33820  0.87547  1.0000
  H   H31       1.0  0.36830  0.82010  0.76640  1.0000
  H   H32       1.0  0.17990  0.54820  0.43307  1.0000
  H   H33       1.0  0.45180  0.63170  0.09973  1.0000
  H   H34       1.0  0.82010  0.36830  0.23360  1.0000
  H   H35       1.0  0.54820  0.17990  0.56693  1.0000
  H   H36       1.0  0.63170  0.45180  0.90027  1.0000
  C   C1        1.0  0.95210  0.93090  0.73810  1.0000
  C   C2        1.0  0.06910  0.02120  0.40477  1.0000
  C   C3        1.0  0.97880  0.04790  0.07143  1.0000
  C   C4        1.0  0.93090  0.95210  0.26190  1.0000
  C   C5        1.0  0.02120  0.06910  0.59523  1.0000
  C   C6        1.0  0.04790  0.97880  0.92857  1.0000
  C   C7        1.0  0.88440  0.88470  0.77240  1.0000
  C   C8        1.0  0.11530  0.99970  0.43907  1.0000
  C   C9        1.0  0.00030  0.11560  0.10573  1.0000
  C   C10       1.0  0.88470  0.88440  0.22760  1.0000
  C   C11       1.0  0.99970  0.11530  0.56093  1.0000
  C   C12       1.0  0.11560  0.00030  0.89427  1.0000
  H   H37       1.0  0.91940  0.97790  0.78490  1.0000
  H   H38       1.0  0.02210  0.94150  0.45157  1.0000
  H   H39       1.0  0.05850  0.08060  0.11823  1.0000
  H   H40       1.0  0.97790  0.91940  0.21510  1.0000
  H   H41       1.0  0.94150  0.02210  0.54843  1.0000
  H   H42       1.0  0.08060  0.05850  0.88177  1.0000
  C   C13       1.0  0.93980  0.78580  0.78960  1.0000
  C   C14       1.0  0.21420  0.15400  0.45627  1.0000
  C   C15       1.0  0.84600  0.06020  0.12293  1.0000
  C   C16       1.0  0.78580  0.93980  0.21040  1.0000
  C   C17       1.0  0.15400  0.21420  0.54373  1.0000
  C   C18       1.0  0.06020  0.84600  0.87707  1.0000
  C   C19       1.0  0.11970  0.03730  0.73900  1.0000
  C   C20       1.0  0.96270  0.08240  0.40567  1.0000
  C   C21       1.0  0.91760  0.88030  0.07233  1.0000
  C   C22       1.0  0.03730  0.11970  0.26100  1.0000
  C   C23       1.0  0.08240  0.96270  0.59433  1.0000
  C   C24       1.0  0.88030  0.91760  0.92767  1.0000
  H   H43       1.0  0.16970  0.98360  0.74610  1.0000
  H   H44       1.0  0.01640  0.18610  0.41277  1.0000
  H   H45       1.0  0.81390  0.83030  0.07943  1.0000
  H   H46       1.0  0.98360  0.16970  0.25390  1.0000
  H   H47       1.0  0.18610  0.01640  0.58723  1.0000
  H   H48       1.0  0.83030  0.81390  0.92057  1.0000
  H   H49       1.0  0.14210  0.11890  0.75360  1.0000
  H   H50       1.0  0.88110  0.02320  0.42027  1.0000
  H   H51       1.0  0.97680  0.85790  0.08693  1.0000
  H   H52       1.0  0.11890  0.14210  0.24640  1.0000
  H   H53       1.0  0.02320  0.88110  0.57973  1.0000
  H   H54       1.0  0.85790  0.97680  0.91307  1.0000
  H   H55       1.0  0.15500  0.07760  0.71800  1.0000
  H   H56       1.0  0.92240  0.07740  0.38467  1.0000
  H   H57       1.0  0.92260  0.84500  0.05133  1.0000
  H   H58       1.0  0.07760  0.15500  0.28200  1.0000
  H   H59       1.0  0.07740  0.92240  0.61533  1.0000
  H   H60       1.0  0.84500  0.92260  0.94867  1.0000
  C   C25       1.0  0.91590  0.78940  0.71850  1.0000
  C   C26       1.0  0.21060  0.12650  0.38517  1.0000
  C   C27       1.0  0.87350  0.08410  0.05183  1.0000
  C   C28       1.0  0.78940  0.91590  0.28150  1.0000
  C   C29       1.0  0.12650  0.21060  0.61483  1.0000
  C   C30       1.0  0.08410  0.87350  0.94817  1.0000
  H   H61       1.0  0.97180  0.74410  0.72690  1.0000
  H   H62       1.0  0.25590  0.22770  0.39357  1.0000
  H   H63       1.0  0.77230  0.02820  0.06023  1.0000
  H   H64       1.0  0.74410  0.97180  0.27310  1.0000
  H   H65       1.0  0.22770  0.25590  0.60643  1.0000
  H   H66       1.0  0.02820  0.77230  0.93977  1.0000
  H   H67       1.0  0.94400  0.81770  0.69650  1.0000
  H   H68       1.0  0.18230  0.12630  0.36317  1.0000
  H   H69       1.0  0.87370  0.05600  0.02983  1.0000
  H   H70       1.0  0.81770  0.94400  0.30350  1.0000
  H   H71       1.0  0.12630  0.18230  0.63683  1.0000
  H   H72       1.0  0.05600  0.87370  0.97017  1.0000
  H   H73       1.0  0.80910  0.71780  0.71970  1.0000
  H   H74       1.0  0.28220  0.09130  0.38637  1.0000
  H   H75       1.0  0.90870  0.19090  0.05303  1.0000
  H   H76       1.0  0.71780  0.80910  0.28030  1.0000
  H   H77       1.0  0.09130  0.28220  0.61363  1.0000
  H   H78       1.0  0.19090  0.90870  0.94697  1.0000
  C   C31       1.0  0.63010  0.22680  0.75074  1.0000
  C   C32       1.0  0.77320  0.40330  0.41741  1.0000
  C   C33       1.0  0.59670  0.36990  0.08407  1.0000
  C   C34       1.0  0.22680  0.63010  0.24926  1.0000
  C   C35       1.0  0.40330  0.77320  0.58259  1.0000
  C   C36       1.0  0.36990  0.59670  0.91593  1.0000
  C   C37       1.0  0.62120  0.15840  0.78450  1.0000
  C   C38       1.0  0.84160  0.46280  0.45117  1.0000
  C   C39       1.0  0.53720  0.37880  0.11783  1.0000
  C   C40       1.0  0.15840  0.62120  0.21550  1.0000
  C   C41       1.0  0.46280  0.84160  0.54883  1.0000
  C   C42       1.0  0.37880  0.53720  0.88217  1.0000
  H   H79       1.0  0.51390  0.09030  0.78970  1.0000
  H   H80       1.0  0.90970  0.42360  0.45637  1.0000
  H   H81       1.0  0.57640  0.48610  0.12303  1.0000
  H   H82       1.0  0.09030  0.51390  0.21030  1.0000
  H   H83       1.0  0.42360  0.90970  0.54363  1.0000
  H   H84       1.0  0.48610  0.57640  0.87697  1.0000
  C   C43       1.0  0.68900  0.27890  0.81040  1.0000
  C   C44       1.0  0.72110  0.41010  0.47707  1.0000
  C   C45       1.0  0.58990  0.31100  0.14373  1.0000
  C   C46       1.0  0.27890  0.68900  0.18960  1.0000
  C   C47       1.0  0.41010  0.72110  0.52293  1.0000
  C   C48       1.0  0.31100  0.58990  0.85627  1.0000
  C   C49       1.0  0.79190  0.34540  0.74140  1.0000
  C   C50       1.0  0.65460  0.44650  0.40807  1.0000
  C   C51       1.0  0.55350  0.20810  0.07473  1.0000
  C   C52       1.0  0.34540  0.79190  0.25860  1.0000
  C   C53       1.0  0.44650  0.65460  0.59193  1.0000
  C   C54       1.0  0.20810  0.55350  0.92527  1.0000
  H   H85       1.0  0.82920  0.42970  0.75600  1.0000
  H   H86       1.0  0.57030  0.39950  0.42267  1.0000
  H   H87       1.0  0.60050  0.17080  0.08933  1.0000
  H   H88       1.0  0.42970  0.82920  0.24400  1.0000
  H   H89       1.0  0.39950  0.57030  0.57733  1.0000
  H   H90       1.0  0.17080  0.60050  0.91067  1.0000
  H   H91       1.0  0.79250  0.38030  0.72000  1.0000
  H   H92       1.0  0.61970  0.41220  0.38667  1.0000
  H   H93       1.0  0.58780  0.20750  0.05333  1.0000
  H   H94       1.0  0.38030  0.79250  0.28000  1.0000
  H   H95       1.0  0.41220  0.61970  0.61333  1.0000
  H   H96       1.0  0.20750  0.58780  0.94667  1.0000
  H   H97       1.0  0.85590  0.30110  0.74240  1.0000
  H   H98       1.0  0.69890  0.55480  0.40907  1.0000
  H   H99       1.0  0.44520  0.14410  0.07573  1.0000
  H   H100      1.0  0.30110  0.85590  0.25760  1.0000
  H   H101      1.0  0.55480  0.69890  0.59093  1.0000
  H   H102      1.0  0.14410  0.44520  0.92427  1.0000
  C   C55       1.0  0.52990  0.30040  0.74900  1.0000
  C   C56       1.0  0.69960  0.22950  0.41567  1.0000
  C   C57       1.0  0.77050  0.47010  0.08233  1.0000
  C   C58       1.0  0.30040  0.52990  0.25100  1.0000
  C   C59       1.0  0.22950  0.69960  0.58433  1.0000
  C   C60       1.0  0.47010  0.77050  0.91767  1.0000
  H   H103      1.0  0.57160  0.38830  0.76270  1.0000
  H   H104      1.0  0.61170  0.18330  0.42937  1.0000
  H   H105      1.0  0.81670  0.42840  0.09603  1.0000
  H   H106      1.0  0.38830  0.57160  0.23730  1.0000
  H   H107      1.0  0.18330  0.61170  0.57063  1.0000
  H   H108      1.0  0.42840  0.81670  0.90397  1.0000
  H   H109      1.0  0.42900  0.22880  0.75610  1.0000
  H   H110      1.0  0.77120  0.20020  0.42277  1.0000
  H   H111      1.0  0.79980  0.57100  0.08943  1.0000
  H   H112      1.0  0.22880  0.42900  0.24390  1.0000
  H   H113      1.0  0.20020  0.77120  0.57723  1.0000
  H   H114      1.0  0.57100  0.79980  0.91057  1.0000
  H   H115      1.0  0.52650  0.33020  0.72730  1.0000
  H   H116      1.0  0.66980  0.19630  0.39397  1.0000
  H   H117      1.0  0.80370  0.47350  0.06063  1.0000
  H   H118      1.0  0.33020  0.52650  0.27270  1.0000
  H   H119      1.0  0.19630  0.66980  0.60603  1.0000
  H   H120      1.0  0.47350  0.80370  0.93937  1.0000
  C   C61       1.0  0.33040  0.60900  0.72310  1.0000
  C   C62       1.0  0.39100  0.72140  0.38977  1.0000
  C   C63       1.0  0.27860  0.66960  0.05643  1.0000
  C   C64       1.0  0.60900  0.33040  0.27690  1.0000
  C   C65       1.0  0.72140  0.39100  0.61023  1.0000
  C   C66       1.0  0.66960  0.27860  0.94357  1.0000
  C   C67       1.0  0.34730  0.61840  0.75930  1.0000
  C   C68       1.0  0.38160  0.72890  0.42597  1.0000
  C   C69       1.0  0.27110  0.65270  0.09263  1.0000
  C   C70       1.0  0.61840  0.34730  0.24070  1.0000
  C   C71       1.0  0.72890  0.38160  0.57403  1.0000
  C   C72       1.0  0.65270  0.27110  0.90737  1.0000
  H   H121      1.0  0.41240  0.57620  0.76490  1.0000
  H   H122      1.0  0.42380  0.83620  0.43157  1.0000
  H   H123      1.0  0.16380  0.58760  0.09823  1.0000
  H   H124      1.0  0.57620  0.41240  0.23510  1.0000
  H   H125      1.0  0.83620  0.42380  0.56843  1.0000
  H   H126      1.0  0.58760  0.16380  0.90177  1.0000
  C   C73       1.0  0.27490  0.45170  0.71010  1.0000
  C   C74       1.0  0.54830  0.82320  0.37677  1.0000
  C   C75       1.0  0.17680  0.72510  0.04343  1.0000
  C   C76       1.0  0.45170  0.27490  0.28990  1.0000
  C   C77       1.0  0.82320  0.54830  0.62323  1.0000
  C   C78       1.0  0.72510  0.17680  0.95657  1.0000
  H   H127      1.0  0.17240  0.38560  0.71700  1.0000
  H   H128      1.0  0.61440  0.78680  0.38367  1.0000
  H   H129      1.0  0.21320  0.82760  0.05033  1.0000
  H   H130      1.0  0.38560  0.17240  0.28300  1.0000
  H   H131      1.0  0.78680  0.61440  0.61633  1.0000
  H   H132      1.0  0.82760  0.21320  0.94967  1.0000
  H   H133      1.0  0.33880  0.41400  0.71780  1.0000
  H   H134      1.0  0.58600  0.92480  0.38447  1.0000
  H   H135      1.0  0.07520  0.66120  0.05113  1.0000
  H   H136      1.0  0.41400  0.33880  0.28220  1.0000
  H   H137      1.0  0.92480  0.58600  0.61553  1.0000
  H   H138      1.0  0.66120  0.07520  0.94887  1.0000
  H   H139      1.0  0.27830  0.45530  0.68700  1.0000
  H   H140      1.0  0.54470  0.82300  0.35367  1.0000
  H   H141      1.0  0.17700  0.72170  0.02033  1.0000
  H   H142      1.0  0.45530  0.27830  0.31300  1.0000
  H   H143      1.0  0.82300  0.54470  0.64633  1.0000
  H   H144      1.0  0.72170  0.17700  0.97967  1.0000
  C   C79       1.0  0.22770  0.66870  0.71090  1.0000
  C   C80       1.0  0.33130  0.55900  0.37757  1.0000
  C   C81       1.0  0.44100  0.77230  0.04423  1.0000
  C   C82       1.0  0.66870  0.22770  0.28910  1.0000
  C   C83       1.0  0.55900  0.33130  0.62243  1.0000
  C   C84       1.0  0.77230  0.44100  0.95577  1.0000
  H   H145      1.0  0.12570  0.60320  0.71820  1.0000
  H   H146      1.0  0.39680  0.52250  0.38487  1.0000
  H   H147      1.0  0.47750  0.87430  0.05153  1.0000
  H   H148      1.0  0.60320  0.12570  0.28180  1.0000
  H   H149      1.0  0.52250  0.39680  0.61513  1.0000
  H   H150      1.0  0.87430  0.47750  0.94847  1.0000
  H   H151      1.0  0.22930  0.67090  0.68790  1.0000
  H   H152      1.0  0.32910  0.55840  0.35457  1.0000
  H   H153      1.0  0.44160  0.77070  0.02123  1.0000
  H   H154      1.0  0.67090  0.22930  0.31210  1.0000
  H   H155      1.0  0.55840  0.32910  0.64543  1.0000
  H   H156      1.0  0.77070  0.44160  0.97877  1.0000
  H   H157      1.0  0.26390  0.76950  0.71900  1.0000
  H   H158      1.0  0.23050  0.49440  0.38567  1.0000
  H   H159      1.0  0.50560  0.73610  0.05233  1.0000
  H   H160      1.0  0.76950  0.26390  0.28100  1.0000
  H   H161      1.0  0.49440  0.23050  0.61433  1.0000
  H   H162      1.0  0.73610  0.50560  0.94767  1.0000
  C   C85       1.0  0.19540  0.52180  0.77700  1.0000
  C   C86       1.0  0.47820  0.67360  0.44367  1.0000
  C   C87       1.0  0.32640  0.80460  0.11033  1.0000
  C   C88       1.0  0.52180  0.19540  0.22300  1.0000
  C   C89       1.0  0.67360  0.47820  0.55633  1.0000
  C   C90       1.0  0.80460  0.32640  0.88967  1.0000
