data_image0
_chemical_formula_structural       Ag16C48N168O144
_chemical_formula_sum              "Ag16 C48 N168 O144"
_cell_length_a       11.7121
_cell_length_b       22.171
_cell_length_c       21.479
_cell_angle_alpha    90
_cell_angle_beta     91.6
_cell_angle_gamma    90

_space_group_name_H-M_alt    "P 1"
_space_group_IT_number       1

loop_
  _space_group_symop_operation_xyz
  'x, y, z'

loop_
  _atom_site_type_symbol
  _atom_site_label
  _atom_site_symmetry_multiplicity
  _atom_site_fract_x
  _atom_site_fract_y
  _atom_site_fract_z
  _atom_site_occupancy
  Ag  Ag1       1.0  0.40031  0.75126  0.07839  1.0000
  Ag  Ag2       1.0  0.59969  0.25126  0.42161  1.0000
  Ag  Ag3       1.0  0.59969  0.24874  0.92161  1.0000
  Ag  Ag4       1.0  0.40031  0.74874  0.57839  1.0000
  Ag  Ag5       1.0  0.11329  0.81547  0.02430  1.0000
  Ag  Ag6       1.0  0.88671  0.31547  0.47570  1.0000
  Ag  Ag7       1.0  0.88671  0.18453  0.97570  1.0000
  Ag  Ag8       1.0  0.11329  0.68453  0.52430  1.0000
  Ag  Ag9       1.0  0.89698  0.68294  0.99030  1.0000
  Ag  Ag10      1.0  0.10302  0.18294  0.50970  1.0000
  Ag  Ag11      1.0  0.10302  0.31706  0.00970  1.0000
  Ag  Ag12      1.0  0.89698  0.81706  0.49030  1.0000
  Ag  Ag13      1.0  0.60871  0.74553  0.94040  1.0000
  Ag  Ag14      1.0  0.39129  0.24553  0.55960  1.0000
  Ag  Ag15      1.0  0.39129  0.25447  0.05960  1.0000
  Ag  Ag16      1.0  0.60871  0.75447  0.44040  1.0000
  C   C1        1.0  0.26890  0.80160  0.89130  1.0000
  C   C2        1.0  0.73110  0.30160  0.60870  1.0000
  C   C3        1.0  0.73110  0.19840  0.10870  1.0000
  C   C4        1.0  0.26890  0.69840  0.39130  1.0000
  C   C5        1.0  0.16940  0.80650  0.84700  1.0000
  C   C6        1.0  0.83060  0.30650  0.65300  1.0000
  C   C7        1.0  0.83060  0.19350  0.15300  1.0000
  C   C8        1.0  0.16940  0.69350  0.34700  1.0000
  C   C9        1.0  0.74560  0.60690  0.82220  1.0000
  C   C10       1.0  0.25440  0.10690  0.67780  1.0000
  C   C11       1.0  0.25440  0.39310  0.17780  1.0000
  C   C12       1.0  0.74560  0.89310  0.32220  1.0000
  C   C13       1.0  0.74080  0.57100  0.76370  1.0000
  C   C14       1.0  0.25920  0.07100  0.73630  1.0000
  C   C15       1.0  0.25920  0.42900  0.23630  1.0000
  C   C16       1.0  0.74080  0.92900  0.26370  1.0000
  C   C17       1.0  0.73910  0.69180  0.12530  1.0000
  C   C18       1.0  0.26090  0.19180  0.37470  1.0000
  C   C19       1.0  0.26090  0.30820  0.87470  1.0000
  C   C20       1.0  0.73910  0.80820  0.62530  1.0000
  C   C21       1.0  0.83850  0.68200  0.16840  1.0000
  C   C22       1.0  0.16150  0.18200  0.33160  1.0000
  C   C23       1.0  0.16150  0.31800  0.83160  1.0000
  C   C24       1.0  0.83850  0.81800  0.66840  1.0000
  C   C25       1.0  0.76550  0.87040  0.99390  1.0000
  C   C26       1.0  0.23450  0.37040  0.50610  1.0000
  C   C27       1.0  0.23450  0.12960  0.00610  1.0000
  C   C28       1.0  0.76550  0.62960  0.49390  1.0000
  C   C29       1.0  0.66810  0.91280  0.99580  1.0000
  C   C30       1.0  0.33190  0.41280  0.50420  1.0000
  C   C31       1.0  0.33190  0.08720  0.00420  1.0000
  C   C32       1.0  0.66810  0.58720  0.49580  1.0000
  C   C33       1.0  0.23900  0.62700  0.03450  1.0000
  C   C34       1.0  0.76100  0.12700  0.46550  1.0000
  C   C35       1.0  0.76100  0.37300  0.96550  1.0000
  C   C36       1.0  0.23900  0.87300  0.53450  1.0000
  C   C37       1.0  0.33730  0.58450  0.03280  1.0000
  C   C38       1.0  0.66270  0.08450  0.46720  1.0000
  C   C39       1.0  0.66270  0.41550  0.96720  1.0000
  C   C40       1.0  0.33730  0.91550  0.53280  1.0000
  C   C41       1.0  0.24870  0.88160  0.20060  1.0000
  C   C42       1.0  0.75130  0.38160  0.29940  1.0000
  C   C43       1.0  0.75130  0.11840  0.79940  1.0000
  C   C44       1.0  0.24870  0.61840  0.70060  1.0000
  C   C45       1.0  0.23820  0.91820  0.25730  1.0000
  C   C46       1.0  0.76180  0.41820  0.24270  1.0000
  C   C47       1.0  0.76180  0.08180  0.74270  1.0000
  C   C48       1.0  0.23820  0.58180  0.75730  1.0000
  N   N1        1.0  0.37310  0.78900  0.87290  1.0000
  N   N2        1.0  0.62690  0.28900  0.62710  1.0000
  N   N3        1.0  0.62690  0.21100  0.12710  1.0000
  N   N4        1.0  0.37310  0.71100  0.37290  1.0000
  N   N5        1.0  0.43340  0.78500  0.92642  1.0000
  N   N6        1.0  0.56660  0.28500  0.57358  1.0000
  N   N7        1.0  0.56660  0.21500  0.07358  1.0000
  N   N8        1.0  0.43340  0.71500  0.42642  1.0000
  N   N9        1.0  0.36770  0.79440  0.97420  1.0000
  N   N10       1.0  0.63230  0.29440  0.52580  1.0000
  N   N11       1.0  0.63230  0.20560  0.02580  1.0000
  N   N12       1.0  0.36770  0.70560  0.47420  1.0000
  N   N13       1.0  0.26070  0.80520  0.95300  1.0000
  N   N14       1.0  0.73930  0.30520  0.54700  1.0000
  N   N15       1.0  0.73930  0.19480  0.04700  1.0000
  N   N16       1.0  0.26070  0.69480  0.45300  1.0000
  N   N17       1.0  0.07200  0.76260  0.86450  1.0000
  N   N18       1.0  0.92800  0.26260  0.63550  1.0000
  N   N19       1.0  0.92800  0.23740  0.13550  1.0000
  N   N20       1.0  0.07200  0.73740  0.36450  1.0000
  N   N21       1.0  0.20760  0.78900  0.78190  1.0000
  N   N22       1.0  0.79240  0.28900  0.71810  1.0000
  N   N23       1.0  0.79240  0.21100  0.21810  1.0000
  N   N24       1.0  0.20760  0.71100  0.28190  1.0000
  N   N25       1.0  0.11600  0.86930  0.84320  1.0000
  N   N26       1.0  0.88400  0.36930  0.65680  1.0000
  N   N27       1.0  0.88400  0.13070  0.15680  1.0000
  N   N28       1.0  0.11600  0.63070  0.34320  1.0000
  N   N29       1.0  0.66050  0.64410  0.83650  1.0000
  N   N30       1.0  0.33950  0.14410  0.66350  1.0000
  N   N31       1.0  0.33950  0.35590  0.16350  1.0000
  N   N32       1.0  0.66050  0.85590  0.33650  1.0000
  N   N33       1.0  0.69920  0.67190  0.88760  1.0000
  N   N34       1.0  0.30080  0.17190  0.61240  1.0000
  N   N35       1.0  0.30080  0.32810  0.11240  1.0000
  N   N36       1.0  0.69920  0.82810  0.38760  1.0000
  N   N37       1.0  0.80230  0.65130  0.90300  1.0000
  N   N38       1.0  0.19770  0.15130  0.59700  1.0000
  N   N39       1.0  0.19770  0.34870  0.09700  1.0000
  N   N40       1.0  0.80230  0.84870  0.40300  1.0000
  N   N41       1.0  0.83410  0.61020  0.86190  1.0000
  N   N42       1.0  0.16590  0.11020  0.63810  1.0000
  N   N43       1.0  0.16590  0.38980  0.13810  1.0000
  N   N44       1.0  0.83410  0.88980  0.36190  1.0000
  N   N45       1.0  0.81130  0.60030  0.71360  1.0000
  N   N46       1.0  0.18870  0.10030  0.78640  1.0000
  N   N47       1.0  0.18870  0.39970  0.28640  1.0000
  N   N48       1.0  0.81130  0.89970  0.21360  1.0000
  N   N49       1.0  0.61660  0.56690  0.73930  1.0000
  N   N50       1.0  0.38340  0.06690  0.76070  1.0000
  N   N51       1.0  0.38340  0.43310  0.26070  1.0000
  N   N52       1.0  0.61660  0.93310  0.23930  1.0000
  N   N53       1.0  0.77980  0.50550  0.76900  1.0000
  N   N54       1.0  0.22020  0.00550  0.73100  1.0000
  N   N55       1.0  0.22020  0.49450  0.23100  1.0000
  N   N56       1.0  0.77980  0.99450  0.26900  1.0000
  N   N57       1.0  0.74610  0.68720  0.06350  1.0000
  N   N58       1.0  0.25390  0.18720  0.43650  1.0000
  N   N59       1.0  0.25390  0.31280  0.93650  1.0000
  N   N60       1.0  0.74610  0.81280  0.56350  1.0000
  N   N61       1.0  0.64050  0.70070  0.04250  1.0000
  N   N62       1.0  0.35950  0.20070  0.45750  1.0000
  N   N63       1.0  0.35950  0.29930  0.95750  1.0000
  N   N64       1.0  0.64050  0.79930  0.54250  1.0000
  N   N65       1.0  0.57530  0.71240  0.09034  1.0000
  N   N66       1.0  0.42470  0.21240  0.40966  1.0000
  N   N67       1.0  0.42470  0.28760  0.90966  1.0000
  N   N68       1.0  0.57530  0.78760  0.59034  1.0000
  N   N69       1.0  0.63650  0.70720  0.14360  1.0000
  N   N70       1.0  0.36350  0.20720  0.35640  1.0000
  N   N71       1.0  0.36350  0.29280  0.85640  1.0000
  N   N72       1.0  0.63650  0.79280  0.64360  1.0000
  N   N73       1.0  0.92540  0.73370  0.16870  1.0000
  N   N74       1.0  0.07460  0.23370  0.33130  1.0000
  N   N75       1.0  0.07460  0.26630  0.83130  1.0000
  N   N76       1.0  0.92540  0.76630  0.66870  1.0000
  N   N77       1.0  0.90380  0.62450  0.15030  1.0000
  N   N78       1.0  0.09620  0.12450  0.34970  1.0000
  N   N79       1.0  0.09620  0.37550  0.84970  1.0000
  N   N80       1.0  0.90380  0.87550  0.65030  1.0000
  N   N81       1.0  0.80040  0.67350  0.23590  1.0000
  N   N82       1.0  0.19960  0.17350  0.26410  1.0000
  N   N83       1.0  0.19960  0.32650  0.76410  1.0000
  N   N84       1.0  0.80040  0.82650  0.73590  1.0000
  N   N85       1.0  0.75550  0.81330  0.97540  1.0000
  N   N86       1.0  0.24450  0.31330  0.52460  1.0000
  N   N87       1.0  0.24450  0.18670  0.02460  1.0000
  N   N88       1.0  0.75550  0.68670  0.47540  1.0000
  N   N89       1.0  0.86130  0.79200  0.97960  1.0000
  N   N90       1.0  0.13870  0.29200  0.52040  1.0000
  N   N91       1.0  0.13870  0.20800  0.02040  1.0000
  N   N92       1.0  0.86130  0.70800  0.47960  1.0000
  N   N93       1.0  0.93240  0.83570  0.99950  1.0000
  N   N94       1.0  0.06760  0.33570  0.50050  1.0000
  N   N95       1.0  0.06760  0.16430  0.00050  1.0000
  N   N96       1.0  0.93240  0.66430  0.49950  1.0000
  N   N97       1.0  0.87290  0.88640  0.00860  1.0000
  N   N98       1.0  0.12710  0.38640  0.49140  1.0000
  N   N99       1.0  0.12710  0.11360  0.99140  1.0000
  N   N100      1.0  0.87290  0.61360  0.50860  1.0000
  N   N101      1.0  0.71080  0.97700  0.01000  1.0000
  N   N102      1.0  0.28920  0.47700  0.49000  1.0000
  N   N103      1.0  0.28920  0.02300  0.99000  1.0000
  N   N104      1.0  0.71080  0.52300  0.51000  1.0000
  N   N105      1.0  0.60450  0.91450  0.93190  1.0000
  N   N106      1.0  0.39550  0.41450  0.56810  1.0000
  N   N107      1.0  0.39550  0.08550  0.06810  1.0000
  N   N108      1.0  0.60450  0.58550  0.43190  1.0000
  N   N109      1.0  0.57980  0.89840  0.04440  1.0000
  N   N110      1.0  0.42020  0.39840  0.45560  1.0000
  N   N111      1.0  0.42020  0.10160  0.95560  1.0000
  N   N112      1.0  0.57980  0.60160  0.54440  1.0000
  N   N113      1.0  0.13320  0.61160  0.01660  1.0000
  N   N114      1.0  0.86680  0.11160  0.48340  1.0000
  N   N115      1.0  0.86680  0.38840  0.98340  1.0000
  N   N116      1.0  0.13320  0.88840  0.51660  1.0000
  N   N117      1.0  0.07480  0.66290  0.02320  1.0000
  N   N118      1.0  0.92520  0.16290  0.47680  1.0000
  N   N119      1.0  0.92520  0.33710  0.97680  1.0000
  N   N120      1.0  0.07480  0.83710  0.52320  1.0000
  N   N121      1.0  0.14390  0.70650  0.04440  1.0000
  N   N122      1.0  0.85610  0.20650  0.45560  1.0000
  N   N123      1.0  0.85610  0.29350  0.95560  1.0000
  N   N124      1.0  0.14390  0.79350  0.54440  1.0000
  N   N125      1.0  0.24920  0.68450  0.05180  1.0000
  N   N126      1.0  0.75080  0.18450  0.44820  1.0000
  N   N127      1.0  0.75080  0.31550  0.94820  1.0000
  N   N128      1.0  0.24920  0.81550  0.55180  1.0000
  N   N129      1.0  0.29630  0.51930  0.02510  1.0000
  N   N130      1.0  0.70370  0.01930  0.47490  1.0000
  N   N131      1.0  0.70370  0.48070  0.97490  1.0000
  N   N132      1.0  0.29630  0.98070  0.52510  1.0000
  N   N133      1.0  0.41900  0.59780  0.97920  1.0000
  N   N134      1.0  0.58100  0.09780  0.52080  1.0000
  N   N135      1.0  0.58100  0.40220  0.02080  1.0000
  N   N136      1.0  0.41900  0.90220  0.47920  1.0000
  N   N137      1.0  0.41090  0.58640  0.09340  1.0000
  N   N138      1.0  0.58910  0.08640  0.40660  1.0000
  N   N139      1.0  0.58910  0.41360  0.90660  1.0000
  N   N140      1.0  0.41090  0.91360  0.59340  1.0000
  N   N141      1.0  0.16840  0.88480  0.15500  1.0000
  N   N142      1.0  0.83160  0.38480  0.34500  1.0000
  N   N143      1.0  0.83160  0.11520  0.84500  1.0000
  N   N144      1.0  0.16840  0.61520  0.65500  1.0000
  N   N145      1.0  0.20730  0.84770  0.11180  1.0000
  N   N146      1.0  0.79270  0.34770  0.38820  1.0000
  N   N147      1.0  0.79270  0.15230  0.88820  1.0000
  N   N148      1.0  0.20730  0.65230  0.61180  1.0000
  N   N149      1.0  0.30570  0.82380  0.13140  1.0000
  N   N150      1.0  0.69430  0.32380  0.36860  1.0000
  N   N151      1.0  0.69430  0.17620  0.86860  1.0000
  N   N152      1.0  0.30570  0.67620  0.63140  1.0000
  N   N153      1.0  0.33390  0.84500  0.18770  1.0000
  N   N154      1.0  0.66610  0.34500  0.31230  1.0000
  N   N155      1.0  0.66610  0.15500  0.81230  1.0000
  N   N156      1.0  0.33390  0.65500  0.68770  1.0000
  N   N157      1.0  0.11210  0.93380  0.26540  1.0000
  N   N158      1.0  0.88790  0.43380  0.23460  1.0000
  N   N159      1.0  0.88790  0.06620  0.73460  1.0000
  N   N160      1.0  0.11210  0.56620  0.76540  1.0000
  N   N161      1.0  0.28300  0.88940  0.31790  1.0000
  N   N162      1.0  0.71700  0.38940  0.18210  1.0000
  N   N163      1.0  0.71700  0.11060  0.68210  1.0000
  N   N164      1.0  0.28300  0.61060  0.81790  1.0000
  N   N165      1.0  0.30150  0.97920  0.25340  1.0000
  N   N166      1.0  0.69850  0.47920  0.24660  1.0000
  N   N167      1.0  0.69850  0.02080  0.74660  1.0000
  N   N168      1.0  0.30150  0.52080  0.75340  1.0000
  O   O1        1.0  0.10210  0.71620  0.88780  1.0000
  O   O2        1.0  0.89790  0.21620  0.61220  1.0000
  O   O3        1.0  0.89790  0.28380  0.11220  1.0000
  O   O4        1.0  0.10210  0.78380  0.38780  1.0000
  O   O5        1.0  0.97680  0.77960  0.85340  1.0000
  O   O6        1.0  0.02320  0.27960  0.64660  1.0000
  O   O7        1.0  0.02320  0.22040  0.14660  1.0000
  O   O8        1.0  0.97680  0.72040  0.35340  1.0000
  O   O9        1.0  0.25660  0.82810  0.75400  1.0000
  O   O10       1.0  0.74340  0.32810  0.74600  1.0000
  O   O11       1.0  0.74340  0.17190  0.24600  1.0000
  O   O12       1.0  0.25660  0.67190  0.25400  1.0000
  O   O13       1.0  0.19290  0.73760  0.76680  1.0000
  O   O14       1.0  0.80710  0.23760  0.73320  1.0000
  O   O15       1.0  0.80710  0.26240  0.23320  1.0000
  O   O16       1.0  0.19290  0.76240  0.26680  1.0000
  O   O17       1.0  0.06240  0.88170  0.79540  1.0000
  O   O18       1.0  0.93760  0.38170  0.70460  1.0000
  O   O19       1.0  0.93760  0.11830  0.20460  1.0000
  O   O20       1.0  0.06240  0.61830  0.29540  1.0000
  O   O21       1.0  0.13030  0.90050  0.88800  1.0000
  O   O22       1.0  0.86970  0.40050  0.61200  1.0000
  O   O23       1.0  0.86970  0.09950  0.11200  1.0000
  O   O24       1.0  0.13030  0.59950  0.38800  1.0000
  O   O25       1.0  0.80220  0.65410  0.71080  1.0000
  O   O26       1.0  0.19780  0.15410  0.78920  1.0000
  O   O27       1.0  0.19780  0.34590  0.28920  1.0000
  O   O28       1.0  0.80220  0.84590  0.21080  1.0000
  O   O29       1.0  0.86900  0.56820  0.68180  1.0000
  O   O30       1.0  0.13100  0.06820  0.81820  1.0000
  O   O31       1.0  0.13100  0.43180  0.31820  1.0000
  O   O32       1.0  0.86900  0.93180  0.18180  1.0000
  O   O33       1.0  0.55380  0.54050  0.77340  1.0000
  O   O34       1.0  0.44620  0.04050  0.72660  1.0000
  O   O35       1.0  0.44620  0.45950  0.22660  1.0000
  O   O36       1.0  0.55380  0.95950  0.27340  1.0000
  O   O37       1.0  0.59590  0.58880  0.68890  1.0000
  O   O38       1.0  0.40410  0.08880  0.81110  1.0000
  O   O39       1.0  0.40410  0.41120  0.31110  1.0000
  O   O40       1.0  0.59590  0.91120  0.18890  1.0000
  O   O41       1.0  0.84500  0.49210  0.80970  1.0000
  O   O42       1.0  0.15500  0.99210  0.69030  1.0000
  O   O43       1.0  0.15500  0.50790  0.19030  1.0000
  O   O44       1.0  0.84500  0.00790  0.30970  1.0000
  O   O45       1.0  0.74120  0.47230  0.72820  1.0000
  O   O46       1.0  0.25880  0.97230  0.77180  1.0000
  O   O47       1.0  0.25880  0.52770  0.27180  1.0000
  O   O48       1.0  0.74120  0.02770  0.22820  1.0000
  O   O49       1.0  0.98070  0.74060  0.21640  1.0000
  O   O50       1.0  0.01930  0.24060  0.28360  1.0000
  O   O51       1.0  0.01930  0.25940  0.78360  1.0000
  O   O52       1.0  0.98070  0.75940  0.71640  1.0000
  O   O53       1.0  0.93240  0.76090  0.12052  1.0000
  O   O54       1.0  0.06760  0.26090  0.37948  1.0000
  O   O55       1.0  0.06760  0.23910  0.87948  1.0000
  O   O56       1.0  0.93240  0.73910  0.62052  1.0000
  O   O57       1.0  0.84420  0.58260  0.13440  1.0000
  O   O58       1.0  0.15580  0.08260  0.36560  1.0000
  O   O59       1.0  0.15580  0.41740  0.86560  1.0000
  O   O60       1.0  0.84420  0.91740  0.63440  1.0000
  O   O61       1.0  0.00710  0.62630  0.15520  1.0000
  O   O62       1.0  0.99290  0.12630  0.34480  1.0000
  O   O63       1.0  0.99290  0.37370  0.84480  1.0000
  O   O64       1.0  0.00710  0.87370  0.65520  1.0000
  O   O65       1.0  0.76310  0.71820  0.25959  1.0000
  O   O66       1.0  0.23690  0.21820  0.24041  1.0000
  O   O67       1.0  0.23690  0.28180  0.74041  1.0000
  O   O68       1.0  0.76310  0.78180  0.75959  1.0000
  O   O69       1.0  0.81050  0.62330  0.25800  1.0000
  O   O70       1.0  0.18950  0.12330  0.24200  1.0000
  O   O71       1.0  0.18950  0.37670  0.74200  1.0000
  O   O72       1.0  0.81050  0.87670  0.75800  1.0000
  O   O73       1.0  0.71530  0.01130  0.96710  1.0000
  O   O74       1.0  0.28470  0.51130  0.53290  1.0000
  O   O75       1.0  0.28470  0.98870  0.03290  1.0000
  O   O76       1.0  0.71530  0.48870  0.46710  1.0000
  O   O77       1.0  0.73840  0.98510  0.06420  1.0000
  O   O78       1.0  0.26160  0.48510  0.43580  1.0000
  O   O79       1.0  0.26160  0.01490  0.93580  1.0000
  O   O80       1.0  0.73840  0.51490  0.56420  1.0000
  O   O81       1.0  0.58050  0.84760  0.06430  1.0000
  O   O82       1.0  0.41950  0.34760  0.43570  1.0000
  O   O83       1.0  0.41950  0.15240  0.93570  1.0000
  O   O84       1.0  0.58050  0.65240  0.56430  1.0000
  O   O85       1.0  0.51640  0.93950  0.05860  1.0000
  O   O86       1.0  0.48360  0.43950  0.44140  1.0000
  O   O87       1.0  0.48360  0.06050  0.94140  1.0000
  O   O88       1.0  0.51640  0.56050  0.55860  1.0000
  O   O89       1.0  0.50220  0.92100  0.93120  1.0000
  O   O90       1.0  0.49780  0.42100  0.56880  1.0000
  O   O91       1.0  0.49780  0.07900  0.06880  1.0000
  O   O92       1.0  0.50220  0.57900  0.43120  1.0000
  O   O93       1.0  0.66430  0.90860  0.88780  1.0000
  O   O94       1.0  0.33570  0.40860  0.61220  1.0000
  O   O95       1.0  0.33570  0.09140  0.11220  1.0000
  O   O96       1.0  0.66430  0.59140  0.38780  1.0000
  O   O97       1.0  0.25750  0.50680  0.97430  1.0000
  O   O98       1.0  0.74250  0.00680  0.52570  1.0000
  O   O99       1.0  0.74250  0.49320  0.02570  1.0000
  O   O100      1.0  0.25750  0.99320  0.47430  1.0000
  O   O101      1.0  0.30410  0.48750  0.07050  1.0000
  O   O102      1.0  0.69590  0.98750  0.42950  1.0000
  O   O103      1.0  0.69590  0.51250  0.92950  1.0000
  O   O104      1.0  0.30410  0.01250  0.57050  1.0000
  O   O105      1.0  0.42690  0.65032  0.96554  1.0000
  O   O106      1.0  0.57310  0.15032  0.53446  1.0000
  O   O107      1.0  0.57310  0.34968  0.03446  1.0000
  O   O108      1.0  0.42690  0.84968  0.46554  1.0000
  O   O109      1.0  0.46710  0.55520  0.95680  1.0000
  O   O110      1.0  0.53290  0.05520  0.54320  1.0000
  O   O111      1.0  0.53290  0.44480  0.04320  1.0000
  O   O112      1.0  0.46710  0.94480  0.45680  1.0000
  O   O113      1.0  0.35940  0.59490  0.14010  1.0000
  O   O114      1.0  0.64060  0.09490  0.35990  1.0000
  O   O115      1.0  0.64060  0.40510  0.85990  1.0000
  O   O116      1.0  0.35940  0.90510  0.64010  1.0000
  O   O117      1.0  0.51350  0.57850  0.08810  1.0000
  O   O118      1.0  0.48650  0.07850  0.41190  1.0000
  O   O119      1.0  0.48650  0.42150  0.91190  1.0000
  O   O120      1.0  0.51350  0.92150  0.58810  1.0000
  O   O121      1.0  0.05030  0.89110  0.27512  1.0000
  O   O122      1.0  0.94970  0.39110  0.22488  1.0000
  O   O123      1.0  0.94970  0.10890  0.72488  1.0000
  O   O124      1.0  0.05030  0.60890  0.77512  1.0000
  O   O125      1.0  0.08520  0.98650  0.25950  1.0000
  O   O126      1.0  0.91480  0.48650  0.24050  1.0000
  O   O127      1.0  0.91480  0.01350  0.74050  1.0000
  O   O128      1.0  0.08520  0.51350  0.75950  1.0000
  O   O129      1.0  0.31540  0.99740  0.20190  1.0000
  O   O130      1.0  0.68460  0.49740  0.29810  1.0000
  O   O131      1.0  0.68460  0.00260  0.79810  1.0000
  O   O132      1.0  0.31540  0.50260  0.70190  1.0000
  O   O133      1.0  0.32880  0.00260  0.30280  1.0000
  O   O134      1.0  0.67120  0.50260  0.19720  1.0000
  O   O135      1.0  0.67120  0.99740  0.69720  1.0000
  O   O136      1.0  0.32880  0.49740  0.80280  1.0000
  O   O137      1.0  0.22730  0.89550  0.36370  1.0000
  O   O138      1.0  0.77270  0.39550  0.13630  1.0000
  O   O139      1.0  0.77270  0.10450  0.63630  1.0000
  O   O140      1.0  0.22730  0.60450  0.86370  1.0000
  O   O141      1.0  0.37470  0.86500  0.31480  1.0000
  O   O142      1.0  0.62530  0.36500  0.18520  1.0000
  O   O143      1.0  0.62530  0.13500  0.68520  1.0000
  O   O144      1.0  0.37470  0.63500  0.81480  1.0000
