data_image0
_chemical_formula_structural       U8P24O40H8O8H8O40H8C8H16C8H16C8H16
_chemical_formula_sum              "U8 P24 O88 H72 C24"
_cell_length_a       25.4936
_cell_length_b       11.6771
_cell_length_c       13.4533
_cell_angle_alpha    90
_cell_angle_beta     93.638
_cell_angle_gamma    90

_space_group_name_H-M_alt    "P 1"
_space_group_IT_number       1

loop_
  _space_group_symop_operation_xyz
  'x, y, z'

loop_
  _atom_site_type_symbol
  _atom_site_label
  _atom_site_symmetry_multiplicity
  _atom_site_fract_x
  _atom_site_fract_y
  _atom_site_fract_z
  _atom_site_occupancy
  U   U1        1.0  0.30714  0.05074  0.05497  1.0000
  U   U2        1.0  0.69286  0.05074  0.44503  1.0000
  U   U3        1.0  0.80714  0.55074  0.05497  1.0000
  U   U4        1.0  0.19286  0.55074  0.44503  1.0000
  U   U5        1.0  0.69286  0.94926  0.94503  1.0000
  U   U6        1.0  0.30714  0.94926  0.55497  1.0000
  U   U7        1.0  0.19286  0.44926  0.94503  1.0000
  U   U8        1.0  0.80714  0.44926  0.55497  1.0000
  P   P1        1.0  0.33630  0.09996  0.32221  1.0000
  P   P2        1.0  0.66370  0.09996  0.17779  1.0000
  P   P3        1.0  0.83630  0.59996  0.32221  1.0000
  P   P4        1.0  0.16370  0.59996  0.17779  1.0000
  P   P5        1.0  0.66370  0.90004  0.67779  1.0000
  P   P6        1.0  0.33630  0.90004  0.82221  1.0000
  P   P7        1.0  0.16370  0.40004  0.67779  1.0000
  P   P8        1.0  0.83630  0.40004  0.82221  1.0000
  P   P9        1.0  0.24016  0.28532  0.16068  1.0000
  P   P10       1.0  0.75984  0.28532  0.33932  1.0000
  P   P11       1.0  0.74016  0.78532  0.16068  1.0000
  P   P12       1.0  0.25984  0.78532  0.33932  1.0000
  P   P13       1.0  0.75984  0.71468  0.83932  1.0000
  P   P14       1.0  0.24016  0.71468  0.66068  1.0000
  P   P15       1.0  0.25984  0.21468  0.83932  1.0000
  P   P16       1.0  0.74016  0.21468  0.66068  1.0000
  P   P17       1.0  0.44522  0.96979  0.12008  1.0000
  P   P18       1.0  0.55478  0.96979  0.37992  1.0000
  P   P19       1.0  0.94522  0.46979  0.12008  1.0000
  P   P20       1.0  0.05478  0.46979  0.37992  1.0000
  P   P21       1.0  0.55478  0.03021  0.87992  1.0000
  P   P22       1.0  0.44522  0.03021  0.62008  1.0000
  P   P23       1.0  0.05478  0.53021  0.87992  1.0000
  P   P24       1.0  0.94522  0.53021  0.62008  1.0000
  O   O1        1.0  0.26738  0.92610  0.05750  1.0000
  O   O2        1.0  0.73262  0.92610  0.44250  1.0000
  O   O3        1.0  0.76738  0.42610  0.05750  1.0000
  O   O4        1.0  0.23262  0.42610  0.44250  1.0000
  O   O5        1.0  0.73262  0.07390  0.94250  1.0000
  O   O6        1.0  0.26738  0.07390  0.55750  1.0000
  O   O7        1.0  0.23262  0.57390  0.94250  1.0000
  O   O8        1.0  0.76738  0.57390  0.55750  1.0000
  O   O9        1.0  0.34665  0.17620  0.05470  1.0000
  O   O10       1.0  0.65335  0.17620  0.44530  1.0000
  O   O11       1.0  0.84665  0.67620  0.05470  1.0000
  O   O12       1.0  0.15335  0.67620  0.44530  1.0000
  O   O13       1.0  0.65335  0.82380  0.94530  1.0000
  O   O14       1.0  0.34665  0.82380  0.55470  1.0000
  O   O15       1.0  0.15335  0.32380  0.94530  1.0000
  O   O16       1.0  0.84665  0.32380  0.55470  1.0000
  O   O17       1.0  0.34268  0.02830  0.41450  1.0000
  O   O18       1.0  0.65732  0.02830  0.08550  1.0000
  O   O19       1.0  0.84268  0.52830  0.41450  1.0000
  O   O20       1.0  0.15732  0.52830  0.08550  1.0000
  O   O21       1.0  0.65732  0.97170  0.58550  1.0000
  O   O22       1.0  0.34268  0.97170  0.91450  1.0000
  O   O23       1.0  0.15732  0.47170  0.58550  1.0000
  O   O24       1.0  0.84268  0.47170  0.91450  1.0000
  O   O25       1.0  0.31649  0.03050  0.23300  1.0000
  O   O26       1.0  0.68351  0.03050  0.26700  1.0000
  O   O27       1.0  0.81649  0.53050  0.23300  1.0000
  O   O28       1.0  0.18351  0.53050  0.26700  1.0000
  O   O29       1.0  0.68351  0.96950  0.76700  1.0000
  O   O30       1.0  0.31649  0.96950  0.73300  1.0000
  O   O31       1.0  0.18351  0.46950  0.76700  1.0000
  O   O32       1.0  0.81649  0.46950  0.73300  1.0000
  O   O33       1.0  0.39009  0.16010  0.30290  1.0000
  O   O34       1.0  0.60991  0.16010  0.19710  1.0000
  O   O35       1.0  0.89009  0.66010  0.30290  1.0000
  O   O36       1.0  0.10991  0.66010  0.19710  1.0000
  O   O37       1.0  0.60991  0.83990  0.69710  1.0000
  O   O38       1.0  0.39009  0.83990  0.80290  1.0000
  O   O39       1.0  0.10991  0.33990  0.69710  1.0000
  O   O40       1.0  0.89009  0.33990  0.80290  1.0000
  H   H1        1.0  0.40650  0.12040  0.26530  1.0000
  H   H2        1.0  0.59350  0.12040  0.23470  1.0000
  H   H3        1.0  0.90650  0.62040  0.26530  1.0000
  H   H4        1.0  0.09350  0.62040  0.23470  1.0000
  H   H5        1.0  0.59350  0.87960  0.73470  1.0000
  H   H6        1.0  0.40650  0.87960  0.76530  1.0000
  H   H7        1.0  0.09350  0.37960  0.73470  1.0000
  H   H8        1.0  0.90650  0.37960  0.76530  1.0000
  O   O41       1.0  0.18739  0.29980  0.21570  1.0000
  O   O42       1.0  0.81261  0.29980  0.28430  1.0000
  O   O43       1.0  0.68739  0.79980  0.21570  1.0000
  O   O44       1.0  0.31261  0.79980  0.28430  1.0000
  O   O45       1.0  0.81261  0.70020  0.78430  1.0000
  O   O46       1.0  0.18739  0.70020  0.71570  1.0000
  O   O47       1.0  0.31261  0.20020  0.78430  1.0000
  O   O48       1.0  0.68739  0.20020  0.71570  1.0000
  H   H9        1.0  0.18420  0.36680  0.23260  1.0000
  H   H10       1.0  0.81580  0.36680  0.26740  1.0000
  H   H11       1.0  0.68420  0.86680  0.23260  1.0000
  H   H12       1.0  0.31580  0.86680  0.26740  1.0000
  H   H13       1.0  0.81580  0.63320  0.76740  1.0000
  H   H14       1.0  0.18420  0.63320  0.73260  1.0000
  H   H15       1.0  0.31580  0.13320  0.76740  1.0000
  H   H16       1.0  0.68420  0.13320  0.73260  1.0000
  O   O49       1.0  0.24478  0.37770  0.08260  1.0000
  O   O50       1.0  0.75522  0.37770  0.41740  1.0000
  O   O51       1.0  0.74478  0.87770  0.08260  1.0000
  O   O52       1.0  0.25522  0.87770  0.41740  1.0000
  O   O53       1.0  0.75522  0.62230  0.91740  1.0000
  O   O54       1.0  0.24478  0.62230  0.58260  1.0000
  O   O55       1.0  0.25522  0.12230  0.91740  1.0000
  O   O56       1.0  0.74478  0.12230  0.58260  1.0000
  O   O57       1.0  0.24051  0.16350  0.12400  1.0000
  O   O58       1.0  0.75949  0.16350  0.37600  1.0000
  O   O59       1.0  0.74051  0.66350  0.12400  1.0000
  O   O60       1.0  0.25949  0.66350  0.37600  1.0000
  O   O61       1.0  0.75949  0.83650  0.87600  1.0000
  O   O62       1.0  0.24051  0.83650  0.62400  1.0000
  O   O63       1.0  0.25949  0.33650  0.87600  1.0000
  O   O64       1.0  0.74051  0.33650  0.62400  1.0000
  O   O65       1.0  0.47293  0.86350  0.16590  1.0000
  O   O66       1.0  0.52707  0.86350  0.33410  1.0000
  O   O67       1.0  0.97293  0.36350  0.16590  1.0000
  O   O68       1.0  0.02707  0.36350  0.33410  1.0000
  O   O69       1.0  0.52707  0.13650  0.83410  1.0000
  O   O70       1.0  0.47293  0.13650  0.66590  1.0000
  O   O71       1.0  0.02707  0.63650  0.83410  1.0000
  O   O72       1.0  0.97293  0.63650  0.66590  1.0000
  O   O73       1.0  0.38694  0.95190  0.10680  1.0000
  O   O74       1.0  0.61306  0.95190  0.39320  1.0000
  O   O75       1.0  0.88694  0.45190  0.10680  1.0000
  O   O76       1.0  0.11306  0.45190  0.39320  1.0000
  O   O77       1.0  0.61306  0.04810  0.89320  1.0000
  O   O78       1.0  0.38694  0.04810  0.60680  1.0000
  O   O79       1.0  0.11306  0.54810  0.89320  1.0000
  O   O80       1.0  0.88694  0.54810  0.60680  1.0000
  O   O81       1.0  0.45898  0.07440  0.18800  1.0000
  O   O82       1.0  0.54102  0.07440  0.31200  1.0000
  O   O83       1.0  0.95898  0.57440  0.18800  1.0000
  O   O84       1.0  0.04102  0.57440  0.31200  1.0000
  O   O85       1.0  0.54102  0.92560  0.81200  1.0000
  O   O86       1.0  0.45898  0.92560  0.68800  1.0000
  O   O87       1.0  0.04102  0.42560  0.81200  1.0000
  O   O88       1.0  0.95898  0.42560  0.68800  1.0000
  H   H17       1.0  0.48590  0.06090  0.22260  1.0000
  H   H18       1.0  0.51410  0.06090  0.27740  1.0000
  H   H19       1.0  0.98590  0.56090  0.22260  1.0000
  H   H20       1.0  0.01410  0.56090  0.27740  1.0000
  H   H21       1.0  0.51410  0.93910  0.77740  1.0000
  H   H22       1.0  0.48590  0.93910  0.72260  1.0000
  H   H23       1.0  0.01410  0.43910  0.77740  1.0000
  H   H24       1.0  0.98590  0.43910  0.72260  1.0000
  C   C1        1.0  0.29420  0.22010  0.34100  1.0000
  C   C2        1.0  0.70580  0.22010  0.15900  1.0000
  C   C3        1.0  0.79420  0.72010  0.34100  1.0000
  C   C4        1.0  0.20580  0.72010  0.15900  1.0000
  C   C5        1.0  0.70580  0.77990  0.65900  1.0000
  C   C6        1.0  0.29420  0.77990  0.84100  1.0000
  C   C7        1.0  0.20580  0.27990  0.65900  1.0000
  C   C8        1.0  0.79420  0.27990  0.84100  1.0000
  H   H25       1.0  0.25900  0.19200  0.34940  1.0000
  H   H26       1.0  0.74100  0.19200  0.15060  1.0000
  H   H27       1.0  0.75900  0.69200  0.34940  1.0000
  H   H28       1.0  0.24100  0.69200  0.15060  1.0000
  H   H29       1.0  0.74100  0.80800  0.65060  1.0000
  H   H30       1.0  0.25900  0.80800  0.84940  1.0000
  H   H31       1.0  0.24100  0.30800  0.65060  1.0000
  H   H32       1.0  0.75900  0.30800  0.84940  1.0000
  H   H33       1.0  0.30630  0.25830  0.40230  1.0000
  H   H34       1.0  0.69370  0.25830  0.09770  1.0000
  H   H35       1.0  0.80630  0.75830  0.40230  1.0000
  H   H36       1.0  0.19370  0.75830  0.09770  1.0000
  H   H37       1.0  0.69370  0.74170  0.59770  1.0000
  H   H38       1.0  0.30630  0.74170  0.90230  1.0000
  H   H39       1.0  0.19370  0.24170  0.59770  1.0000
  H   H40       1.0  0.80630  0.24170  0.90230  1.0000
  C   C9        1.0  0.29180  0.30880  0.25560  1.0000
  C   C10       1.0  0.70820  0.30880  0.24440  1.0000
  C   C11       1.0  0.79180  0.80880  0.25560  1.0000
  C   C12       1.0  0.20820  0.80880  0.24440  1.0000
  C   C13       1.0  0.70820  0.69120  0.74440  1.0000
  C   C14       1.0  0.29180  0.69120  0.75560  1.0000
  C   C15       1.0  0.20820  0.19120  0.74440  1.0000
  C   C16       1.0  0.79180  0.19120  0.75560  1.0000
  H   H41       1.0  0.32510  0.30830  0.22480  1.0000
  H   H42       1.0  0.67490  0.30830  0.27520  1.0000
  H   H43       1.0  0.82510  0.80830  0.22480  1.0000
  H   H44       1.0  0.17490  0.80830  0.27520  1.0000
  H   H45       1.0  0.67490  0.69170  0.77520  1.0000
  H   H46       1.0  0.32510  0.69170  0.72480  1.0000
  H   H47       1.0  0.17490  0.19170  0.77520  1.0000
  H   H48       1.0  0.82510  0.19170  0.72480  1.0000
  H   H49       1.0  0.28730  0.38430  0.28390  1.0000
  H   H50       1.0  0.71270  0.38430  0.21610  1.0000
  H   H51       1.0  0.78730  0.88430  0.28390  1.0000
  H   H52       1.0  0.21270  0.88430  0.21610  1.0000
  H   H53       1.0  0.71270  0.61570  0.71610  1.0000
  H   H54       1.0  0.28730  0.61570  0.78390  1.0000
  H   H55       1.0  0.21270  0.11570  0.71610  1.0000
  H   H56       1.0  0.78730  0.11570  0.78390  1.0000
  C   C17       1.0  0.46990  0.99610  0.99910  1.0000
  C   C18       1.0  0.53010  0.99610  0.50090  1.0000
  C   C19       1.0  0.96990  0.49610  0.99910  1.0000
  C   C20       1.0  0.03010  0.49610  0.50090  1.0000
  C   C21       1.0  0.53010  0.00390  0.00090  1.0000
  C   C22       1.0  0.46990  0.00390  0.49910  1.0000
  C   C23       1.0  0.03010  0.50390  0.00090  1.0000
  C   C24       1.0  0.96990  0.50390  0.49910  1.0000
  H   H57       1.0  0.45810  0.93490  0.95430  1.0000
  H   H58       1.0  0.54190  0.93490  0.54570  1.0000
  H   H59       1.0  0.95810  0.43490  0.95430  1.0000
  H   H60       1.0  0.04190  0.43490  0.54570  1.0000
  H   H61       1.0  0.54190  0.06510  0.04570  1.0000
  H   H62       1.0  0.45810  0.06510  0.45430  1.0000
  H   H63       1.0  0.04190  0.56510  0.04570  1.0000
  H   H64       1.0  0.95810  0.56510  0.45430  1.0000
  H   H65       1.0  0.45500  0.06710  0.97280  1.0000
  H   H66       1.0  0.54500  0.06710  0.52720  1.0000
  H   H67       1.0  0.95500  0.56710  0.97280  1.0000
  H   H68       1.0  0.04500  0.56710  0.52720  1.0000
  H   H69       1.0  0.54500  0.93290  0.02720  1.0000
  H   H70       1.0  0.45500  0.93290  0.47280  1.0000
  H   H71       1.0  0.04500  0.43290  0.02720  1.0000
  H   H72       1.0  0.95500  0.43290  0.47280  1.0000
