data_image0
_chemical_formula_structural       U3P6O10H2O14H2C2H4C2H4C2H4
_chemical_formula_sum              "U3 P6 O24 H16 C6"
_cell_length_a       8.4769
_cell_length_b       9.7317
_cell_length_c       14.707
_cell_angle_alpha    83.848
_cell_angle_beta     85.158
_cell_angle_gamma    89.304

_space_group_name_H-M_alt    "P 1"
_space_group_IT_number       1

loop_
  _space_group_symop_operation_xyz
  'x, y, z'

loop_
  _atom_site_type_symbol
  _atom_site_label
  _atom_site_symmetry_multiplicity
  _atom_site_fract_x
  _atom_site_fract_y
  _atom_site_fract_z
  _atom_site_occupancy
  U   U1        1.0  0.00000  0.50000  0.50000  1.0000
  U   U2        1.0  0.99138  0.61681  0.83203  1.0000
  U   U3        1.0  0.00862  0.38319  0.16797  1.0000
  P   P1        1.0  0.27330  0.65328  0.63720  1.0000
  P   P2        1.0  0.72670  0.34672  0.36280  1.0000
  P   P3        1.0  0.72920  0.45347  0.69739  1.0000
  P   P4        1.0  0.27080  0.54653  0.30261  1.0000
  P   P5        1.0  0.26738  0.60380  0.00212  1.0000
  P   P6        1.0  0.73262  0.39620  0.99788  1.0000
  O   O1        1.0  0.08600  0.33500  0.48260  1.0000
  O   O2        1.0  0.91400  0.66500  0.51740  1.0000
  O   O3        1.0  0.08450  0.45390  0.82020  1.0000
  O   O4        1.0  0.91550  0.54610  0.17980  1.0000
  O   O5        1.0  0.90040  0.78140  0.84060  1.0000
  O   O6        1.0  0.09960  0.21860  0.15940  1.0000
  O   O7        1.0  0.20690  0.54490  0.58290  1.0000
  O   O8        1.0  0.79310  0.45510  0.41710  1.0000
  O   O9        1.0  0.35190  0.77460  0.57330  1.0000
  O   O10       1.0  0.64810  0.22540  0.42670  1.0000
  H   H1        1.0  0.30470  0.78840  0.52680  1.0000
  H   H2        1.0  0.69530  0.21160  0.47320  1.0000
  O   O11       1.0  0.14880  0.70930  0.70490  1.0000
  O   O12       1.0  0.85120  0.29070  0.29510  1.0000
  O   O13       1.0  0.80120  0.57380  0.73970  1.0000
  O   O14       1.0  0.19880  0.42620  0.26030  1.0000
  O   O15       1.0  0.66600  0.33890  0.76830  1.0000
  O   O16       1.0  0.33400  0.66110  0.23170  1.0000
  O   O17       1.0  0.85180  0.39820  0.62540  1.0000
  O   O18       1.0  0.14820  0.60180  0.37460  1.0000
  O   O19       1.0  0.18640  0.67510  0.92100  1.0000
  O   O20       1.0  0.81360  0.32490  0.07900  1.0000
  O   O21       1.0  0.17410  0.47990  0.04970  1.0000
  O   O22       1.0  0.82590  0.52010  0.95030  1.0000
  O   O23       1.0  0.29670  0.71190  0.06800  1.0000
  O   O24       1.0  0.70330  0.28810  0.93200  1.0000
  H   H3        1.0  0.30600  0.67280  0.11950  1.0000
  H   H4        1.0  0.69400  0.32720  0.88050  1.0000
  C   C1        1.0  0.43360  0.57840  0.69790  1.0000
  C   C2        1.0  0.56640  0.42160  0.30210  1.0000
  H   H5        1.0  0.47580  0.64740  0.73220  1.0000
  H   H6        1.0  0.52420  0.35260  0.26780  1.0000
  H   H7        1.0  0.39330  0.50270  0.74160  1.0000
  H   H8        1.0  0.60670  0.49730  0.25840  1.0000
  C   C3        1.0  0.56750  0.52460  0.63490  1.0000
  C   C4        1.0  0.43250  0.47540  0.36510  1.0000
  H   H9        1.0  0.60670  0.59960  0.59030  1.0000
  H   H10       1.0  0.39330  0.40040  0.40970  1.0000
  H   H11       1.0  0.52630  0.45380  0.60180  1.0000
  H   H12       1.0  0.47370  0.54620  0.39820  1.0000
  C   C5        1.0  0.45650  0.53860  0.96140  1.0000
  C   C6        1.0  0.54350  0.46140  0.03860  1.0000
  H   H13       1.0  0.44140  0.47660  0.91540  1.0000
  H   H14       1.0  0.55860  0.52340  0.08460  1.0000
  H   H15       1.0  0.52140  0.61500  0.93230  1.0000
  H   H16       1.0  0.47860  0.38500  0.06770  1.0000
