data_image0
_chemical_formula_structural       AgO2H2O10C4H2C2H2C4H2C8
_chemical_formula_sum              "Ag1 O12 H8 C18"
_cell_length_a       9.9653
_cell_length_b       10.5546
_cell_length_c       14.521
_cell_angle_alpha    85.115
_cell_angle_beta     77.177
_cell_angle_gamma    74.563

_space_group_name_H-M_alt    "P 1"
_space_group_IT_number       1

loop_
  _space_group_symop_operation_xyz
  'x, y, z'

loop_
  _atom_site_type_symbol
  _atom_site_label
  _atom_site_symmetry_multiplicity
  _atom_site_fract_x
  _atom_site_fract_y
  _atom_site_fract_z
  _atom_site_occupancy
  Ag  Ag1       1.0  0.00000  0.50000  0.50000  1.0000
  O   O1        1.0  0.81610  0.34830  0.72070  1.0000
  O   O2        1.0  0.18390  0.65170  0.27930  1.0000
  H   H1        1.0  0.84220  0.28580  0.75580  1.0000
  H   H2        1.0  0.15780  0.71420  0.24420  1.0000
  O   O3        1.0  0.77330  0.37870  0.57830  1.0000
  O   O4        1.0  0.22670  0.62130  0.42170  1.0000
  O   O5        1.0  0.88860  0.17440  0.82810  1.0000
  O   O6        1.0  0.11140  0.82560  0.17190  1.0000
  O   O7        1.0  0.95570  0.95950  0.83510  1.0000
  O   O8        1.0  0.04430  0.04050  0.16490  1.0000
  O   O9        1.0  0.94640  0.66630  0.61650  1.0000
  O   O10       1.0  0.05360  0.33370  0.38350  1.0000
  O   O11       1.0  0.86550  0.73060  0.48720  1.0000
  O   O12       1.0  0.13450  0.26940  0.51280  1.0000
  C   C1        1.0  0.82690  0.15650  0.63450  1.0000
  C   C2        1.0  0.17310  0.84350  0.36550  1.0000
  C   C3        1.0  0.79820  0.12510  0.55140  1.0000
  C   C4        1.0  0.20180  0.87490  0.44860  1.0000
  H   H3        1.0  0.76660  0.19260  0.50970  1.0000
  H   H4        1.0  0.23340  0.80740  0.49030  1.0000
  C   C5        1.0  0.81500  0.99730  0.52880  1.0000
  C   C6        1.0  0.18500  0.00270  0.47120  1.0000
  H   H5        1.0  0.79320  0.97970  0.47300  1.0000
  H   H6        1.0  0.20680  0.02030  0.52700  1.0000
  C   C7        1.0  0.86460  0.89440  0.58890  1.0000
  C   C8        1.0  0.13540  0.10560  0.41110  1.0000
  C   C9        1.0  0.89240  0.92540  0.67180  1.0000
  C   C10       1.0  0.10760  0.07460  0.32820  1.0000
  H   H7        1.0  0.92490  0.85680  0.71250  1.0000
  H   H8        1.0  0.07510  0.14320  0.28750  1.0000
  C   C11       1.0  0.87460  0.05380  0.69820  1.0000
  C   C12       1.0  0.12540  0.94620  0.30180  1.0000
  C   C13       1.0  0.80380  0.30550  0.64310  1.0000
  C   C14       1.0  0.19620  0.69450  0.35690  1.0000
  C   C15       1.0  0.91100  0.06140  0.79320  1.0000
  C   C16       1.0  0.08900  0.93860  0.20680  1.0000
  C   C17       1.0  0.89340  0.75310  0.56300  1.0000
  C   C18       1.0  0.10660  0.24690  0.43700  1.0000
