data_image0
_chemical_formula_structural       Nd16P4H4P4H4P4H4P4H4O32H4O16H4O96C48
_chemical_formula_sum              "Nd16 P16 H24 O144 C48"
_cell_length_a       12.2278
_cell_length_b       13.848
_cell_length_c       33.765
_cell_angle_alpha    90
_cell_angle_beta     90
_cell_angle_gamma    90

_space_group_name_H-M_alt    "P 1"
_space_group_IT_number       1

loop_
  _space_group_symop_operation_xyz
  'x, y, z'

loop_
  _atom_site_type_symbol
  _atom_site_label
  _atom_site_symmetry_multiplicity
  _atom_site_fract_x
  _atom_site_fract_y
  _atom_site_fract_z
  _atom_site_occupancy
  Nd  Nd1       1.0  0.75328  0.99726  0.34892  1.0000
  Nd  Nd2       1.0  0.74672  0.00274  0.84892  1.0000
  Nd  Nd3       1.0  0.24672  0.49726  0.15108  1.0000
  Nd  Nd4       1.0  0.25328  0.50274  0.65108  1.0000
  Nd  Nd5       1.0  0.72513  0.49687  0.40046  1.0000
  Nd  Nd6       1.0  0.77487  0.50313  0.90046  1.0000
  Nd  Nd7       1.0  0.27487  0.99687  0.09954  1.0000
  Nd  Nd8       1.0  0.22513  0.00313  0.59954  1.0000
  Nd  Nd9       1.0  0.22229  0.52294  0.34229  1.0000
  Nd  Nd10      1.0  0.27771  0.47706  0.84229  1.0000
  Nd  Nd11      1.0  0.77771  0.02294  0.15771  1.0000
  Nd  Nd12      1.0  0.72229  0.97706  0.65771  1.0000
  Nd  Nd13      1.0  0.25636  0.02528  0.40663  1.0000
  Nd  Nd14      1.0  0.24364  0.97472  0.90663  1.0000
  Nd  Nd15      1.0  0.74364  0.52528  0.09337  1.0000
  Nd  Nd16      1.0  0.75636  0.47472  0.59337  1.0000
  P   P1        1.0  0.79200  0.73200  0.35663  1.0000
  P   P2        1.0  0.70800  0.26800  0.85663  1.0000
  P   P3        1.0  0.20800  0.23200  0.14337  1.0000
  P   P4        1.0  0.29200  0.76800  0.64337  1.0000
  H   H1        1.0  0.75930  0.70650  0.32320  1.0000
  H   H2        1.0  0.74070  0.29350  0.82320  1.0000
  H   H3        1.0  0.24070  0.20650  0.17680  1.0000
  H   H4        1.0  0.25930  0.79350  0.67680  1.0000
  P   P5        1.0  0.65760  0.24090  0.36887  1.0000
  P   P6        1.0  0.84240  0.75910  0.86887  1.0000
  P   P7        1.0  0.34240  0.74090  0.13113  1.0000
  P   P8        1.0  0.15760  0.25910  0.63113  1.0000
  H   H5        1.0  0.64040  0.24580  0.33250  1.0000
  H   H6        1.0  0.85960  0.75420  0.83250  1.0000
  H   H7        1.0  0.35960  0.74580  0.16750  1.0000
  H   H8        1.0  0.14040  0.25420  0.66750  1.0000
  P   P9        1.0  0.18130  0.77310  0.38578  1.0000
  P   P10       1.0  0.31870  0.22690  0.88578  1.0000
  P   P11       1.0  0.81870  0.27310  0.11422  1.0000
  P   P12       1.0  0.68130  0.72690  0.61422  1.0000
  H   H9        1.0  0.18210  0.74090  0.42030  1.0000
  H   H10       1.0  0.31790  0.25910  0.92030  1.0000
  H   H11       1.0  0.81790  0.24090  0.07970  1.0000
  H   H12       1.0  0.68210  0.75910  0.57970  1.0000
  P   P13       1.0  0.26970  0.26740  0.35901  1.0000
  P   P14       1.0  0.23030  0.73260  0.85901  1.0000
  P   P15       1.0  0.73030  0.76740  0.14099  1.0000
  P   P16       1.0  0.76970  0.23260  0.64099  1.0000
  H   H13       1.0  0.23450  0.22090  0.33000  1.0000
  H   H14       1.0  0.26550  0.77910  0.83000  1.0000
  H   H15       1.0  0.76550  0.72090  0.17000  1.0000
  H   H16       1.0  0.73450  0.27910  0.67000  1.0000
  O   O1        1.0  0.77690  0.83560  0.36810  1.0000
  O   O2        1.0  0.72310  0.16440  0.86810  1.0000
  O   O3        1.0  0.22310  0.33560  0.13190  1.0000
  O   O4        1.0  0.27690  0.66440  0.63190  1.0000
  O   O5        1.0  0.73710  0.66240  0.38410  1.0000
  O   O6        1.0  0.76290  0.33760  0.88410  1.0000
  O   O7        1.0  0.26290  0.16240  0.11590  1.0000
  O   O8        1.0  0.23710  0.83760  0.61590  1.0000
  O   O9        1.0  0.91220  0.70770  0.35070  1.0000
  O   O10       1.0  0.58780  0.29230  0.85070  1.0000
  O   O11       1.0  0.08780  0.20770  0.14930  1.0000
  O   O12       1.0  0.41220  0.79230  0.64930  1.0000
  O   O13       1.0  0.70450  0.33540  0.38130  1.0000
  O   O14       1.0  0.79550  0.66460  0.88130  1.0000
  O   O15       1.0  0.29550  0.83540  0.11870  1.0000
  O   O16       1.0  0.20450  0.16460  0.61870  1.0000
  O   O17       1.0  0.54560  0.21950  0.38750  1.0000
  O   O18       1.0  0.95440  0.78050  0.88750  1.0000
  O   O19       1.0  0.45440  0.71950  0.11250  1.0000
  O   O20       1.0  0.04560  0.28050  0.61250  1.0000
  O   O21       1.0  0.73320  0.15570  0.37410  1.0000
  O   O22       1.0  0.76680  0.84430  0.87410  1.0000
  O   O23       1.0  0.26680  0.65570  0.12590  1.0000
  O   O24       1.0  0.23320  0.34430  0.62590  1.0000
  O   O25       1.0  0.21080  0.69370  0.35670  1.0000
  O   O26       1.0  0.28920  0.30630  0.85670  1.0000
  O   O27       1.0  0.78920  0.19370  0.14330  1.0000
  O   O28       1.0  0.71080  0.80630  0.64330  1.0000
  O   O29       1.0  0.06380  0.80540  0.38030  1.0000
  O   O30       1.0  0.43620  0.19460  0.88030  1.0000
  O   O31       1.0  0.93620  0.30540  0.11970  1.0000
  O   O32       1.0  0.56380  0.69460  0.61970  1.0000
  H   H17       1.0  0.02250  0.76540  0.39010  1.0000
  H   H18       1.0  0.47750  0.23460  0.89010  1.0000
  H   H19       1.0  0.97750  0.26540  0.10990  1.0000
  H   H20       1.0  0.52250  0.73460  0.60990  1.0000
  O   O33       1.0  0.25030  0.86210  0.38490  1.0000
  O   O34       1.0  0.24970  0.13790  0.88490  1.0000
  O   O35       1.0  0.74970  0.36210  0.11510  1.0000
  O   O36       1.0  0.75030  0.63790  0.61510  1.0000
  O   O37       1.0  0.21050  0.36210  0.36600  1.0000
  O   O38       1.0  0.28950  0.63790  0.86600  1.0000
  O   O39       1.0  0.78950  0.86210  0.13400  1.0000
  O   O40       1.0  0.71050  0.13790  0.63400  1.0000
  O   O41       1.0  0.25770  0.19470  0.39170  1.0000
  O   O42       1.0  0.24230  0.80530  0.89170  1.0000
  O   O43       1.0  0.74230  0.69470  0.10830  1.0000
  O   O44       1.0  0.75770  0.30530  0.60830  1.0000
  O   O45       1.0  0.39080  0.28690  0.34810  1.0000
  O   O46       1.0  0.10920  0.71310  0.84810  1.0000
  O   O47       1.0  0.60920  0.78690  0.15190  1.0000
  O   O48       1.0  0.89080  0.21310  0.65190  1.0000
  H   H21       1.0  0.42960  0.24500  0.35790  1.0000
  H   H22       1.0  0.07040  0.75500  0.85790  1.0000
  H   H23       1.0  0.57040  0.74500  0.14210  1.0000
  H   H24       1.0  0.92960  0.25500  0.64210  1.0000
  O   O49       1.0  0.55730  0.01350  0.32900  1.0000
  O   O50       1.0  0.94270  0.98650  0.82900  1.0000
  O   O51       1.0  0.44270  0.51350  0.17100  1.0000
  O   O52       1.0  0.05730  0.48650  0.67100  1.0000
  O   O53       1.0  0.38450  0.03160  0.34960  1.0000
  O   O54       1.0  0.11550  0.96840  0.84960  1.0000
  O   O55       1.0  0.61550  0.53160  0.15040  1.0000
  O   O56       1.0  0.88450  0.46840  0.65040  1.0000
  O   O57       1.0  0.61910  0.98230  0.40350  1.0000
  O   O58       1.0  0.88090  0.01770  0.90350  1.0000
  O   O59       1.0  0.38090  0.48230  0.09650  1.0000
  O   O60       1.0  0.11910  0.51770  0.59650  1.0000
  O   O61       1.0  0.44680  0.01080  0.42540  1.0000
  O   O62       1.0  0.05320  0.98920  0.92540  1.0000
  O   O63       1.0  0.55320  0.51080  0.07460  1.0000
  O   O64       1.0  0.94680  0.48920  0.57460  1.0000
  O   O65       1.0  0.59480  0.50760  0.34250  1.0000
  O   O66       1.0  0.90520  0.49240  0.84250  1.0000
  O   O67       1.0  0.40520  0.00760  0.15750  1.0000
  O   O68       1.0  0.09480  0.99240  0.65750  1.0000
  O   O69       1.0  0.41870  0.52100  0.32200  1.0000
  O   O70       1.0  0.08130  0.47900  0.82200  1.0000
  O   O71       1.0  0.58130  0.02100  0.17800  1.0000
  O   O72       1.0  0.91870  0.97900  0.67800  1.0000
  O   O73       1.0  0.52910  0.50410  0.41730  1.0000
  O   O74       1.0  0.97090  0.49590  0.91730  1.0000
  O   O75       1.0  0.47090  0.00410  0.08270  1.0000
  O   O76       1.0  0.02910  0.99590  0.58270  1.0000
  O   O77       1.0  0.35580  0.52400  0.39670  1.0000
  O   O78       1.0  0.14420  0.47600  0.89670  1.0000
  O   O79       1.0  0.64420  0.02400  0.10330  1.0000
  O   O80       1.0  0.85580  0.97600  0.60330  1.0000
  O   O81       1.0  0.09130  0.53380  0.39660  1.0000
  O   O82       1.0  0.40870  0.46620  0.89660  1.0000
  O   O83       1.0  0.90870  0.03380  0.10340  1.0000
  O   O84       1.0  0.59130  0.96620  0.60340  1.0000
  O   O85       1.0  0.91600  0.51530  0.41820  1.0000
  O   O86       1.0  0.58400  0.48470  0.91820  1.0000
  O   O87       1.0  0.08400  0.01530  0.08180  1.0000
  O   O88       1.0  0.41600  0.98470  0.58180  1.0000
  O   O89       1.0  0.02660  0.50780  0.32210  1.0000
  O   O90       1.0  0.47340  0.49220  0.82210  1.0000
  O   O91       1.0  0.97340  0.00780  0.17790  1.0000
  O   O92       1.0  0.52660  0.99220  0.67790  1.0000
  O   O93       1.0  0.85450  0.48920  0.34360  1.0000
  O   O94       1.0  0.64550  0.51080  0.84360  1.0000
  O   O95       1.0  0.14550  0.98920  0.15640  1.0000
  O   O96       1.0  0.35450  0.01080  0.65640  1.0000
  O   O97       1.0  0.23190  0.60940  0.27870  1.0000
  O   O98       1.0  0.26810  0.39060  0.77870  1.0000
  O   O99       1.0  0.76810  0.10940  0.22130  1.0000
  O   O100      1.0  0.73190  0.89060  0.72130  1.0000
  O   O101      1.0  0.24650  0.60450  0.21280  1.0000
  O   O102      1.0  0.25350  0.39550  0.71280  1.0000
  O   O103      1.0  0.75350  0.10450  0.28720  1.0000
  O   O104      1.0  0.74650  0.89550  0.78720  1.0000
  O   O105      1.0  0.23190  0.41780  0.28150  1.0000
  O   O106      1.0  0.26810  0.58220  0.78150  1.0000
  O   O107      1.0  0.76810  0.91780  0.21850  1.0000
  O   O108      1.0  0.73190  0.08220  0.71850  1.0000
  O   O109      1.0  0.24090  0.41210  0.21490  1.0000
  O   O110      1.0  0.25910  0.58790  0.71490  1.0000
  O   O111      1.0  0.75910  0.91210  0.28510  1.0000
  O   O112      1.0  0.74090  0.08790  0.78510  1.0000
  O   O113      1.0  0.12540  0.02760  0.34950  1.0000
  O   O114      1.0  0.37460  0.97240  0.84950  1.0000
  O   O115      1.0  0.87460  0.52760  0.15050  1.0000
  O   O116      1.0  0.62540  0.47240  0.65050  1.0000
  O   O117      1.0  0.95140  0.00670  0.32920  1.0000
  O   O118      1.0  0.54860  0.99330  0.82920  1.0000
  O   O119      1.0  0.04860  0.50670  0.17080  1.0000
  O   O120      1.0  0.45140  0.49330  0.67080  1.0000
  O   O121      1.0  0.06030  0.02430  0.42540  1.0000
  O   O122      1.0  0.43970  0.97570  0.92540  1.0000
  O   O123      1.0  0.93970  0.52430  0.07460  1.0000
  O   O124      1.0  0.56030  0.47570  0.57460  1.0000
  O   O125      1.0  0.88730  0.00840  0.40480  1.0000
  O   O126      1.0  0.61270  0.99160  0.90480  1.0000
  O   O127      1.0  0.11270  0.50840  0.09520  1.0000
  O   O128      1.0  0.38730  0.49160  0.59520  1.0000
  O   O129      1.0  0.24970  0.11510  0.47050  1.0000
  O   O130      1.0  0.25030  0.88490  0.97050  1.0000
  O   O131      1.0  0.75030  0.61510  0.02950  1.0000
  O   O132      1.0  0.74970  0.38490  0.52950  1.0000
  O   O133      1.0  0.23760  0.11150  0.53720  1.0000
  O   O134      1.0  0.26240  0.88850  0.03720  1.0000
  O   O135      1.0  0.76240  0.61150  0.96280  1.0000
  O   O136      1.0  0.73760  0.38850  0.46280  1.0000
  O   O137      1.0  0.24510  0.92480  0.46830  1.0000
  O   O138      1.0  0.25490  0.07520  0.96830  1.0000
  O   O139      1.0  0.75490  0.42480  0.03170  1.0000
  O   O140      1.0  0.74510  0.57520  0.53170  1.0000
  O   O141      1.0  0.21720  0.91920  0.53390  1.0000
  O   O142      1.0  0.28280  0.08080  0.03390  1.0000
  O   O143      1.0  0.78280  0.41920  0.96610  1.0000
  O   O144      1.0  0.71720  0.58080  0.46610  1.0000
  C   C1        1.0  0.48270  0.01790  0.35540  1.0000
  C   C2        1.0  0.01730  0.98210  0.85540  1.0000
  C   C3        1.0  0.51730  0.51790  0.14460  1.0000
  C   C4        1.0  0.98270  0.48210  0.64460  1.0000
  C   C5        1.0  0.52210  0.00080  0.39870  1.0000
  C   C6        1.0  0.97790  0.99920  0.89870  1.0000
  C   C7        1.0  0.47790  0.50080  0.10130  1.0000
  C   C8        1.0  0.02210  0.49920  0.60130  1.0000
  C   C9        1.0  0.49560  0.51340  0.34770  1.0000
  C   C10       1.0  0.00440  0.48660  0.84770  1.0000
  C   C11       1.0  0.50440  0.01340  0.15230  1.0000
  C   C12       1.0  0.99560  0.98660  0.65230  1.0000
  C   C13       1.0  0.45510  0.51530  0.39130  1.0000
  C   C14       1.0  0.04490  0.48470  0.89130  1.0000
  C   C15       1.0  0.54490  0.01530  0.10870  1.0000
  C   C16       1.0  0.95510  0.98470  0.60870  1.0000
  C   C17       1.0  0.99240  0.52140  0.39240  1.0000
  C   C18       1.0  0.50760  0.47860  0.89240  1.0000
  C   C19       1.0  0.00760  0.02140  0.10760  1.0000
  C   C20       1.0  0.49240  0.97860  0.60760  1.0000
  C   C21       1.0  0.95220  0.50580  0.34790  1.0000
  C   C22       1.0  0.54780  0.49420  0.84790  1.0000
  C   C23       1.0  0.04780  0.00580  0.15210  1.0000
  C   C24       1.0  0.45220  0.99420  0.65210  1.0000
  C   C25       1.0  0.23960  0.56600  0.24590  1.0000
  C   C26       1.0  0.26040  0.43400  0.74590  1.0000
  C   C27       1.0  0.76040  0.06600  0.25410  1.0000
  C   C28       1.0  0.73960  0.93400  0.75410  1.0000
  C   C29       1.0  0.23510  0.45470  0.24780  1.0000
  C   C30       1.0  0.26490  0.54530  0.74780  1.0000
  C   C31       1.0  0.76490  0.95470  0.25220  1.0000
  C   C32       1.0  0.73510  0.04530  0.75220  1.0000
  C   C33       1.0  0.02580  0.01730  0.35500  1.0000
  C   C34       1.0  0.47420  0.98270  0.85500  1.0000
  C   C35       1.0  0.97420  0.51730  0.14500  1.0000
  C   C36       1.0  0.52580  0.48270  0.64500  1.0000
  C   C37       1.0  0.98520  0.01540  0.39890  1.0000
  C   C38       1.0  0.51480  0.98460  0.89890  1.0000
  C   C39       1.0  0.01480  0.51540  0.10110  1.0000
  C   C40       1.0  0.48520  0.48460  0.60110  1.0000
  C   C41       1.0  0.24230  0.07320  0.50360  1.0000
  C   C42       1.0  0.25770  0.92680  0.00360  1.0000
  C   C43       1.0  0.75770  0.57320  0.99640  1.0000
  C   C44       1.0  0.74230  0.42680  0.49640  1.0000
  C   C45       1.0  0.23360  0.96250  0.50210  1.0000
  C   C46       1.0  0.26640  0.03750  0.00210  1.0000
  C   C47       1.0  0.76640  0.46250  0.99790  1.0000
  C   C48       1.0  0.73360  0.53750  0.49790  1.0000
