data_image0
_chemical_formula_structural       Zn2N12O14H4O2H4C4H2C4H2C4H2C10H2C4H2C2H2C2H2C2H2C2H2C2H2C2H2
_chemical_formula_sum              "Zn2 N12 O16 H30 C38"
_cell_length_a       6.588
_cell_length_b       11.757
_cell_length_c       15.724
_cell_angle_alpha    76.883
_cell_angle_beta     86.094
_cell_angle_gamma    75.989

_space_group_name_H-M_alt    "P 1"
_space_group_IT_number       1

loop_
  _space_group_symop_operation_xyz
  'x, y, z'

loop_
  _atom_site_type_symbol
  _atom_site_label
  _atom_site_symmetry_multiplicity
  _atom_site_fract_x
  _atom_site_fract_y
  _atom_site_fract_z
  _atom_site_occupancy
  Zn  Zn1       1.0  0.75876  0.14635  0.11304  1.0000
  Zn  Zn2       1.0  0.24124  0.85365  0.88696  1.0000
  N   N1        1.0  0.72290  0.79168  0.20634  1.0000
  N   N2        1.0  0.27710  0.20832  0.79366  1.0000
  N   N3        1.0  0.72990  0.97660  0.14495  1.0000
  N   N4        1.0  0.27010  0.02340  0.85505  1.0000
  N   N5        1.0  0.72090  0.91720  0.07904  1.0000
  N   N6        1.0  0.27910  0.08280  0.92096  1.0000
  N   N7        1.0  0.80910  0.35825  0.28304  1.0000
  N   N8        1.0  0.19090  0.64175  0.71696  1.0000
  N   N9        1.0  0.80920  0.22530  0.20712  1.0000
  N   N10       1.0  0.19080  0.77470  0.79288  1.0000
  N   N11       1.0  0.86580  0.16430  0.29106  1.0000
  N   N12       1.0  0.13420  0.83570  0.70894  1.0000
  O   O1        1.0  0.75050  0.19302  0.98749  1.0000
  O   O2        1.0  0.24950  0.80698  0.01251  1.0000
  O   O3        1.0  0.77360  0.36960  0.00373  1.0000
  O   O4        1.0  0.22640  0.63040  0.99627  1.0000
  O   O5        1.0  0.68290  0.65196  0.60180  1.0000
  O   O6        1.0  0.31710  0.34804  0.39820  1.0000
  O   O7        1.0  0.68740  0.70557  0.72685  1.0000
  O   O8        1.0  0.31260  0.29443  0.27315  1.0000
  O   O9        1.0  0.81370  0.22499  0.58419  1.0000
  O   O10       1.0  0.18630  0.77501  0.41581  1.0000
  O   O11       1.0  0.74460  0.09660  0.70484  1.0000
  O   O12       1.0  0.25540  0.90340  0.29516  1.0000
  O   O13       1.0  0.41780  0.22117  0.12466  1.0000
  O   O14       1.0  0.58220  0.77883  0.87534  1.0000
  H   H1        1.0  0.38880  0.24660  0.16760  1.0000
  H   H2        1.0  0.61120  0.75340  0.83240  1.0000
  H   H3        1.0  0.33690  0.18280  0.11310  1.0000
  H   H4        1.0  0.66310  0.81720  0.88690  1.0000
  O   O15       1.0  0.12720  0.07270  0.10724  1.0000
  O   O16       1.0  0.87280  0.92730  0.89276  1.0000
  H   H5        1.0  0.20590  0.03500  0.14910  1.0000
  H   H6        1.0  0.79410  0.96500  0.85090  1.0000
  H   H7        1.0  0.15930  0.04460  0.06370  1.0000
  H   H8        1.0  0.84070  0.95540  0.93630  1.0000
  C   C1        1.0  0.75170  0.34180  0.85929  1.0000
  C   C2        1.0  0.24830  0.65820  0.14071  1.0000
  C   C3        1.0  0.76460  0.25720  0.80892  1.0000
  C   C4        1.0  0.23540  0.74280  0.19108  1.0000
  H   H9        1.0  0.77470  0.17710  0.83630  1.0000
  H   H10       1.0  0.22530  0.82290  0.16370  1.0000
  C   C5        1.0  0.76250  0.29050  0.71842  1.0000
  C   C6        1.0  0.23750  0.70950  0.28158  1.0000
  C   C7        1.0  0.74260  0.41070  0.67888  1.0000
  C   C8        1.0  0.25740  0.58930  0.32112  1.0000
  H   H11       1.0  0.74140  0.43390  0.61830  1.0000
  H   H12       1.0  0.25860  0.56610  0.38170  1.0000
  C   C9        1.0  0.72450  0.49730  0.72795  1.0000
  C   C10       1.0  0.27550  0.50270  0.27205  1.0000
  C   C11       1.0  0.73130  0.46200  0.81878  1.0000
  C   C12       1.0  0.26870  0.53800  0.18122  1.0000
  H   H13       1.0  0.72230  0.51890  0.85230  1.0000
  H   H14       1.0  0.27770  0.48110  0.14770  1.0000
  C   C13       1.0  0.75840  0.30190  0.95680  1.0000
  C   C14       1.0  0.24160  0.69810  0.04320  1.0000
  C   C15       1.0  0.77430  0.19660  0.66500  1.0000
  C   C16       1.0  0.22570  0.80340  0.33500  1.0000
  C   C17       1.0  0.69510  0.62800  0.68254  1.0000
  C   C18       1.0  0.30490  0.37200  0.31746  1.0000
  C   C19       1.0  0.73740  0.68240  0.27156  1.0000
  C   C20       1.0  0.26260  0.31760  0.72844  1.0000
  C   C21       1.0  0.76520  0.57530  0.24521  1.0000
  C   C22       1.0  0.23480  0.42470  0.75479  1.0000
  H   H15       1.0  0.77160  0.57350  0.18630  1.0000
  H   H16       1.0  0.22840  0.42650  0.81370  1.0000
  C   C23       1.0  0.78340  0.47060  0.30895  1.0000
  C   C24       1.0  0.21660  0.52940  0.69105  1.0000
  C   C25       1.0  0.77520  0.47220  0.39654  1.0000
  C   C26       1.0  0.22480  0.52780  0.60346  1.0000
  H   H17       1.0  0.78630  0.40130  0.43860  1.0000
  H   H18       1.0  0.21370  0.59870  0.56140  1.0000
  C   C27       1.0  0.75060  0.58020  0.42113  1.0000
  C   C28       1.0  0.24940  0.41980  0.57887  1.0000
  H   H19       1.0  0.74800  0.58180  0.48010  1.0000
  H   H20       1.0  0.25200  0.41820  0.51990  1.0000
  C   C29       1.0  0.72970  0.68630  0.35864  1.0000
  C   C30       1.0  0.27030  0.31370  0.64136  1.0000
  H   H21       1.0  0.71060  0.75920  0.37530  1.0000
  H   H22       1.0  0.28940  0.24080  0.62470  1.0000
  C   C31       1.0  0.73110  0.90040  0.21915  1.0000
  C   C32       1.0  0.26890  0.09960  0.78085  1.0000
  H   H23       1.0  0.73680  0.91810  0.27350  1.0000
  H   H24       1.0  0.26320  0.08190  0.72650  1.0000
  C   C33       1.0  0.71610  0.80850  0.11850  1.0000
  C   C34       1.0  0.28390  0.19150  0.88150  1.0000
  H   H25       1.0  0.70890  0.74870  0.08970  1.0000
  H   H26       1.0  0.29110  0.25130  0.91030  1.0000
  C   C35       1.0  0.77560  0.33950  0.20433  1.0000
  C   C36       1.0  0.22440  0.66050  0.79567  1.0000
  H   H27       1.0  0.73440  0.39990  0.15500  1.0000
  H   H28       1.0  0.26560  0.60010  0.84500  1.0000
  C   C37       1.0  0.86580  0.24650  0.33406  1.0000
  C   C38       1.0  0.13420  0.75350  0.66594  1.0000
  H   H29       1.0  0.90060  0.23060  0.39260  1.0000
  H   H30       1.0  0.09940  0.76940  0.60740  1.0000
