data_image0
_chemical_formula_structural       U2P6O14H2O4H2O2H2O2C4H2C6H2C2H2C2H2C2H2C2H2
_chemical_formula_sum              "U2 P6 O22 H18 C18"
_cell_length_a       8.8825
_cell_length_b       11.7704
_cell_length_c       12.1185
_cell_angle_alpha    118.082
_cell_angle_beta     90.882
_cell_angle_gamma    91.923

_space_group_name_H-M_alt    "P 1"
_space_group_IT_number       1

loop_
  _space_group_symop_operation_xyz
  'x, y, z'

loop_
  _atom_site_type_symbol
  _atom_site_label
  _atom_site_symmetry_multiplicity
  _atom_site_fract_x
  _atom_site_fract_y
  _atom_site_fract_z
  _atom_site_occupancy
  U   U1        1.0  0.02245  0.22970  0.77222  1.0000
  U   U2        1.0  0.97755  0.77030  0.22778  1.0000
  P   P1        1.0  0.17857  0.06857  0.93291  1.0000
  P   P2        1.0  0.82143  0.93143  0.06709  1.0000
  P   P3        1.0  0.17559  0.46110  0.09194  1.0000
  P   P4        1.0  0.82441  0.53890  0.90806  1.0000
  P   P5        1.0  0.17247  0.90920  0.54121  1.0000
  P   P6        1.0  0.82753  0.09080  0.45879  1.0000
  O   O1        1.0  0.86970  0.15894  0.81501  1.0000
  O   O2        1.0  0.13030  0.84106  0.18499  1.0000
  O   O3        1.0  0.17680  0.29953  0.73046  1.0000
  O   O4        1.0  0.82320  0.70047  0.26954  1.0000
  O   O5        1.0  0.20160  0.13969  0.85898  1.0000
  O   O6        1.0  0.79840  0.86031  0.14102  1.0000
  O   O7        1.0  0.07060  0.37989  0.98254  1.0000
  O   O8        1.0  0.92940  0.62011  0.01746  1.0000
  O   O9        1.0  0.08060  0.02225  0.61737  1.0000
  O   O10       1.0  0.91940  0.97775  0.38263  1.0000
  O   O11       1.0  0.12460  0.59098  0.18521  1.0000
  O   O12       1.0  0.87540  0.40902  0.81479  1.0000
  O   O13       1.0  0.20640  0.38420  0.16715  1.0000
  O   O14       1.0  0.79360  0.61580  0.83285  1.0000
  H   H1        1.0  0.16110  0.31150  0.13060  1.0000
  H   H2        1.0  0.83890  0.68850  0.86940  1.0000
  O   O15       1.0  0.09980  0.14287  0.05598  1.0000
  O   O16       1.0  0.90020  0.85713  0.94402  1.0000
  O   O17       1.0  0.09160  0.93635  0.84945  1.0000
  O   O18       1.0  0.90840  0.06365  0.15055  1.0000
  H   H3        1.0  0.03410  0.91840  0.89400  1.0000
  H   H4        1.0  0.96590  0.08160  0.10600  1.0000
  O   O19       1.0  0.20510  0.83420  0.61828  1.0000
  O   O20       1.0  0.79490  0.16580  0.38172  1.0000
  H   H5        1.0  0.16240  0.86990  0.68700  1.0000
  H   H6        1.0  0.83760  0.13010  0.31300  1.0000
  O   O21       1.0  0.10670  0.80956  0.41617  1.0000
  O   O22       1.0  0.89330  0.19044  0.58383  1.0000
  C   C1        1.0  0.35760  0.48350  0.04050  1.0000
  C   C2        1.0  0.64240  0.51650  0.95950  1.0000
  C   C3        1.0  0.41200  0.60520  0.06400  1.0000
  C   C4        1.0  0.58800  0.39480  0.93600  1.0000
  H   H7        1.0  0.35230  0.67770  0.10750  1.0000
  H   H8        1.0  0.64770  0.32230  0.89250  1.0000
  C   C5        1.0  0.35990  0.03020  0.96940  1.0000
  C   C6        1.0  0.64010  0.96980  0.03060  1.0000
  C   C7        1.0  0.35600  0.96160  0.51760  1.0000
  C   C8        1.0  0.64400  0.03840  0.48240  1.0000
  C   C9        1.0  0.37250  0.98960  0.05990  1.0000
  C   C10       1.0  0.62750  0.01040  0.94010  1.0000
  H   H9        1.0  0.28520  0.98220  0.10080  1.0000
  H   H10       1.0  0.71480  0.01780  0.89920  1.0000
  C   C11       1.0  0.42880  0.88810  0.40640  1.0000
  C   C12       1.0  0.57120  0.11190  0.59360  1.0000
  H   H11       1.0  0.38010  0.81170  0.34260  1.0000
  H   H12       1.0  0.61990  0.18830  0.65740  1.0000
  C   C13       1.0  0.48870  0.04040  0.90900  1.0000
  C   C14       1.0  0.51130  0.95960  0.09100  1.0000
  H   H13       1.0  0.48110  0.06770  0.84690  1.0000
  H   H14       1.0  0.51890  0.93230  0.15310  1.0000
  C   C15       1.0  0.55290  0.62160  0.02430  1.0000
  C   C16       1.0  0.44710  0.37840  0.97570  1.0000
  H   H15       1.0  0.58900  0.70530  0.04140  1.0000
  H   H16       1.0  0.41100  0.29470  0.95860  1.0000
  C   C17       1.0  0.42790  0.07390  0.61120  1.0000
  C   C18       1.0  0.57210  0.92610  0.38880  1.0000
  H   H17       1.0  0.37870  0.12420  0.68690  1.0000
  H   H18       1.0  0.62130  0.87580  0.31310  1.0000
