data_image0
_chemical_formula_structural       Cr2O16C8
_chemical_formula_sum              "Cr2 O16 C8"
_cell_length_a       7.7433
_cell_length_b       9.02
_cell_length_c       12.221
_cell_angle_alpha    87.615
_cell_angle_beta     78.143
_cell_angle_gamma    70.006

_space_group_name_H-M_alt    "P 1"
_space_group_IT_number       1

loop_
  _space_group_symop_operation_xyz
  'x, y, z'

loop_
  _atom_site_type_symbol
  _atom_site_label
  _atom_site_symmetry_multiplicity
  _atom_site_fract_x
  _atom_site_fract_y
  _atom_site_fract_z
  _atom_site_occupancy
  Cr  Cr1       1.0  0.05180  0.74123  0.38963  1.0000
  Cr  Cr2       1.0  0.94820  0.25877  0.61037  1.0000
  O   O1        1.0  0.33990  0.55220  0.09820  1.0000
  O   O2        1.0  0.66010  0.44780  0.90180  1.0000
  O   O3        1.0  0.25190  0.60020  0.28110  1.0000
  O   O4        1.0  0.74810  0.39980  0.71890  1.0000
  O   O5        1.0  0.05090  0.82850  0.07380  1.0000
  O   O6        1.0  0.94910  0.17150  0.92620  1.0000
  O   O7        1.0  0.97190  0.84920  0.26040  1.0000
  O   O8        1.0  0.02810  0.15080  0.73960  1.0000
  O   O9        1.0  0.15270  0.10310  0.50130  1.0000
  O   O10       1.0  0.84730  0.89690  0.49870  1.0000
  O   O11       1.0  0.19600  0.88120  0.40680  1.0000
  O   O12       1.0  0.80400  0.11880  0.59320  1.0000
  O   O13       1.0  0.10130  0.39780  0.60680  1.0000
  O   O14       1.0  0.89870  0.60220  0.39320  1.0000
  O   O15       1.0  0.14080  0.60850  0.51620  1.0000
  O   O16       1.0  0.85920  0.39150  0.48380  1.0000
  C   C1        1.0  0.23870  0.63120  0.17890  1.0000
  C   C2        1.0  0.76130  0.36880  0.82110  1.0000
  C   C3        1.0  0.07360  0.78190  0.16620  1.0000
  C   C4        1.0  0.92640  0.21810  0.83380  1.0000
  C   C5        1.0  0.10170  0.99490  0.47390  1.0000
  C   C6        1.0  0.89830  0.00510  0.52610  1.0000
  C   C7        1.0  0.07180  0.50190  0.53480  1.0000
  C   C8        1.0  0.92820  0.49810  0.46520  1.0000
