data_image0
_chemical_formula_structural       In48C192O384
_chemical_formula_sum              "In48 C192 O384"
_cell_length_a       28.315
_cell_length_b       28.315
_cell_length_c       28.315
_cell_angle_alpha    90
_cell_angle_beta     90
_cell_angle_gamma    90

_space_group_name_H-M_alt    "P 1"
_space_group_IT_number       1

loop_
  _space_group_symop_operation_xyz
  'x, y, z'

loop_
  _atom_site_type_symbol
  _atom_site_label
  _atom_site_symmetry_multiplicity
  _atom_site_fract_x
  _atom_site_fract_y
  _atom_site_fract_z
  _atom_site_occupancy
  In  In1       1.0  0.75000  0.10443  0.60443  1.0000
  In  In2       1.0  0.25000  0.89557  0.60443  1.0000
  In  In3       1.0  0.25000  0.10443  0.39557  1.0000
  In  In4       1.0  0.75000  0.89557  0.39557  1.0000
  In  In5       1.0  0.60443  0.75000  0.10443  1.0000
  In  In6       1.0  0.60443  0.25000  0.89557  1.0000
  In  In7       1.0  0.39557  0.25000  0.10443  1.0000
  In  In8       1.0  0.39557  0.75000  0.89557  1.0000
  In  In9       1.0  0.10443  0.60443  0.75000  1.0000
  In  In10      1.0  0.89557  0.60443  0.25000  1.0000
  In  In11      1.0  0.10443  0.39557  0.25000  1.0000
  In  In12      1.0  0.89557  0.39557  0.75000  1.0000
  In  In13      1.0  0.10443  0.75000  0.39557  1.0000
  In  In14      1.0  0.89557  0.25000  0.39557  1.0000
  In  In15      1.0  0.10443  0.25000  0.60443  1.0000
  In  In16      1.0  0.89557  0.75000  0.60443  1.0000
  In  In17      1.0  0.75000  0.60443  0.89557  1.0000
  In  In18      1.0  0.25000  0.60443  0.10443  1.0000
  In  In19      1.0  0.25000  0.39557  0.89557  1.0000
  In  In20      1.0  0.75000  0.39557  0.10443  1.0000
  In  In21      1.0  0.60443  0.10443  0.25000  1.0000
  In  In22      1.0  0.60443  0.89557  0.75000  1.0000
  In  In23      1.0  0.39557  0.10443  0.75000  1.0000
  In  In24      1.0  0.39557  0.89557  0.25000  1.0000
  In  In25      1.0  0.25000  0.89557  0.39557  1.0000
  In  In26      1.0  0.75000  0.10443  0.39557  1.0000
  In  In27      1.0  0.75000  0.89557  0.60443  1.0000
  In  In28      1.0  0.25000  0.10443  0.60443  1.0000
  In  In29      1.0  0.39557  0.25000  0.89557  1.0000
  In  In30      1.0  0.39557  0.75000  0.10443  1.0000
  In  In31      1.0  0.60443  0.75000  0.89557  1.0000
  In  In32      1.0  0.60443  0.25000  0.10443  1.0000
  In  In33      1.0  0.89557  0.39557  0.25000  1.0000
  In  In34      1.0  0.10443  0.39557  0.75000  1.0000
  In  In35      1.0  0.89557  0.60443  0.75000  1.0000
  In  In36      1.0  0.10443  0.60443  0.25000  1.0000
  In  In37      1.0  0.89557  0.25000  0.60443  1.0000
  In  In38      1.0  0.10443  0.75000  0.60443  1.0000
  In  In39      1.0  0.89557  0.75000  0.39557  1.0000
  In  In40      1.0  0.10443  0.25000  0.39557  1.0000
  In  In41      1.0  0.25000  0.39557  0.10443  1.0000
  In  In42      1.0  0.75000  0.39557  0.89557  1.0000
  In  In43      1.0  0.75000  0.60443  0.10443  1.0000
  In  In44      1.0  0.25000  0.60443  0.89557  1.0000
  In  In45      1.0  0.39557  0.89557  0.75000  1.0000
  In  In46      1.0  0.39557  0.10443  0.25000  1.0000
  In  In47      1.0  0.60443  0.89557  0.25000  1.0000
  In  In48      1.0  0.60443  0.10443  0.75000  1.0000
  C   C1        1.0  0.80088  0.19912  0.59848  1.0000
  C   C2        1.0  0.19912  0.80088  0.59848  1.0000
  C   C3        1.0  0.19912  0.19912  0.40152  1.0000
  C   C4        1.0  0.80088  0.80088  0.40152  1.0000
  C   C5        1.0  0.59848  0.80088  0.19912  1.0000
  C   C6        1.0  0.59848  0.19912  0.80088  1.0000
  C   C7        1.0  0.40152  0.19912  0.19912  1.0000
  C   C8        1.0  0.40152  0.80088  0.80088  1.0000
  C   C9        1.0  0.19912  0.59848  0.80088  1.0000
  C   C10       1.0  0.80088  0.59848  0.19912  1.0000
  C   C11       1.0  0.19912  0.40152  0.19912  1.0000
  C   C12       1.0  0.80088  0.40152  0.80088  1.0000
  C   C13       1.0  0.19912  0.80088  0.40152  1.0000
  C   C14       1.0  0.80088  0.19912  0.40152  1.0000
  C   C15       1.0  0.19912  0.19912  0.59848  1.0000
  C   C16       1.0  0.80088  0.80088  0.59848  1.0000
  C   C17       1.0  0.80088  0.59848  0.80088  1.0000
  C   C18       1.0  0.19912  0.59848  0.19912  1.0000
  C   C19       1.0  0.19912  0.40152  0.80088  1.0000
  C   C20       1.0  0.80088  0.40152  0.19912  1.0000
  C   C21       1.0  0.59848  0.19912  0.19912  1.0000
  C   C22       1.0  0.59848  0.80088  0.80088  1.0000
  C   C23       1.0  0.40152  0.19912  0.80088  1.0000
  C   C24       1.0  0.40152  0.80088  0.19912  1.0000
  C   C25       1.0  0.30088  0.69912  0.09848  1.0000
  C   C26       1.0  0.69912  0.30088  0.09848  1.0000
  C   C27       1.0  0.69912  0.69912  0.90152  1.0000
  C   C28       1.0  0.30088  0.30088  0.90152  1.0000
  C   C29       1.0  0.09848  0.30088  0.69912  1.0000
  C   C30       1.0  0.09848  0.69912  0.30088  1.0000
  C   C31       1.0  0.90152  0.69912  0.69912  1.0000
  C   C32       1.0  0.90152  0.30088  0.30088  1.0000
  C   C33       1.0  0.69912  0.09848  0.30088  1.0000
  C   C34       1.0  0.30088  0.09848  0.69912  1.0000
  C   C35       1.0  0.69912  0.90152  0.69912  1.0000
  C   C36       1.0  0.30088  0.90152  0.30088  1.0000
  C   C37       1.0  0.69912  0.30088  0.90152  1.0000
  C   C38       1.0  0.30088  0.69912  0.90152  1.0000
  C   C39       1.0  0.69912  0.69912  0.09848  1.0000
  C   C40       1.0  0.30088  0.30088  0.09848  1.0000
  C   C41       1.0  0.30088  0.09848  0.30088  1.0000
  C   C42       1.0  0.69912  0.09848  0.69912  1.0000
  C   C43       1.0  0.69912  0.90152  0.30088  1.0000
  C   C44       1.0  0.30088  0.90152  0.69912  1.0000
  C   C45       1.0  0.09848  0.69912  0.69912  1.0000
  C   C46       1.0  0.09848  0.30088  0.30088  1.0000
  C   C47       1.0  0.90152  0.69912  0.30088  1.0000
  C   C48       1.0  0.90152  0.30088  0.69912  1.0000
  C   C49       1.0  0.83369  0.16631  0.62779  1.0000
  C   C50       1.0  0.16631  0.83369  0.62779  1.0000
  C   C51       1.0  0.16631  0.16631  0.37221  1.0000
  C   C52       1.0  0.83369  0.83369  0.37221  1.0000
  C   C53       1.0  0.62779  0.83369  0.16631  1.0000
  C   C54       1.0  0.62779  0.16631  0.83369  1.0000
  C   C55       1.0  0.37221  0.16631  0.16631  1.0000
  C   C56       1.0  0.37221  0.83369  0.83369  1.0000
  C   C57       1.0  0.16631  0.62779  0.83369  1.0000
  C   C58       1.0  0.83369  0.62779  0.16631  1.0000
  C   C59       1.0  0.16631  0.37221  0.16631  1.0000
  C   C60       1.0  0.83369  0.37221  0.83369  1.0000
  C   C61       1.0  0.16631  0.83369  0.37221  1.0000
  C   C62       1.0  0.83369  0.16631  0.37221  1.0000
  C   C63       1.0  0.16631  0.16631  0.62779  1.0000
  C   C64       1.0  0.83369  0.83369  0.62779  1.0000
  C   C65       1.0  0.83369  0.62779  0.83369  1.0000
  C   C66       1.0  0.16631  0.62779  0.16631  1.0000
  C   C67       1.0  0.16631  0.37221  0.83369  1.0000
  C   C68       1.0  0.83369  0.37221  0.16631  1.0000
  C   C69       1.0  0.62779  0.16631  0.16631  1.0000
  C   C70       1.0  0.62779  0.83369  0.83369  1.0000
  C   C71       1.0  0.37221  0.16631  0.83369  1.0000
  C   C72       1.0  0.37221  0.83369  0.16631  1.0000
  C   C73       1.0  0.33369  0.66631  0.12779  1.0000
  C   C74       1.0  0.66631  0.33369  0.12779  1.0000
  C   C75       1.0  0.66631  0.66631  0.87221  1.0000
  C   C76       1.0  0.33369  0.33369  0.87221  1.0000
  C   C77       1.0  0.12779  0.33369  0.66631  1.0000
  C   C78       1.0  0.12779  0.66631  0.33369  1.0000
  C   C79       1.0  0.87221  0.66631  0.66631  1.0000
  C   C80       1.0  0.87221  0.33369  0.33369  1.0000
  C   C81       1.0  0.66631  0.12779  0.33369  1.0000
  C   C82       1.0  0.33369  0.12779  0.66631  1.0000
  C   C83       1.0  0.66631  0.87221  0.66631  1.0000
  C   C84       1.0  0.33369  0.87221  0.33369  1.0000
  C   C85       1.0  0.66631  0.33369  0.87221  1.0000
  C   C86       1.0  0.33369  0.66631  0.87221  1.0000
  C   C87       1.0  0.66631  0.66631  0.12779  1.0000
  C   C88       1.0  0.33369  0.33369  0.12779  1.0000
  C   C89       1.0  0.33369  0.12779  0.33369  1.0000
  C   C90       1.0  0.66631  0.12779  0.66631  1.0000
  C   C91       1.0  0.66631  0.87221  0.33369  1.0000
  C   C92       1.0  0.33369  0.87221  0.66631  1.0000
  C   C93       1.0  0.12779  0.66631  0.66631  1.0000
  C   C94       1.0  0.12779  0.33369  0.33369  1.0000
  C   C95       1.0  0.87221  0.66631  0.33369  1.0000
  C   C96       1.0  0.87221  0.33369  0.66631  1.0000
  C   C97       1.0  0.72486  0.11137  0.50000  1.0000
  C   C98       1.0  0.27514  0.88863  0.50000  1.0000
  C   C99       1.0  0.27514  0.11137  0.50000  1.0000
  C   C100      1.0  0.72486  0.88863  0.50000  1.0000
  C   C101      1.0  0.50000  0.72486  0.11137  1.0000
  C   C102      1.0  0.50000  0.27514  0.88863  1.0000
  C   C103      1.0  0.50000  0.27514  0.11137  1.0000
  C   C104      1.0  0.50000  0.72486  0.88863  1.0000
  C   C105      1.0  0.11137  0.50000  0.72486  1.0000
  C   C106      1.0  0.88863  0.50000  0.27514  1.0000
  C   C107      1.0  0.11137  0.50000  0.27514  1.0000
  C   C108      1.0  0.88863  0.50000  0.72486  1.0000
  C   C109      1.0  0.11137  0.72486  0.50000  1.0000
  C   C110      1.0  0.88863  0.27514  0.50000  1.0000
  C   C111      1.0  0.11137  0.27514  0.50000  1.0000
  C   C112      1.0  0.88863  0.72486  0.50000  1.0000
  C   C113      1.0  0.72486  0.50000  0.88863  1.0000
  C   C114      1.0  0.27514  0.50000  0.11137  1.0000
  C   C115      1.0  0.27514  0.50000  0.88863  1.0000
  C   C116      1.0  0.72486  0.50000  0.11137  1.0000
  C   C117      1.0  0.50000  0.11137  0.27514  1.0000
  C   C118      1.0  0.50000  0.88863  0.72486  1.0000
  C   C119      1.0  0.50000  0.11137  0.72486  1.0000
  C   C120      1.0  0.50000  0.88863  0.27514  1.0000
  C   C121      1.0  0.22486  0.61137  0.00000  1.0000
  C   C122      1.0  0.77514  0.38863  0.00000  1.0000
  C   C123      1.0  0.77514  0.61137  0.00000  1.0000
  C   C124      1.0  0.22486  0.38863  0.00000  1.0000
  C   C125      1.0  0.00000  0.22486  0.61137  1.0000
  C   C126      1.0  0.00000  0.77514  0.38863  1.0000
  C   C127      1.0  0.00000  0.77514  0.61137  1.0000
  C   C128      1.0  0.00000  0.22486  0.38863  1.0000
  C   C129      1.0  0.61137  0.00000  0.22486  1.0000
  C   C130      1.0  0.38863  0.00000  0.77514  1.0000
  C   C131      1.0  0.61137  0.00000  0.77514  1.0000
  C   C132      1.0  0.38863  0.00000  0.22486  1.0000
  C   C133      1.0  0.61137  0.22486  0.00000  1.0000
  C   C134      1.0  0.38863  0.77514  0.00000  1.0000
  C   C135      1.0  0.61137  0.77514  0.00000  1.0000
  C   C136      1.0  0.38863  0.22486  0.00000  1.0000
  C   C137      1.0  0.22486  0.00000  0.38863  1.0000
  C   C138      1.0  0.77514  0.00000  0.61137  1.0000
  C   C139      1.0  0.77514  0.00000  0.38863  1.0000
  C   C140      1.0  0.22486  0.00000  0.61137  1.0000
  C   C141      1.0  0.00000  0.61137  0.77514  1.0000
  C   C142      1.0  0.00000  0.38863  0.22486  1.0000
  C   C143      1.0  0.00000  0.61137  0.22486  1.0000
  C   C144      1.0  0.00000  0.38863  0.77514  1.0000
  C   C145      1.0  0.77797  0.10251  0.50000  1.0000
  C   C146      1.0  0.22203  0.89749  0.50000  1.0000
  C   C147      1.0  0.22203  0.10251  0.50000  1.0000
  C   C148      1.0  0.77797  0.89749  0.50000  1.0000
  C   C149      1.0  0.50000  0.77797  0.10251  1.0000
  C   C150      1.0  0.50000  0.22203  0.89749  1.0000
  C   C151      1.0  0.50000  0.22203  0.10251  1.0000
  C   C152      1.0  0.50000  0.77797  0.89749  1.0000
  C   C153      1.0  0.10251  0.50000  0.77797  1.0000
  C   C154      1.0  0.89749  0.50000  0.22203  1.0000
  C   C155      1.0  0.10251  0.50000  0.22203  1.0000
  C   C156      1.0  0.89749  0.50000  0.77797  1.0000
  C   C157      1.0  0.10251  0.77797  0.50000  1.0000
  C   C158      1.0  0.89749  0.22203  0.50000  1.0000
  C   C159      1.0  0.10251  0.22203  0.50000  1.0000
  C   C160      1.0  0.89749  0.77797  0.50000  1.0000
  C   C161      1.0  0.77797  0.50000  0.89749  1.0000
  C   C162      1.0  0.22203  0.50000  0.10251  1.0000
  C   C163      1.0  0.22203  0.50000  0.89749  1.0000
  C   C164      1.0  0.77797  0.50000  0.10251  1.0000
  C   C165      1.0  0.50000  0.10251  0.22203  1.0000
  C   C166      1.0  0.50000  0.89749  0.77797  1.0000
  C   C167      1.0  0.50000  0.10251  0.77797  1.0000
  C   C168      1.0  0.50000  0.89749  0.22203  1.0000
  C   C169      1.0  0.27797  0.60251  0.00000  1.0000
  C   C170      1.0  0.72203  0.39749  0.00000  1.0000
  C   C171      1.0  0.72203  0.60251  0.00000  1.0000
  C   C172      1.0  0.27797  0.39749  0.00000  1.0000
  C   C173      1.0  0.00000  0.27797  0.60251  1.0000
  C   C174      1.0  0.00000  0.72203  0.39749  1.0000
  C   C175      1.0  0.00000  0.72203  0.60251  1.0000
  C   C176      1.0  0.00000  0.27797  0.39749  1.0000
  C   C177      1.0  0.60251  0.00000  0.27797  1.0000
  C   C178      1.0  0.39749  0.00000  0.72203  1.0000
  C   C179      1.0  0.60251  0.00000  0.72203  1.0000
  C   C180      1.0  0.39749  0.00000  0.27797  1.0000
  C   C181      1.0  0.60251  0.27797  0.00000  1.0000
  C   C182      1.0  0.39749  0.72203  0.00000  1.0000
  C   C183      1.0  0.60251  0.72203  0.00000  1.0000
  C   C184      1.0  0.39749  0.27797  0.00000  1.0000
  C   C185      1.0  0.27797  0.00000  0.39749  1.0000
  C   C186      1.0  0.72203  0.00000  0.60251  1.0000
  C   C187      1.0  0.72203  0.00000  0.39749  1.0000
  C   C188      1.0  0.27797  0.00000  0.60251  1.0000
  C   C189      1.0  0.00000  0.60251  0.72203  1.0000
  C   C190      1.0  0.00000  0.39749  0.27797  1.0000
  C   C191      1.0  0.00000  0.60251  0.27797  1.0000
  C   C192      1.0  0.00000  0.39749  0.72203  1.0000
  O   O1        1.0  0.76099  0.18282  0.58840  1.0000
  O   O2        1.0  0.23901  0.81718  0.58840  1.0000
  O   O3        1.0  0.23901  0.18282  0.41160  1.0000
  O   O4        1.0  0.76099  0.81718  0.41160  1.0000
  O   O5        1.0  0.58840  0.76099  0.18282  1.0000
  O   O6        1.0  0.58840  0.23901  0.81718  1.0000
  O   O7        1.0  0.41160  0.23901  0.18282  1.0000
  O   O8        1.0  0.41160  0.76099  0.81718  1.0000
  O   O9        1.0  0.18282  0.58840  0.76099  1.0000
  O   O10       1.0  0.81718  0.58840  0.23901  1.0000
  O   O11       1.0  0.18282  0.41160  0.23901  1.0000
  O   O12       1.0  0.81718  0.41160  0.76099  1.0000
  O   O13       1.0  0.18282  0.76099  0.41160  1.0000
  O   O14       1.0  0.81718  0.23901  0.41160  1.0000
  O   O15       1.0  0.18282  0.23901  0.58840  1.0000
  O   O16       1.0  0.81718  0.76099  0.58840  1.0000
  O   O17       1.0  0.76099  0.58840  0.81718  1.0000
  O   O18       1.0  0.23901  0.58840  0.18282  1.0000
  O   O19       1.0  0.23901  0.41160  0.81718  1.0000
  O   O20       1.0  0.76099  0.41160  0.18282  1.0000
  O   O21       1.0  0.58840  0.18282  0.23901  1.0000
  O   O22       1.0  0.58840  0.81718  0.76099  1.0000
  O   O23       1.0  0.41160  0.18282  0.76099  1.0000
  O   O24       1.0  0.41160  0.81718  0.23901  1.0000
  O   O25       1.0  0.26099  0.68282  0.08840  1.0000
  O   O26       1.0  0.73901  0.31718  0.08840  1.0000
  O   O27       1.0  0.73901  0.68282  0.91160  1.0000
  O   O28       1.0  0.26099  0.31718  0.91160  1.0000
  O   O29       1.0  0.08840  0.26099  0.68282  1.0000
  O   O30       1.0  0.08840  0.73901  0.31718  1.0000
  O   O31       1.0  0.91160  0.73901  0.68282  1.0000
  O   O32       1.0  0.91160  0.26099  0.31718  1.0000
  O   O33       1.0  0.68282  0.08840  0.26099  1.0000
  O   O34       1.0  0.31718  0.08840  0.73901  1.0000
  O   O35       1.0  0.68282  0.91160  0.73901  1.0000
  O   O36       1.0  0.31718  0.91160  0.26099  1.0000
  O   O37       1.0  0.68282  0.26099  0.91160  1.0000
  O   O38       1.0  0.31718  0.73901  0.91160  1.0000
  O   O39       1.0  0.68282  0.73901  0.08840  1.0000
  O   O40       1.0  0.31718  0.26099  0.08840  1.0000
  O   O41       1.0  0.26099  0.08840  0.31718  1.0000
  O   O42       1.0  0.73901  0.08840  0.68282  1.0000
  O   O43       1.0  0.73901  0.91160  0.31718  1.0000
  O   O44       1.0  0.26099  0.91160  0.68282  1.0000
  O   O45       1.0  0.08840  0.68282  0.73901  1.0000
  O   O46       1.0  0.08840  0.31718  0.26099  1.0000
  O   O47       1.0  0.91160  0.68282  0.26099  1.0000
  O   O48       1.0  0.91160  0.31718  0.73901  1.0000
  O   O49       1.0  0.23901  0.81718  0.41160  1.0000
  O   O50       1.0  0.76099  0.18282  0.41160  1.0000
  O   O51       1.0  0.76099  0.81718  0.58840  1.0000
  O   O52       1.0  0.23901  0.18282  0.58840  1.0000
  O   O53       1.0  0.41160  0.23901  0.81718  1.0000
  O   O54       1.0  0.41160  0.76099  0.18282  1.0000
  O   O55       1.0  0.58840  0.76099  0.81718  1.0000
  O   O56       1.0  0.58840  0.23901  0.18282  1.0000
  O   O57       1.0  0.81718  0.41160  0.23901  1.0000
  O   O58       1.0  0.18282  0.41160  0.76099  1.0000
  O   O59       1.0  0.81718  0.58840  0.76099  1.0000
  O   O60       1.0  0.18282  0.58840  0.23901  1.0000
  O   O61       1.0  0.81718  0.23901  0.58840  1.0000
  O   O62       1.0  0.18282  0.76099  0.58840  1.0000
  O   O63       1.0  0.81718  0.76099  0.41160  1.0000
  O   O64       1.0  0.18282  0.23901  0.41160  1.0000
  O   O65       1.0  0.23901  0.41160  0.18282  1.0000
  O   O66       1.0  0.76099  0.41160  0.81718  1.0000
  O   O67       1.0  0.76099  0.58840  0.18282  1.0000
  O   O68       1.0  0.23901  0.58840  0.81718  1.0000
  O   O69       1.0  0.41160  0.81718  0.76099  1.0000
  O   O70       1.0  0.41160  0.18282  0.23901  1.0000
  O   O71       1.0  0.58840  0.81718  0.23901  1.0000
  O   O72       1.0  0.58840  0.18282  0.76099  1.0000
  O   O73       1.0  0.73901  0.31718  0.91160  1.0000
  O   O74       1.0  0.26099  0.68282  0.91160  1.0000
  O   O75       1.0  0.26099  0.31718  0.08840  1.0000
  O   O76       1.0  0.73901  0.68282  0.08840  1.0000
  O   O77       1.0  0.91160  0.73901  0.31718  1.0000
  O   O78       1.0  0.91160  0.26099  0.68282  1.0000
  O   O79       1.0  0.08840  0.26099  0.31718  1.0000
  O   O80       1.0  0.08840  0.73901  0.68282  1.0000
  O   O81       1.0  0.31718  0.91160  0.73901  1.0000
  O   O82       1.0  0.68282  0.91160  0.26099  1.0000
  O   O83       1.0  0.31718  0.08840  0.26099  1.0000
  O   O84       1.0  0.68282  0.08840  0.73901  1.0000
  O   O85       1.0  0.31718  0.73901  0.08840  1.0000
  O   O86       1.0  0.68282  0.26099  0.08840  1.0000
  O   O87       1.0  0.31718  0.26099  0.91160  1.0000
  O   O88       1.0  0.68282  0.73901  0.91160  1.0000
  O   O89       1.0  0.73901  0.91160  0.68282  1.0000
  O   O90       1.0  0.26099  0.91160  0.31718  1.0000
  O   O91       1.0  0.26099  0.08840  0.68282  1.0000
  O   O92       1.0  0.73901  0.08840  0.31718  1.0000
  O   O93       1.0  0.91160  0.31718  0.26099  1.0000
  O   O94       1.0  0.91160  0.68282  0.73901  1.0000
  O   O95       1.0  0.08840  0.31718  0.73901  1.0000
  O   O96       1.0  0.08840  0.68282  0.26099  1.0000
  O   O97       1.0  0.81785  0.12669  0.63877  1.0000
  O   O98       1.0  0.18215  0.87331  0.63877  1.0000
  O   O99       1.0  0.18215  0.12669  0.36123  1.0000
  O   O100      1.0  0.81785  0.87331  0.36123  1.0000
  O   O101      1.0  0.63877  0.81785  0.12669  1.0000
  O   O102      1.0  0.63877  0.18215  0.87331  1.0000
  O   O103      1.0  0.36123  0.18215  0.12669  1.0000
  O   O104      1.0  0.36123  0.81785  0.87331  1.0000
  O   O105      1.0  0.12669  0.63877  0.81785  1.0000
  O   O106      1.0  0.87331  0.63877  0.18215  1.0000
  O   O107      1.0  0.12669  0.36123  0.18215  1.0000
  O   O108      1.0  0.87331  0.36123  0.81785  1.0000
  O   O109      1.0  0.12669  0.81785  0.36123  1.0000
  O   O110      1.0  0.87331  0.18215  0.36123  1.0000
  O   O111      1.0  0.12669  0.18215  0.63877  1.0000
  O   O112      1.0  0.87331  0.81785  0.63877  1.0000
  O   O113      1.0  0.81785  0.63877  0.87331  1.0000
  O   O114      1.0  0.18215  0.63877  0.12669  1.0000
  O   O115      1.0  0.18215  0.36123  0.87331  1.0000
  O   O116      1.0  0.81785  0.36123  0.12669  1.0000
  O   O117      1.0  0.63877  0.12669  0.18215  1.0000
  O   O118      1.0  0.63877  0.87331  0.81785  1.0000
  O   O119      1.0  0.36123  0.12669  0.81785  1.0000
  O   O120      1.0  0.36123  0.87331  0.18215  1.0000
  O   O121      1.0  0.31785  0.62669  0.13877  1.0000
  O   O122      1.0  0.68215  0.37331  0.13877  1.0000
  O   O123      1.0  0.68215  0.62669  0.86123  1.0000
  O   O124      1.0  0.31785  0.37331  0.86123  1.0000
  O   O125      1.0  0.13877  0.31785  0.62669  1.0000
  O   O126      1.0  0.13877  0.68215  0.37331  1.0000
  O   O127      1.0  0.86123  0.68215  0.62669  1.0000
  O   O128      1.0  0.86123  0.31785  0.37331  1.0000
  O   O129      1.0  0.62669  0.13877  0.31785  1.0000
  O   O130      1.0  0.37331  0.13877  0.68215  1.0000
  O   O131      1.0  0.62669  0.86123  0.68215  1.0000
  O   O132      1.0  0.37331  0.86123  0.31785  1.0000
  O   O133      1.0  0.62669  0.31785  0.86123  1.0000
  O   O134      1.0  0.37331  0.68215  0.86123  1.0000
  O   O135      1.0  0.62669  0.68215  0.13877  1.0000
  O   O136      1.0  0.37331  0.31785  0.13877  1.0000
  O   O137      1.0  0.31785  0.13877  0.37331  1.0000
  O   O138      1.0  0.68215  0.13877  0.62669  1.0000
  O   O139      1.0  0.68215  0.86123  0.37331  1.0000
  O   O140      1.0  0.31785  0.86123  0.62669  1.0000
  O   O141      1.0  0.13877  0.62669  0.68215  1.0000
  O   O142      1.0  0.13877  0.37331  0.31785  1.0000
  O   O143      1.0  0.86123  0.62669  0.31785  1.0000
  O   O144      1.0  0.86123  0.37331  0.68215  1.0000
  O   O145      1.0  0.18215  0.87331  0.36123  1.0000
  O   O146      1.0  0.81785  0.12669  0.36123  1.0000
  O   O147      1.0  0.81785  0.87331  0.63877  1.0000
  O   O148      1.0  0.18215  0.12669  0.63877  1.0000
  O   O149      1.0  0.36123  0.18215  0.87331  1.0000
  O   O150      1.0  0.36123  0.81785  0.12669  1.0000
  O   O151      1.0  0.63877  0.81785  0.87331  1.0000
  O   O152      1.0  0.63877  0.18215  0.12669  1.0000
  O   O153      1.0  0.87331  0.36123  0.18215  1.0000
  O   O154      1.0  0.12669  0.36123  0.81785  1.0000
  O   O155      1.0  0.87331  0.63877  0.81785  1.0000
  O   O156      1.0  0.12669  0.63877  0.18215  1.0000
  O   O157      1.0  0.87331  0.18215  0.63877  1.0000
  O   O158      1.0  0.12669  0.81785  0.63877  1.0000
  O   O159      1.0  0.87331  0.81785  0.36123  1.0000
  O   O160      1.0  0.12669  0.18215  0.36123  1.0000
  O   O161      1.0  0.18215  0.36123  0.12669  1.0000
  O   O162      1.0  0.81785  0.36123  0.87331  1.0000
  O   O163      1.0  0.81785  0.63877  0.12669  1.0000
  O   O164      1.0  0.18215  0.63877  0.87331  1.0000
  O   O165      1.0  0.36123  0.87331  0.81785  1.0000
  O   O166      1.0  0.36123  0.12669  0.18215  1.0000
  O   O167      1.0  0.63877  0.87331  0.18215  1.0000
  O   O168      1.0  0.63877  0.12669  0.81785  1.0000
  O   O169      1.0  0.68215  0.37331  0.86123  1.0000
  O   O170      1.0  0.31785  0.62669  0.86123  1.0000
  O   O171      1.0  0.31785  0.37331  0.13877  1.0000
  O   O172      1.0  0.68215  0.62669  0.13877  1.0000
  O   O173      1.0  0.86123  0.68215  0.37331  1.0000
  O   O174      1.0  0.86123  0.31785  0.62669  1.0000
  O   O175      1.0  0.13877  0.31785  0.37331  1.0000
  O   O176      1.0  0.13877  0.68215  0.62669  1.0000
  O   O177      1.0  0.37331  0.86123  0.68215  1.0000
  O   O178      1.0  0.62669  0.86123  0.31785  1.0000
  O   O179      1.0  0.37331  0.13877  0.31785  1.0000
  O   O180      1.0  0.62669  0.13877  0.68215  1.0000
  O   O181      1.0  0.37331  0.68215  0.13877  1.0000
  O   O182      1.0  0.62669  0.31785  0.13877  1.0000
  O   O183      1.0  0.37331  0.31785  0.86123  1.0000
  O   O184      1.0  0.62669  0.68215  0.86123  1.0000
  O   O185      1.0  0.68215  0.86123  0.62669  1.0000
  O   O186      1.0  0.31785  0.86123  0.37331  1.0000
  O   O187      1.0  0.31785  0.13877  0.62669  1.0000
  O   O188      1.0  0.68215  0.13877  0.37331  1.0000
  O   O189      1.0  0.86123  0.37331  0.31785  1.0000
  O   O190      1.0  0.86123  0.62669  0.68215  1.0000
  O   O191      1.0  0.13877  0.37331  0.68215  1.0000
  O   O192      1.0  0.13877  0.62669  0.31785  1.0000
  O   O193      1.0  0.70532  0.11458  0.53917  1.0000
  O   O194      1.0  0.29468  0.88542  0.53917  1.0000
  O   O195      1.0  0.29468  0.11458  0.46083  1.0000
  O   O196      1.0  0.70532  0.88542  0.46083  1.0000
  O   O197      1.0  0.53917  0.70532  0.11458  1.0000
  O   O198      1.0  0.53917  0.29468  0.88542  1.0000
  O   O199      1.0  0.46083  0.29468  0.11458  1.0000
  O   O200      1.0  0.46083  0.70532  0.88542  1.0000
  O   O201      1.0  0.11458  0.53917  0.70532  1.0000
  O   O202      1.0  0.88542  0.53917  0.29468  1.0000
  O   O203      1.0  0.11458  0.46083  0.29468  1.0000
  O   O204      1.0  0.88542  0.46083  0.70532  1.0000
  O   O205      1.0  0.11458  0.70532  0.46083  1.0000
  O   O206      1.0  0.88542  0.29468  0.46083  1.0000
  O   O207      1.0  0.11458  0.29468  0.53917  1.0000
  O   O208      1.0  0.88542  0.70532  0.53917  1.0000
  O   O209      1.0  0.70532  0.53917  0.88542  1.0000
  O   O210      1.0  0.29468  0.53917  0.11458  1.0000
  O   O211      1.0  0.29468  0.46083  0.88542  1.0000
  O   O212      1.0  0.70532  0.46083  0.11458  1.0000
  O   O213      1.0  0.53917  0.11458  0.29468  1.0000
  O   O214      1.0  0.53917  0.88542  0.70532  1.0000
  O   O215      1.0  0.46083  0.11458  0.70532  1.0000
  O   O216      1.0  0.46083  0.88542  0.29468  1.0000
  O   O217      1.0  0.20532  0.61458  0.03917  1.0000
  O   O218      1.0  0.79468  0.38542  0.03917  1.0000
  O   O219      1.0  0.79468  0.61458  0.96083  1.0000
  O   O220      1.0  0.20532  0.38542  0.96083  1.0000
  O   O221      1.0  0.03917  0.20532  0.61458  1.0000
  O   O222      1.0  0.03917  0.79468  0.38542  1.0000
  O   O223      1.0  0.96083  0.79468  0.61458  1.0000
  O   O224      1.0  0.96083  0.20532  0.38542  1.0000
  O   O225      1.0  0.61458  0.03917  0.20532  1.0000
  O   O226      1.0  0.38542  0.03917  0.79468  1.0000
  O   O227      1.0  0.61458  0.96083  0.79468  1.0000
  O   O228      1.0  0.38542  0.96083  0.20532  1.0000
  O   O229      1.0  0.61458  0.20532  0.96083  1.0000
  O   O230      1.0  0.38542  0.79468  0.96083  1.0000
  O   O231      1.0  0.61458  0.79468  0.03917  1.0000
  O   O232      1.0  0.38542  0.20532  0.03917  1.0000
  O   O233      1.0  0.20532  0.03917  0.38542  1.0000
  O   O234      1.0  0.79468  0.03917  0.61458  1.0000
  O   O235      1.0  0.79468  0.96083  0.38542  1.0000
  O   O236      1.0  0.20532  0.96083  0.61458  1.0000
  O   O237      1.0  0.03917  0.61458  0.79468  1.0000
  O   O238      1.0  0.03917  0.38542  0.20532  1.0000
  O   O239      1.0  0.96083  0.61458  0.20532  1.0000
  O   O240      1.0  0.96083  0.38542  0.79468  1.0000
  O   O241      1.0  0.29468  0.88542  0.46083  1.0000
  O   O242      1.0  0.70532  0.11458  0.46083  1.0000
  O   O243      1.0  0.70532  0.88542  0.53917  1.0000
  O   O244      1.0  0.29468  0.11458  0.53917  1.0000
  O   O245      1.0  0.46083  0.29468  0.88542  1.0000
  O   O246      1.0  0.46083  0.70532  0.11458  1.0000
  O   O247      1.0  0.53917  0.70532  0.88542  1.0000
  O   O248      1.0  0.53917  0.29468  0.11458  1.0000
  O   O249      1.0  0.88542  0.46083  0.29468  1.0000
  O   O250      1.0  0.11458  0.46083  0.70532  1.0000
  O   O251      1.0  0.88542  0.53917  0.70532  1.0000
  O   O252      1.0  0.11458  0.53917  0.29468  1.0000
  O   O253      1.0  0.88542  0.29468  0.53917  1.0000
  O   O254      1.0  0.11458  0.70532  0.53917  1.0000
  O   O255      1.0  0.88542  0.70532  0.46083  1.0000
  O   O256      1.0  0.11458  0.29468  0.46083  1.0000
  O   O257      1.0  0.29468  0.46083  0.11458  1.0000
  O   O258      1.0  0.70532  0.46083  0.88542  1.0000
  O   O259      1.0  0.70532  0.53917  0.11458  1.0000
  O   O260      1.0  0.29468  0.53917  0.88542  1.0000
  O   O261      1.0  0.46083  0.88542  0.70532  1.0000
  O   O262      1.0  0.46083  0.11458  0.29468  1.0000
  O   O263      1.0  0.53917  0.88542  0.29468  1.0000
  O   O264      1.0  0.53917  0.11458  0.70532  1.0000
  O   O265      1.0  0.79468  0.38542  0.96083  1.0000
  O   O266      1.0  0.20532  0.61458  0.96083  1.0000
  O   O267      1.0  0.20532  0.38542  0.03917  1.0000
  O   O268      1.0  0.79468  0.61458  0.03917  1.0000
  O   O269      1.0  0.96083  0.79468  0.38542  1.0000
  O   O270      1.0  0.96083  0.20532  0.61458  1.0000
  O   O271      1.0  0.03917  0.20532  0.38542  1.0000
  O   O272      1.0  0.03917  0.79468  0.61458  1.0000
  O   O273      1.0  0.38542  0.96083  0.79468  1.0000
  O   O274      1.0  0.61458  0.96083  0.20532  1.0000
  O   O275      1.0  0.38542  0.03917  0.20532  1.0000
  O   O276      1.0  0.61458  0.03917  0.79468  1.0000
  O   O277      1.0  0.38542  0.79468  0.03917  1.0000
  O   O278      1.0  0.61458  0.20532  0.03917  1.0000
  O   O279      1.0  0.38542  0.20532  0.96083  1.0000
  O   O280      1.0  0.61458  0.79468  0.96083  1.0000
  O   O281      1.0  0.79468  0.96083  0.61458  1.0000
  O   O282      1.0  0.20532  0.96083  0.38542  1.0000
  O   O283      1.0  0.20532  0.03917  0.61458  1.0000
  O   O284      1.0  0.79468  0.03917  0.38542  1.0000
  O   O285      1.0  0.96083  0.38542  0.20532  1.0000
  O   O286      1.0  0.96083  0.61458  0.79468  1.0000
  O   O287      1.0  0.03917  0.38542  0.79468  1.0000
  O   O288      1.0  0.03917  0.61458  0.20532  1.0000
  O   O289      1.0  0.79792  0.09922  0.53965  1.0000
  O   O290      1.0  0.20208  0.90078  0.53965  1.0000
  O   O291      1.0  0.20208  0.09922  0.46035  1.0000
  O   O292      1.0  0.79792  0.90078  0.46035  1.0000
  O   O293      1.0  0.53965  0.79792  0.09922  1.0000
  O   O294      1.0  0.53965  0.20208  0.90078  1.0000
  O   O295      1.0  0.46035  0.20208  0.09922  1.0000
  O   O296      1.0  0.46035  0.79792  0.90078  1.0000
  O   O297      1.0  0.09922  0.53965  0.79792  1.0000
  O   O298      1.0  0.90078  0.53965  0.20208  1.0000
  O   O299      1.0  0.09922  0.46035  0.20208  1.0000
  O   O300      1.0  0.90078  0.46035  0.79792  1.0000
  O   O301      1.0  0.09922  0.79792  0.46035  1.0000
  O   O302      1.0  0.90078  0.20208  0.46035  1.0000
  O   O303      1.0  0.09922  0.20208  0.53965  1.0000
  O   O304      1.0  0.90078  0.79792  0.53965  1.0000
  O   O305      1.0  0.79792  0.53965  0.90078  1.0000
  O   O306      1.0  0.20208  0.53965  0.09922  1.0000
  O   O307      1.0  0.20208  0.46035  0.90078  1.0000
  O   O308      1.0  0.79792  0.46035  0.09922  1.0000
  O   O309      1.0  0.53965  0.09922  0.20208  1.0000
  O   O310      1.0  0.53965  0.90078  0.79792  1.0000
  O   O311      1.0  0.46035  0.09922  0.79792  1.0000
  O   O312      1.0  0.46035  0.90078  0.20208  1.0000
  O   O313      1.0  0.29792  0.59922  0.03965  1.0000
  O   O314      1.0  0.70208  0.40078  0.03965  1.0000
  O   O315      1.0  0.70208  0.59922  0.96035  1.0000
  O   O316      1.0  0.29792  0.40078  0.96035  1.0000
  O   O317      1.0  0.03965  0.29792  0.59922  1.0000
  O   O318      1.0  0.03965  0.70208  0.40078  1.0000
  O   O319      1.0  0.96035  0.70208  0.59922  1.0000
  O   O320      1.0  0.96035  0.29792  0.40078  1.0000
  O   O321      1.0  0.59922  0.03965  0.29792  1.0000
  O   O322      1.0  0.40078  0.03965  0.70208  1.0000
  O   O323      1.0  0.59922  0.96035  0.70208  1.0000
  O   O324      1.0  0.40078  0.96035  0.29792  1.0000
  O   O325      1.0  0.59922  0.29792  0.96035  1.0000
  O   O326      1.0  0.40078  0.70208  0.96035  1.0000
  O   O327      1.0  0.59922  0.70208  0.03965  1.0000
  O   O328      1.0  0.40078  0.29792  0.03965  1.0000
  O   O329      1.0  0.29792  0.03965  0.40078  1.0000
  O   O330      1.0  0.70208  0.03965  0.59922  1.0000
  O   O331      1.0  0.70208  0.96035  0.40078  1.0000
  O   O332      1.0  0.29792  0.96035  0.59922  1.0000
  O   O333      1.0  0.03965  0.59922  0.70208  1.0000
  O   O334      1.0  0.03965  0.40078  0.29792  1.0000
  O   O335      1.0  0.96035  0.59922  0.29792  1.0000
  O   O336      1.0  0.96035  0.40078  0.70208  1.0000
  O   O337      1.0  0.20208  0.90078  0.46035  1.0000
  O   O338      1.0  0.79792  0.09922  0.46035  1.0000
  O   O339      1.0  0.79792  0.90078  0.53965  1.0000
  O   O340      1.0  0.20208  0.09922  0.53965  1.0000
  O   O341      1.0  0.46035  0.20208  0.90078  1.0000
  O   O342      1.0  0.46035  0.79792  0.09922  1.0000
  O   O343      1.0  0.53965  0.79792  0.90078  1.0000
  O   O344      1.0  0.53965  0.20208  0.09922  1.0000
  O   O345      1.0  0.90078  0.46035  0.20208  1.0000
  O   O346      1.0  0.09922  0.46035  0.79792  1.0000
  O   O347      1.0  0.90078  0.53965  0.79792  1.0000
  O   O348      1.0  0.09922  0.53965  0.20208  1.0000
  O   O349      1.0  0.90078  0.20208  0.53965  1.0000
  O   O350      1.0  0.09922  0.79792  0.53965  1.0000
  O   O351      1.0  0.90078  0.79792  0.46035  1.0000
  O   O352      1.0  0.09922  0.20208  0.46035  1.0000
  O   O353      1.0  0.20208  0.46035  0.09922  1.0000
  O   O354      1.0  0.79792  0.46035  0.90078  1.0000
  O   O355      1.0  0.79792  0.53965  0.09922  1.0000
  O   O356      1.0  0.20208  0.53965  0.90078  1.0000
  O   O357      1.0  0.46035  0.90078  0.79792  1.0000
  O   O358      1.0  0.46035  0.09922  0.20208  1.0000
  O   O359      1.0  0.53965  0.90078  0.20208  1.0000
  O   O360      1.0  0.53965  0.09922  0.79792  1.0000
  O   O361      1.0  0.70208  0.40078  0.96035  1.0000
  O   O362      1.0  0.29792  0.59922  0.96035  1.0000
  O   O363      1.0  0.29792  0.40078  0.03965  1.0000
  O   O364      1.0  0.70208  0.59922  0.03965  1.0000
  O   O365      1.0  0.96035  0.70208  0.40078  1.0000
  O   O366      1.0  0.96035  0.29792  0.59922  1.0000
  O   O367      1.0  0.03965  0.29792  0.40078  1.0000
  O   O368      1.0  0.03965  0.70208  0.59922  1.0000
  O   O369      1.0  0.40078  0.96035  0.70208  1.0000
  O   O370      1.0  0.59922  0.96035  0.29792  1.0000
  O   O371      1.0  0.40078  0.03965  0.29792  1.0000
  O   O372      1.0  0.59922  0.03965  0.70208  1.0000
  O   O373      1.0  0.40078  0.70208  0.03965  1.0000
  O   O374      1.0  0.59922  0.29792  0.03965  1.0000
  O   O375      1.0  0.40078  0.29792  0.96035  1.0000
  O   O376      1.0  0.59922  0.70208  0.96035  1.0000
  O   O377      1.0  0.70208  0.96035  0.59922  1.0000
  O   O378      1.0  0.29792  0.96035  0.40078  1.0000
  O   O379      1.0  0.29792  0.03965  0.59922  1.0000
  O   O380      1.0  0.70208  0.03965  0.40078  1.0000
  O   O381      1.0  0.96035  0.40078  0.29792  1.0000
  O   O382      1.0  0.96035  0.59922  0.70208  1.0000
  O   O383      1.0  0.03965  0.40078  0.70208  1.0000
  O   O384      1.0  0.03965  0.59922  0.29792  1.0000
