data_image0
_chemical_formula_structural       In4C16O32
_chemical_formula_sum              "In4 C16 O32"
_cell_length_a       9.964
_cell_length_b       17.055
_cell_length_c       8.042
_cell_angle_alpha    90
_cell_angle_beta     127.32
_cell_angle_gamma    90

_space_group_name_H-M_alt    "P 1"
_space_group_IT_number       1

loop_
  _space_group_symop_operation_xyz
  'x, y, z'

loop_
  _atom_site_type_symbol
  _atom_site_label
  _atom_site_symmetry_multiplicity
  _atom_site_fract_x
  _atom_site_fract_y
  _atom_site_fract_z
  _atom_site_occupancy
  In  In1       1.0  0.50000  0.37487  0.75000  1.0000
  In  In2       1.0  0.00000  0.87487  0.75000  1.0000
  In  In3       1.0  0.50000  0.62513  0.25000  1.0000
  In  In4       1.0  0.00000  0.12513  0.25000  1.0000
  C   C1        1.0  0.23530  0.26910  0.40230  1.0000
  C   C2        1.0  0.76470  0.26910  0.09770  1.0000
  C   C3        1.0  0.73530  0.76910  0.40230  1.0000
  C   C4        1.0  0.26470  0.76910  0.09770  1.0000
  C   C5        1.0  0.76470  0.73090  0.59770  1.0000
  C   C6        1.0  0.23530  0.73090  0.90230  1.0000
  C   C7        1.0  0.26470  0.23090  0.59770  1.0000
  C   C8        1.0  0.73530  0.23090  0.90230  1.0000
  C   C9        1.0  0.58080  0.48200  0.52280  1.0000
  C   C10       1.0  0.41920  0.48200  0.97720  1.0000
  C   C11       1.0  0.08080  0.98200  0.52280  1.0000
  C   C12       1.0  0.91920  0.98200  0.97720  1.0000
  C   C13       1.0  0.41920  0.51800  0.47720  1.0000
  C   C14       1.0  0.58080  0.51800  0.02280  1.0000
  C   C15       1.0  0.91920  0.01800  0.47720  1.0000
  C   C16       1.0  0.08080  0.01800  0.02280  1.0000
  O   O1        1.0  0.13520  0.23170  0.23450  1.0000
  O   O2        1.0  0.86480  0.23170  0.26550  1.0000
  O   O3        1.0  0.63520  0.73170  0.23450  1.0000
  O   O4        1.0  0.36480  0.73170  0.26550  1.0000
  O   O5        1.0  0.86480  0.76830  0.76550  1.0000
  O   O6        1.0  0.13520  0.76830  0.73450  1.0000
  O   O7        1.0  0.36480  0.26830  0.76550  1.0000
  O   O8        1.0  0.63520  0.26830  0.73450  1.0000
  O   O9        1.0  0.30890  0.33100  0.42540  1.0000
  O   O10       1.0  0.69110  0.33100  0.07460  1.0000
  O   O11       1.0  0.80890  0.83100  0.42540  1.0000
  O   O12       1.0  0.19110  0.83100  0.07460  1.0000
  O   O13       1.0  0.69110  0.66900  0.57460  1.0000
  O   O14       1.0  0.30890  0.66900  0.92540  1.0000
  O   O15       1.0  0.19110  0.16900  0.57460  1.0000
  O   O16       1.0  0.80890  0.16900  0.92540  1.0000
  O   O17       1.0  0.63120  0.41820  0.62540  1.0000
  O   O18       1.0  0.36880  0.41820  0.87460  1.0000
  O   O19       1.0  0.13120  0.91820  0.62540  1.0000
  O   O20       1.0  0.86880  0.91820  0.87460  1.0000
  O   O21       1.0  0.36880  0.58180  0.37460  1.0000
  O   O22       1.0  0.63120  0.58180  0.12540  1.0000
  O   O23       1.0  0.86880  0.08180  0.37460  1.0000
  O   O24       1.0  0.13120  0.08180  0.12540  1.0000
  O   O25       1.0  0.64830  0.51650  0.45620  1.0000
  O   O26       1.0  0.35170  0.51650  0.04380  1.0000
  O   O27       1.0  0.14830  0.01650  0.45620  1.0000
  O   O28       1.0  0.85170  0.01650  0.04380  1.0000
  O   O29       1.0  0.35170  0.48350  0.54380  1.0000
  O   O30       1.0  0.64830  0.48350  0.95620  1.0000
  O   O31       1.0  0.85170  0.98350  0.54380  1.0000
  O   O32       1.0  0.14830  0.98350  0.95620  1.0000
