data_image0
_chemical_formula_structural       In8O64C32
_chemical_formula_sum              "In8 O64 C32"
_cell_length_a       11.06
_cell_length_b       21.605
_cell_length_c       10.642
_cell_angle_alpha    90
_cell_angle_beta     90
_cell_angle_gamma    90

_space_group_name_H-M_alt    "P 1"
_space_group_IT_number       1

loop_
  _space_group_symop_operation_xyz
  'x, y, z'

loop_
  _atom_site_type_symbol
  _atom_site_label
  _atom_site_symmetry_multiplicity
  _atom_site_fract_x
  _atom_site_fract_y
  _atom_site_fract_z
  _atom_site_occupancy
  In  In1       1.0  0.47378  0.38985  0.84385  1.0000
  In  In2       1.0  0.02622  0.61015  0.34385  1.0000
  In  In3       1.0  0.52622  0.88985  0.15615  1.0000
  In  In4       1.0  0.97378  0.11015  0.65615  1.0000
  In  In5       1.0  0.52622  0.61015  0.15615  1.0000
  In  In6       1.0  0.97378  0.38985  0.65615  1.0000
  In  In7       1.0  0.47378  0.11015  0.84385  1.0000
  In  In8       1.0  0.02622  0.88985  0.34385  1.0000
  O   O1        1.0  0.35670  0.41490  0.67980  1.0000
  O   O2        1.0  0.14330  0.58510  0.17980  1.0000
  O   O3        1.0  0.64330  0.91490  0.32020  1.0000
  O   O4        1.0  0.85670  0.08510  0.82020  1.0000
  O   O5        1.0  0.64330  0.58510  0.32020  1.0000
  O   O6        1.0  0.85670  0.41490  0.82020  1.0000
  O   O7        1.0  0.35670  0.08510  0.67980  1.0000
  O   O8        1.0  0.14330  0.91490  0.17980  1.0000
  O   O9        1.0  0.16830  0.40370  0.59840  1.0000
  O   O10       1.0  0.33170  0.59630  0.09840  1.0000
  O   O11       1.0  0.83170  0.90370  0.40160  1.0000
  O   O12       1.0  0.66830  0.09630  0.90160  1.0000
  O   O13       1.0  0.83170  0.59630  0.40160  1.0000
  O   O14       1.0  0.66830  0.40370  0.90160  1.0000
  O   O15       1.0  0.16830  0.09630  0.59840  1.0000
  O   O16       1.0  0.33170  0.90370  0.09840  1.0000
  O   O17       1.0  0.27620  0.38290  0.90570  1.0000
  O   O18       1.0  0.22380  0.61710  0.40570  1.0000
  O   O19       1.0  0.72380  0.88290  0.09430  1.0000
  O   O20       1.0  0.77620  0.11710  0.59430  1.0000
  O   O21       1.0  0.72380  0.61710  0.09430  1.0000
  O   O22       1.0  0.77620  0.38290  0.59430  1.0000
  O   O23       1.0  0.27620  0.11710  0.90570  1.0000
  O   O24       1.0  0.22380  0.88290  0.40570  1.0000
  O   O25       1.0  0.08970  0.37970  0.83340  1.0000
  O   O26       1.0  0.41030  0.62030  0.33340  1.0000
  O   O27       1.0  0.91030  0.87970  0.16660  1.0000
  O   O28       1.0  0.58970  0.12030  0.66660  1.0000
  O   O29       1.0  0.91030  0.62030  0.16660  1.0000
  O   O30       1.0  0.58970  0.37970  0.66660  1.0000
  O   O31       1.0  0.08970  0.12030  0.83340  1.0000
  O   O32       1.0  0.41030  0.87970  0.33340  1.0000
  O   O33       1.0  0.50430  0.30340  0.95270  1.0000
  O   O34       1.0  0.99570  0.69660  0.45270  1.0000
  O   O35       1.0  0.49570  0.80340  0.04730  1.0000
  O   O36       1.0  0.00430  0.19660  0.54730  1.0000
  O   O37       1.0  0.49570  0.69660  0.04730  1.0000
  O   O38       1.0  0.00430  0.30340  0.54730  1.0000
  O   O39       1.0  0.50430  0.19660  0.95270  1.0000
  O   O40       1.0  0.99570  0.80340  0.45270  1.0000
  O   O41       1.0  0.41050  0.20090  0.73600  1.0000
  O   O42       1.0  0.08950  0.79910  0.23600  1.0000
  O   O43       1.0  0.58950  0.70090  0.26400  1.0000
  O   O44       1.0  0.91050  0.29910  0.76400  1.0000
  O   O45       1.0  0.58950  0.79910  0.26400  1.0000
  O   O46       1.0  0.91050  0.20090  0.76400  1.0000
  O   O47       1.0  0.41050  0.29910  0.73600  1.0000
  O   O48       1.0  0.08950  0.70090  0.23600  1.0000
  O   O49       1.0  0.48660  0.49130  0.83780  1.0000
  O   O50       1.0  0.01340  0.50870  0.33780  1.0000
  O   O51       1.0  0.51340  0.99130  0.16220  1.0000
  O   O52       1.0  0.98660  0.00870  0.66220  1.0000
  O   O53       1.0  0.51340  0.50870  0.16220  1.0000
  O   O54       1.0  0.98660  0.49130  0.66220  1.0000
  O   O55       1.0  0.48660  0.00870  0.83780  1.0000
  O   O56       1.0  0.01340  0.99130  0.33780  1.0000
  O   O57       1.0  0.52550  0.57470  0.95030  1.0000
  O   O58       1.0  0.97450  0.42530  0.45030  1.0000
  O   O59       1.0  0.47450  0.07470  0.04970  1.0000
  O   O60       1.0  0.02550  0.92530  0.54970  1.0000
  O   O61       1.0  0.47450  0.42530  0.04970  1.0000
  O   O62       1.0  0.02550  0.57470  0.54970  1.0000
  O   O63       1.0  0.52550  0.92530  0.95030  1.0000
  O   O64       1.0  0.97450  0.07470  0.45030  1.0000
  C   C1        1.0  0.24530  0.40380  0.69770  1.0000
  C   C2        1.0  0.25470  0.59620  0.19770  1.0000
  C   C3        1.0  0.75470  0.90380  0.30230  1.0000
  C   C4        1.0  0.74530  0.09620  0.80230  1.0000
  C   C5        1.0  0.75470  0.59620  0.30230  1.0000
  C   C6        1.0  0.74530  0.40380  0.80230  1.0000
  C   C7        1.0  0.24530  0.09620  0.69770  1.0000
  C   C8        1.0  0.25470  0.90380  0.19770  1.0000
  C   C9        1.0  0.19460  0.38480  0.81790  1.0000
  C   C10       1.0  0.30540  0.61520  0.31790  1.0000
  C   C11       1.0  0.80540  0.88480  0.18210  1.0000
  C   C12       1.0  0.69460  0.11520  0.68210  1.0000
  C   C13       1.0  0.80540  0.61520  0.18210  1.0000
  C   C14       1.0  0.69460  0.38480  0.68210  1.0000
  C   C15       1.0  0.19460  0.11520  0.81790  1.0000
  C   C16       1.0  0.30540  0.88480  0.31790  1.0000
  C   C17       1.0  0.48800  0.25000  0.90400  1.0000
  C   C18       1.0  0.01200  0.75000  0.40400  1.0000
  C   C19       1.0  0.51200  0.75000  0.09600  1.0000
  C   C20       1.0  0.98800  0.25000  0.59600  1.0000
  C   C21       1.0  0.43700  0.25000  0.79000  1.0000
  C   C22       1.0  0.06300  0.75000  0.29000  1.0000
  C   C23       1.0  0.56300  0.75000  0.21000  1.0000
  C   C24       1.0  0.93700  0.25000  0.71000  1.0000
  C   C25       1.0  0.50600  0.51890  0.94580  1.0000
  C   C26       1.0  0.99400  0.48110  0.44580  1.0000
  C   C27       1.0  0.49400  0.01890  0.05420  1.0000
  C   C28       1.0  0.00600  0.98110  0.55420  1.0000
  C   C29       1.0  0.49400  0.48110  0.05420  1.0000
  C   C30       1.0  0.00600  0.51890  0.55420  1.0000
  C   C31       1.0  0.50600  0.98110  0.94580  1.0000
  C   C32       1.0  0.99400  0.01890  0.44580  1.0000
