data_image0
_chemical_formula_structural       In16C64O128
_chemical_formula_sum              "In16 C64 O128"
_cell_length_a       21.797
_cell_length_b       21.797
_cell_length_c       12.299
_cell_angle_alpha    90
_cell_angle_beta     90
_cell_angle_gamma    90

_space_group_name_H-M_alt    "P 1"
_space_group_IT_number       1

loop_
  _space_group_symop_operation_xyz
  'x, y, z'

loop_
  _atom_site_type_symbol
  _atom_site_label
  _atom_site_symmetry_multiplicity
  _atom_site_fract_x
  _atom_site_fract_y
  _atom_site_fract_z
  _atom_site_occupancy
  In  In1       1.0  0.86464  0.61464  0.12500  1.0000
  In  In2       1.0  0.63536  0.38536  0.62500  1.0000
  In  In3       1.0  0.63536  0.61464  0.37500  1.0000
  In  In4       1.0  0.86464  0.38536  0.87500  1.0000
  In  In5       1.0  0.36464  0.11464  0.62500  1.0000
  In  In6       1.0  0.13536  0.88536  0.12500  1.0000
  In  In7       1.0  0.13536  0.11464  0.87500  1.0000
  In  In8       1.0  0.36464  0.88536  0.37500  1.0000
  In  In9       1.0  0.13536  0.38536  0.87500  1.0000
  In  In10      1.0  0.36464  0.61464  0.37500  1.0000
  In  In11      1.0  0.36464  0.38536  0.62500  1.0000
  In  In12      1.0  0.13536  0.61464  0.12500  1.0000
  In  In13      1.0  0.63536  0.88536  0.37500  1.0000
  In  In14      1.0  0.86464  0.11464  0.87500  1.0000
  In  In15      1.0  0.86464  0.88536  0.12500  1.0000
  In  In16      1.0  0.63536  0.11464  0.62500  1.0000
  C   C1        1.0  1.00000  0.59510  0.17660  1.0000
  C   C2        1.0  0.50000  0.40490  0.67660  1.0000
  C   C3        1.0  0.65490  0.75000  0.42660  1.0000
  C   C4        1.0  0.84510  0.25000  0.92660  1.0000
  C   C5        1.0  0.50000  0.59510  0.32340  1.0000
  C   C6        1.0  1.00000  0.40490  0.82340  1.0000
  C   C7        1.0  0.84510  0.75000  0.07340  1.0000
  C   C8        1.0  0.65490  0.25000  0.57340  1.0000
  C   C9        1.0  0.50000  0.09510  0.67660  1.0000
  C   C10       1.0  0.00000  0.90490  0.17660  1.0000
  C   C11       1.0  0.15490  0.25000  0.92660  1.0000
  C   C12       1.0  0.34510  0.75000  0.42660  1.0000
  C   C13       1.0  0.00000  0.09510  0.82340  1.0000
  C   C14       1.0  0.50000  0.90490  0.32340  1.0000
  C   C15       1.0  0.34510  0.25000  0.57340  1.0000
  C   C16       1.0  0.15490  0.75000  0.07340  1.0000
  C   C17       1.0  1.00000  0.63249  0.06870  1.0000
  C   C18       1.0  0.50000  0.36751  0.56870  1.0000
  C   C19       1.0  0.61751  0.75000  0.31870  1.0000
  C   C20       1.0  0.88249  0.25000  0.81870  1.0000
  C   C21       1.0  0.50000  0.63249  0.43130  1.0000
  C   C22       1.0  1.00000  0.36751  0.93130  1.0000
  C   C23       1.0  0.88249  0.75000  0.18130  1.0000
  C   C24       1.0  0.61751  0.25000  0.68130  1.0000
  C   C25       1.0  0.50000  0.13249  0.56870  1.0000
  C   C26       1.0  0.00000  0.86751  0.06870  1.0000
  C   C27       1.0  0.11751  0.25000  0.81870  1.0000
  C   C28       1.0  0.38249  0.75000  0.31870  1.0000
  C   C29       1.0  0.00000  0.13249  0.93130  1.0000
  C   C30       1.0  0.50000  0.86751  0.43130  1.0000
  C   C31       1.0  0.38249  0.25000  0.68130  1.0000
  C   C32       1.0  0.11751  0.75000  0.18130  1.0000
  C   C33       1.0  0.85466  0.48122  0.05290  1.0000
  C   C34       1.0  0.64534  0.51878  0.55290  1.0000
  C   C35       1.0  0.76878  0.60466  0.30290  1.0000
  C   C36       1.0  0.73122  0.39534  0.80290  1.0000
  C   C37       1.0  0.64534  0.48122  0.44710  1.0000
  C   C38       1.0  0.85466  0.51878  0.94710  1.0000
  C   C39       1.0  0.73122  0.60466  0.19710  1.0000
  C   C40       1.0  0.76878  0.39534  0.69710  1.0000
  C   C41       1.0  0.35466  0.98122  0.55290  1.0000
  C   C42       1.0  0.14534  0.01878  0.05290  1.0000
  C   C43       1.0  0.26878  0.10466  0.80290  1.0000
  C   C44       1.0  0.23122  0.89534  0.30290  1.0000
  C   C45       1.0  0.14534  0.98122  0.94710  1.0000
  C   C46       1.0  0.35466  0.01878  0.44710  1.0000
  C   C47       1.0  0.23122  0.10466  0.69710  1.0000
  C   C48       1.0  0.26878  0.89534  0.19710  1.0000
  C   C49       1.0  0.14534  0.51878  0.94710  1.0000
  C   C50       1.0  0.35466  0.48122  0.44710  1.0000
  C   C51       1.0  0.23122  0.39534  0.69710  1.0000
  C   C52       1.0  0.26878  0.60466  0.19710  1.0000
  C   C53       1.0  0.35466  0.51878  0.55290  1.0000
  C   C54       1.0  0.14534  0.48122  0.05290  1.0000
  C   C55       1.0  0.26878  0.39534  0.80290  1.0000
  C   C56       1.0  0.23122  0.60466  0.30290  1.0000
  C   C57       1.0  0.64534  0.01878  0.44710  1.0000
  C   C58       1.0  0.85466  0.98122  0.94710  1.0000
  C   C59       1.0  0.73122  0.89534  0.19710  1.0000
  C   C60       1.0  0.76878  0.10466  0.69710  1.0000
  C   C61       1.0  0.85466  0.01878  0.05290  1.0000
  C   C62       1.0  0.64534  0.98122  0.55290  1.0000
  C   C63       1.0  0.76878  0.89534  0.30290  1.0000
  C   C64       1.0  0.73122  0.10466  0.80290  1.0000
  O   O1        1.0  0.94888  0.58099  0.21457  1.0000
  O   O2        1.0  0.55112  0.41901  0.71457  1.0000
  O   O3        1.0  0.66901  0.69888  0.46457  1.0000
  O   O4        1.0  0.83099  0.30112  0.96457  1.0000
  O   O5        1.0  0.55112  0.58099  0.28543  1.0000
  O   O6        1.0  0.94888  0.41901  0.78543  1.0000
  O   O7        1.0  0.83099  0.69888  0.03543  1.0000
  O   O8        1.0  0.66901  0.30112  0.53543  1.0000
  O   O9        1.0  0.44888  0.08099  0.71457  1.0000
  O   O10       1.0  0.05112  0.91901  0.21457  1.0000
  O   O11       1.0  0.16901  0.19888  0.96457  1.0000
  O   O12       1.0  0.33099  0.80112  0.46457  1.0000
  O   O13       1.0  0.05112  0.08099  0.78543  1.0000
  O   O14       1.0  0.44888  0.91901  0.28543  1.0000
  O   O15       1.0  0.33099  0.19888  0.53543  1.0000
  O   O16       1.0  0.16901  0.80112  0.03543  1.0000
  O   O17       1.0  0.05112  0.41901  0.78543  1.0000
  O   O18       1.0  0.44888  0.58099  0.28543  1.0000
  O   O19       1.0  0.33099  0.30112  0.53543  1.0000
  O   O20       1.0  0.16901  0.69888  0.03543  1.0000
  O   O21       1.0  0.44888  0.41901  0.71457  1.0000
  O   O22       1.0  0.05112  0.58099  0.21457  1.0000
  O   O23       1.0  0.16901  0.30112  0.96457  1.0000
  O   O24       1.0  0.33099  0.69888  0.46457  1.0000
  O   O25       1.0  0.55112  0.91901  0.28543  1.0000
  O   O26       1.0  0.94888  0.08099  0.78543  1.0000
  O   O27       1.0  0.83099  0.80112  0.03543  1.0000
  O   O28       1.0  0.66901  0.19888  0.53543  1.0000
  O   O29       1.0  0.94888  0.91901  0.21457  1.0000
  O   O30       1.0  0.55112  0.08099  0.71457  1.0000
  O   O31       1.0  0.66901  0.80112  0.46457  1.0000
  O   O32       1.0  0.83099  0.19888  0.96457  1.0000
  O   O33       1.0  0.94909  0.64515  0.02891  1.0000
  O   O34       1.0  0.55091  0.35485  0.52891  1.0000
  O   O35       1.0  0.60485  0.69909  0.27891  1.0000
  O   O36       1.0  0.89515  0.30091  0.77891  1.0000
  O   O37       1.0  0.55091  0.64515  0.47109  1.0000
  O   O38       1.0  0.94909  0.35485  0.97109  1.0000
  O   O39       1.0  0.89515  0.69909  0.22109  1.0000
  O   O40       1.0  0.60485  0.30091  0.72109  1.0000
  O   O41       1.0  0.44909  0.14515  0.52891  1.0000
  O   O42       1.0  0.05091  0.85485  0.02891  1.0000
  O   O43       1.0  0.10485  0.19909  0.77891  1.0000
  O   O44       1.0  0.39515  0.80091  0.27891  1.0000
  O   O45       1.0  0.05091  0.14515  0.97109  1.0000
  O   O46       1.0  0.44909  0.85485  0.47109  1.0000
  O   O47       1.0  0.39515  0.19909  0.72109  1.0000
  O   O48       1.0  0.10485  0.80091  0.22109  1.0000
  O   O49       1.0  0.05091  0.35485  0.97109  1.0000
  O   O50       1.0  0.44909  0.64515  0.47109  1.0000
  O   O51       1.0  0.39515  0.30091  0.72109  1.0000
  O   O52       1.0  0.10485  0.69909  0.22109  1.0000
  O   O53       1.0  0.44909  0.35485  0.52891  1.0000
  O   O54       1.0  0.05091  0.64515  0.02891  1.0000
  O   O55       1.0  0.10485  0.30091  0.77891  1.0000
  O   O56       1.0  0.39515  0.69909  0.27891  1.0000
  O   O57       1.0  0.55091  0.85485  0.47109  1.0000
  O   O58       1.0  0.94909  0.14515  0.97109  1.0000
  O   O59       1.0  0.89515  0.80091  0.22109  1.0000
  O   O60       1.0  0.60485  0.19909  0.72109  1.0000
  O   O61       1.0  0.94909  0.85485  0.02891  1.0000
  O   O62       1.0  0.55091  0.14515  0.52891  1.0000
  O   O63       1.0  0.60485  0.80091  0.27891  1.0000
  O   O64       1.0  0.89515  0.19909  0.77891  1.0000
  O   O65       1.0  0.85536  0.51039  0.14020  1.0000
  O   O66       1.0  0.64464  0.48961  0.64020  1.0000
  O   O67       1.0  0.73961  0.60536  0.39020  1.0000
  O   O68       1.0  0.76039  0.39464  0.89020  1.0000
  O   O69       1.0  0.64464  0.51039  0.35980  1.0000
  O   O70       1.0  0.85536  0.48961  0.85980  1.0000
  O   O71       1.0  0.76039  0.60536  0.10980  1.0000
  O   O72       1.0  0.73961  0.39464  0.60980  1.0000
  O   O73       1.0  0.35536  0.01039  0.64020  1.0000
  O   O74       1.0  0.14464  0.98961  0.14020  1.0000
  O   O75       1.0  0.23961  0.10536  0.89020  1.0000
  O   O76       1.0  0.26039  0.89464  0.39020  1.0000
  O   O77       1.0  0.14464  0.01039  0.85980  1.0000
  O   O78       1.0  0.35536  0.98961  0.35980  1.0000
  O   O79       1.0  0.26039  0.10536  0.60980  1.0000
  O   O80       1.0  0.23961  0.89464  0.10980  1.0000
  O   O81       1.0  0.14464  0.48961  0.85980  1.0000
  O   O82       1.0  0.35536  0.51039  0.35980  1.0000
  O   O83       1.0  0.26039  0.39464  0.60980  1.0000
  O   O84       1.0  0.23961  0.60536  0.10980  1.0000
  O   O85       1.0  0.35536  0.48961  0.64020  1.0000
  O   O86       1.0  0.14464  0.51039  0.14020  1.0000
  O   O87       1.0  0.23961  0.39464  0.89020  1.0000
  O   O88       1.0  0.26039  0.60536  0.39020  1.0000
  O   O89       1.0  0.64464  0.98961  0.35980  1.0000
  O   O90       1.0  0.85536  0.01039  0.85980  1.0000
  O   O91       1.0  0.76039  0.89464  0.10980  1.0000
  O   O92       1.0  0.73961  0.10536  0.60980  1.0000
  O   O93       1.0  0.85536  0.98961  0.14020  1.0000
  O   O94       1.0  0.64464  0.01039  0.64020  1.0000
  O   O95       1.0  0.73961  0.89464  0.39020  1.0000
  O   O96       1.0  0.76039  0.10536  0.89020  1.0000
  O   O97       1.0  0.85406  0.42397  0.04365  1.0000
  O   O98       1.0  0.64594  0.57603  0.54365  1.0000
  O   O99       1.0  0.82603  0.60406  0.29365  1.0000
  O   O100      1.0  0.67397  0.39594  0.79365  1.0000
  O   O101      1.0  0.64594  0.42397  0.45635  1.0000
  O   O102      1.0  0.85406  0.57603  0.95635  1.0000
  O   O103      1.0  0.67397  0.60406  0.20635  1.0000
  O   O104      1.0  0.82603  0.39594  0.70635  1.0000
  O   O105      1.0  0.35406  0.92397  0.54365  1.0000
  O   O106      1.0  0.14594  0.07603  0.04365  1.0000
  O   O107      1.0  0.32603  0.10406  0.79365  1.0000
  O   O108      1.0  0.17397  0.89594  0.29365  1.0000
  O   O109      1.0  0.14594  0.92397  0.95635  1.0000
  O   O110      1.0  0.35406  0.07603  0.45635  1.0000
  O   O111      1.0  0.17397  0.10406  0.70635  1.0000
  O   O112      1.0  0.32603  0.89594  0.20635  1.0000
  O   O113      1.0  0.14594  0.57603  0.95635  1.0000
  O   O114      1.0  0.35406  0.42397  0.45635  1.0000
  O   O115      1.0  0.17397  0.39594  0.70635  1.0000
  O   O116      1.0  0.32603  0.60406  0.20635  1.0000
  O   O117      1.0  0.35406  0.57603  0.54365  1.0000
  O   O118      1.0  0.14594  0.42397  0.04365  1.0000
  O   O119      1.0  0.32603  0.39594  0.79365  1.0000
  O   O120      1.0  0.17397  0.60406  0.29365  1.0000
  O   O121      1.0  0.64594  0.07603  0.45635  1.0000
  O   O122      1.0  0.85406  0.92397  0.95635  1.0000
  O   O123      1.0  0.67397  0.89594  0.20635  1.0000
  O   O124      1.0  0.82603  0.10406  0.70635  1.0000
  O   O125      1.0  0.85406  0.07603  0.04365  1.0000
  O   O126      1.0  0.64594  0.92397  0.54365  1.0000
  O   O127      1.0  0.82603  0.89594  0.29365  1.0000
  O   O128      1.0  0.67397  0.10406  0.79365  1.0000
