data_image0
_chemical_formula_structural       In4C16O32
_chemical_formula_sum              "In4 C16 O32"
_cell_length_a       8.6289
_cell_length_b       16.242
_cell_length_c       8.4811
_cell_angle_alpha    90
_cell_angle_beta     100.141
_cell_angle_gamma    90

_space_group_name_H-M_alt    "P 1"
_space_group_IT_number       1

loop_
  _space_group_symop_operation_xyz
  'x, y, z'

loop_
  _atom_site_type_symbol
  _atom_site_label
  _atom_site_symmetry_multiplicity
  _atom_site_fract_x
  _atom_site_fract_y
  _atom_site_fract_z
  _atom_site_occupancy
  In  In1       1.0  0.24229  0.62236  0.47959  1.0000
  In  In2       1.0  0.75771  0.12236  0.02041  1.0000
  In  In3       1.0  0.75771  0.37764  0.52041  1.0000
  In  In4       1.0  0.24229  0.87764  0.97959  1.0000
  C   C1        1.0  0.16420  0.73320  0.74510  1.0000
  C   C2        1.0  0.83580  0.23320  0.75490  1.0000
  C   C3        1.0  0.83580  0.26680  0.25490  1.0000
  C   C4        1.0  0.16420  0.76680  0.24510  1.0000
  C   C5        1.0  0.31100  0.77590  0.70220  1.0000
  C   C6        1.0  0.68900  0.27590  0.79780  1.0000
  C   C7        1.0  0.68900  0.22410  0.29780  1.0000
  C   C8        1.0  0.31100  0.72410  0.20220  1.0000
  C   C9        1.0  0.54570  0.52490  0.57270  1.0000
  C   C10       1.0  0.45430  0.02490  0.92730  1.0000
  C   C11       1.0  0.45430  0.47510  0.42730  1.0000
  C   C12       1.0  0.54570  0.97510  0.07270  1.0000
  C   C13       1.0  0.95400  0.51800  0.42240  1.0000
  C   C14       1.0  0.04600  0.01800  0.07760  1.0000
  C   C15       1.0  0.04600  0.48200  0.57760  1.0000
  C   C16       1.0  0.95400  0.98200  0.92240  1.0000
  O   O1        1.0  0.11680  0.66950  0.66830  1.0000
  O   O2        1.0  0.88320  0.16950  0.83170  1.0000
  O   O3        1.0  0.88320  0.33050  0.33170  1.0000
  O   O4        1.0  0.11680  0.83050  0.16830  1.0000
  O   O5        1.0  0.10400  0.76610  0.85080  1.0000
  O   O6        1.0  0.89600  0.26610  0.64920  1.0000
  O   O7        1.0  0.89600  0.23390  0.14920  1.0000
  O   O8        1.0  0.10400  0.73390  0.35080  1.0000
  O   O9        1.0  0.37210  0.74500  0.59250  1.0000
  O   O10       1.0  0.62790  0.24500  0.90750  1.0000
  O   O11       1.0  0.62790  0.25500  0.40750  1.0000
  O   O12       1.0  0.37210  0.75500  0.09250  1.0000
  O   O13       1.0  0.35670  0.83970  0.78090  1.0000
  O   O14       1.0  0.64330  0.33970  0.71910  1.0000
  O   O15       1.0  0.64330  0.16030  0.21910  1.0000
  O   O16       1.0  0.35670  0.66030  0.28090  1.0000
  O   O17       1.0  0.47640  0.58880  0.61250  1.0000
  O   O18       1.0  0.52360  0.08880  0.88750  1.0000
  O   O19       1.0  0.52360  0.41120  0.38750  1.0000
  O   O20       1.0  0.47640  0.91120  0.11250  1.0000
  O   O21       1.0  0.67310  0.50070  0.64050  1.0000
  O   O22       1.0  0.32690  0.00070  0.85950  1.0000
  O   O23       1.0  0.32690  0.49930  0.35950  1.0000
  O   O24       1.0  0.67310  0.99930  0.14050  1.0000
  O   O25       1.0  0.01780  0.57490  0.35620  1.0000
  O   O26       1.0  0.98220  0.07490  0.14380  1.0000
  O   O27       1.0  0.98220  0.42510  0.64380  1.0000
  O   O28       1.0  0.01780  0.92510  0.85620  1.0000
  O   O29       1.0  0.82020  0.48880  0.37150  1.0000
  O   O30       1.0  0.17980  0.98880  0.12850  1.0000
  O   O31       1.0  0.17980  0.51120  0.62850  1.0000
  O   O32       1.0  0.82020  0.01120  0.87150  1.0000
