data_image0
_chemical_formula_structural       Fe8P12O52H4O4H4O4H4O4C8
_chemical_formula_sum              "Fe8 P12 O64 H12 C8"
_cell_length_a       10.8294
_cell_length_b       12.7465
_cell_length_c       12.3971
_cell_angle_alpha    90
_cell_angle_beta     95.115
_cell_angle_gamma    90

_space_group_name_H-M_alt    "P 1"
_space_group_IT_number       1

loop_
  _space_group_symop_operation_xyz
  'x, y, z'

loop_
  _atom_site_type_symbol
  _atom_site_label
  _atom_site_symmetry_multiplicity
  _atom_site_fract_x
  _atom_site_fract_y
  _atom_site_fract_z
  _atom_site_occupancy
  Fe  Fe1       1.0  0.02977  0.87900  0.65918  1.0000
  Fe  Fe2       1.0  0.52977  0.62100  0.15918  1.0000
  Fe  Fe3       1.0  0.97023  0.12100  0.34082  1.0000
  Fe  Fe4       1.0  0.47023  0.37900  0.84082  1.0000
  Fe  Fe5       1.0  0.50946  0.87512  0.85221  1.0000
  Fe  Fe6       1.0  0.00946  0.62488  0.35221  1.0000
  Fe  Fe7       1.0  0.49054  0.12488  0.14779  1.0000
  Fe  Fe8       1.0  0.99054  0.37512  0.64779  1.0000
  P   P1        1.0  0.56557  0.87658  0.11858  1.0000
  P   P2        1.0  0.06557  0.62342  0.61858  1.0000
  P   P3        1.0  0.43443  0.12342  0.88142  1.0000
  P   P4        1.0  0.93443  0.37658  0.38142  1.0000
  P   P5        1.0  0.42927  0.62737  0.89228  1.0000
  P   P6        1.0  0.92927  0.87263  0.39228  1.0000
  P   P7        1.0  0.57073  0.37263  0.10772  1.0000
  P   P8        1.0  0.07073  0.12737  0.60772  1.0000
  P   P9        1.0  0.74803  0.83985  0.69691  1.0000
  P   P10       1.0  0.24803  0.66015  0.19691  1.0000
  P   P11       1.0  0.25197  0.16015  0.30309  1.0000
  P   P12       1.0  0.75197  0.33985  0.80309  1.0000
  O   O1        1.0  0.48060  0.61360  0.00870  1.0000
  O   O2        1.0  0.98060  0.88640  0.50870  1.0000
  O   O3        1.0  0.51940  0.38640  0.99130  1.0000
  O   O4        1.0  0.01940  0.11360  0.49130  1.0000
  O   O5        1.0  0.87580  0.88800  0.73050  1.0000
  O   O6        1.0  0.37580  0.61200  0.23050  1.0000
  O   O7        1.0  0.12420  0.11200  0.26950  1.0000
  O   O8        1.0  0.62420  0.38800  0.76950  1.0000
  O   O9        1.0  0.45170  0.53160  0.82360  1.0000
  O   O10       1.0  0.95170  0.96840  0.32360  1.0000
  O   O11       1.0  0.54830  0.46840  0.17640  1.0000
  O   O12       1.0  0.04830  0.03160  0.67640  1.0000
  O   O13       1.0  0.50590  0.77790  0.16070  1.0000
  O   O14       1.0  0.00590  0.72210  0.66070  1.0000
  O   O15       1.0  0.49410  0.22210  0.83930  1.0000
  O   O16       1.0  0.99410  0.27790  0.33930  1.0000
  O   O17       1.0  0.21370  0.86630  0.62240  1.0000
  O   O18       1.0  0.71370  0.63370  0.12240  1.0000
  O   O19       1.0  0.78630  0.13370  0.37760  1.0000
  O   O20       1.0  0.28630  0.36630  0.87760  1.0000
  O   O21       1.0  0.12840  0.86820  0.81430  1.0000
  O   O22       1.0  0.62840  0.63180  0.31430  1.0000
  O   O23       1.0  0.87160  0.13180  0.18570  1.0000
  O   O24       1.0  0.37160  0.36820  0.68570  1.0000
  O   O25       1.0  0.66310  0.86600  0.78280  1.0000
  O   O26       1.0  0.16310  0.63400  0.28280  1.0000
  O   O27       1.0  0.33690  0.13400  0.21720  1.0000
  O   O28       1.0  0.83690  0.36600  0.71720  1.0000
  O   O29       1.0  0.58530  0.86930  0.99980  1.0000
  O   O30       1.0  0.08530  0.63070  0.49980  1.0000
  O   O31       1.0  0.41470  0.13070  0.00020  1.0000
  O   O32       1.0  0.91470  0.36930  0.50020  1.0000
  O   O33       1.0  0.48280  0.72230  0.84030  1.0000
  O   O34       1.0  0.98280  0.77770  0.34030  1.0000
  O   O35       1.0  0.51720  0.27770  0.15970  1.0000
  O   O36       1.0  0.01720  0.22230  0.65970  1.0000
  O   O37       1.0  0.48950  0.97040  0.14850  1.0000
  O   O38       1.0  0.98950  0.52960  0.64850  1.0000
  O   O39       1.0  0.51050  0.02960  0.85150  1.0000
  O   O40       1.0  0.01050  0.47040  0.35150  1.0000
  O   O41       1.0  0.32240  0.87970  0.89400  1.0000
  O   O42       1.0  0.82240  0.62030  0.39400  1.0000
  O   O43       1.0  0.67760  0.12030  0.10600  1.0000
  O   O44       1.0  0.17760  0.37970  0.60600  1.0000
  O   O45       1.0  0.40750  0.88210  0.69840  1.0000
  O   O46       1.0  0.90750  0.61790  0.19840  1.0000
  O   O47       1.0  0.59250  0.11790  0.30160  1.0000
  O   O48       1.0  0.09250  0.38210  0.80160  1.0000
  O   O49       1.0  0.70220  0.88490  0.17570  1.0000
  O   O50       1.0  0.20220  0.61510  0.67570  1.0000
  O   O51       1.0  0.29780  0.11510  0.82430  1.0000
  O   O52       1.0  0.79780  0.38490  0.32430  1.0000
  H   H1        1.0  0.69950  0.88920  0.24140  1.0000
  H   H2        1.0  0.19950  0.61080  0.74140  1.0000
  H   H3        1.0  0.30050  0.11080  0.75860  1.0000
  H   H4        1.0  0.80050  0.38920  0.25860  1.0000
  O   O53       1.0  0.28420  0.64010  0.89490  1.0000
  O   O54       1.0  0.78420  0.85990  0.39490  1.0000
  O   O55       1.0  0.71580  0.35990  0.10510  1.0000
  O   O56       1.0  0.21580  0.14010  0.60510  1.0000
  H   H5        1.0  0.25200  0.64790  0.83300  1.0000
  H   H6        1.0  0.75200  0.85210  0.33300  1.0000
  H   H7        1.0  0.74800  0.35210  0.16700  1.0000
  H   H8        1.0  0.24800  0.14790  0.66700  1.0000
  O   O57       1.0  0.76690  0.71510  0.70280  1.0000
  O   O58       1.0  0.26690  0.78490  0.20280  1.0000
  O   O59       1.0  0.23310  0.28490  0.29720  1.0000
  O   O60       1.0  0.73310  0.21510  0.79720  1.0000
  H   H9        1.0  0.81760  0.69740  0.66100  1.0000
  H   H10       1.0  0.31760  0.80260  0.16100  1.0000
  H   H11       1.0  0.18240  0.30260  0.33900  1.0000
  H   H12       1.0  0.68240  0.19740  0.83900  1.0000
  O   O61       1.0  0.70190  0.87160  0.58440  1.0000
  O   O62       1.0  0.20190  0.62840  0.08440  1.0000
  O   O63       1.0  0.29810  0.12840  0.41560  1.0000
  O   O64       1.0  0.79810  0.37160  0.91560  1.0000
  C   C1        1.0  0.29400  0.87400  0.70190  1.0000
  C   C2        1.0  0.79400  0.62600  0.20190  1.0000
  C   C3        1.0  0.70600  0.12600  0.29810  1.0000
  C   C4        1.0  0.20600  0.37400  0.79810  1.0000
  C   C5        1.0  0.24440  0.87340  0.81390  1.0000
  C   C6        1.0  0.74440  0.62660  0.31390  1.0000
  C   C7        1.0  0.75560  0.12660  0.18610  1.0000
  C   C8        1.0  0.25560  0.37340  0.68610  1.0000
