data_image0
_chemical_formula_structural       Mn6C24N18O24
_chemical_formula_sum              "Mn6 C24 N18 O24"
_cell_length_a       14.3295
_cell_length_b       14.3295
_cell_length_c       10.0523
_cell_angle_alpha    90
_cell_angle_beta     90
_cell_angle_gamma    120

_space_group_name_H-M_alt    "P 1"
_space_group_IT_number       1

loop_
  _space_group_symop_operation_xyz
  'x, y, z'

loop_
  _atom_site_type_symbol
  _atom_site_label
  _atom_site_symmetry_multiplicity
  _atom_site_fract_x
  _atom_site_fract_y
  _atom_site_fract_z
  _atom_site_occupancy
  Mn  Mn1       1.0  0.66040  0.53523  0.39572  1.0000
  Mn  Mn2       1.0  0.46477  0.12517  0.72905  1.0000
  Mn  Mn3       1.0  0.87483  0.33960  0.06239  1.0000
  Mn  Mn4       1.0  0.33960  0.46477  0.89572  1.0000
  Mn  Mn5       1.0  0.53523  0.87483  0.22905  1.0000
  Mn  Mn6       1.0  0.12517  0.66040  0.56239  1.0000
  C   C1        1.0  0.77970  0.46100  0.19820  1.0000
  C   C2        1.0  0.53900  0.31870  0.53153  1.0000
  C   C3        1.0  0.68130  0.22030  0.86487  1.0000
  C   C4        1.0  0.22030  0.53900  0.69820  1.0000
  C   C5        1.0  0.46100  0.68130  0.03153  1.0000
  C   C6        1.0  0.31870  0.77970  0.36487  1.0000
  C   C7        1.0  0.87150  0.48090  0.28530  1.0000
  C   C8        1.0  0.51910  0.39060  0.61863  1.0000
  C   C9        1.0  0.60940  0.12850  0.95197  1.0000
  C   C10       1.0  0.12850  0.51910  0.78530  1.0000
  C   C11       1.0  0.48090  0.60940  0.11863  1.0000
  C   C12       1.0  0.39060  0.87150  0.45197  1.0000
  C   C13       1.0  0.92070  0.54410  0.39590  1.0000
  C   C14       1.0  0.45590  0.37660  0.72923  1.0000
  C   C15       1.0  0.62340  0.07930  0.06257  1.0000
  C   C16       1.0  0.07930  0.45590  0.89590  1.0000
  C   C17       1.0  0.54410  0.62340  0.22923  1.0000
  C   C18       1.0  0.37660  0.92070  0.56257  1.0000
  C   C19       1.0  0.90270  0.61690  0.48580  1.0000
  C   C20       1.0  0.38310  0.28580  0.81913  1.0000
  C   C21       1.0  0.71420  0.09730  0.15247  1.0000
  C   C22       1.0  0.09730  0.38310  0.98580  1.0000
  C   C23       1.0  0.61690  0.71420  0.31913  1.0000
  C   C24       1.0  0.28580  0.90270  0.65247  1.0000
  N   N1        1.0  0.92970  0.43470  0.25000  1.0000
  N   N2        1.0  0.56530  0.49500  0.58333  1.0000
  N   N3        1.0  0.50500  0.07030  0.91667  1.0000
  N   N4        1.0  0.07030  0.56530  0.75000  1.0000
  N   N5        1.0  0.43470  0.50500  0.08333  1.0000
  N   N6        1.0  0.49500  0.92970  0.41667  1.0000
  N   N7        1.0  0.01180  0.46810  0.33380  1.0000
  N   N8        1.0  0.53190  0.54370  0.66713  1.0000
  N   N9        1.0  0.45630  0.98820  0.00047  1.0000
  N   N10       1.0  0.98820  0.53190  0.83380  1.0000
  N   N11       1.0  0.46810  0.45630  0.16713  1.0000
  N   N12       1.0  0.54370  0.01180  0.50047  1.0000
  N   N13       1.0  0.00830  0.53460  0.42220  1.0000
  N   N14       1.0  0.46540  0.47370  0.75553  1.0000
  N   N15       1.0  0.52630  0.99170  0.08887  1.0000
  N   N16       1.0  0.99170  0.46540  0.92220  1.0000
  N   N17       1.0  0.53460  0.52630  0.25553  1.0000
  N   N18       1.0  0.47370  0.00830  0.58887  1.0000
  O   O1        1.0  0.76010  0.39630  0.10310  1.0000
  O   O2        1.0  0.60370  0.36380  0.43643  1.0000
  O   O3        1.0  0.63620  0.23990  0.76977  1.0000
  O   O4        1.0  0.23990  0.60370  0.60310  1.0000
  O   O5        1.0  0.39630  0.63620  0.93643  1.0000
  O   O6        1.0  0.36380  0.76010  0.26977  1.0000
  O   O7        1.0  0.72840  0.50990  0.21840  1.0000
  O   O8        1.0  0.49010  0.21850  0.55173  1.0000
  O   O9        1.0  0.78150  0.27160  0.88507  1.0000
  O   O10       1.0  0.27160  0.49010  0.71840  1.0000
  O   O11       1.0  0.50990  0.78150  0.05173  1.0000
  O   O12       1.0  0.21850  0.72840  0.38507  1.0000
  O   O13       1.0  0.81250  0.61000  0.49110  1.0000
  O   O14       1.0  0.39000  0.20250  0.82443  1.0000
  O   O15       1.0  0.79750  0.18750  0.15777  1.0000
  O   O16       1.0  0.18750  0.39000  0.99110  1.0000
  O   O17       1.0  0.61000  0.79750  0.32443  1.0000
  O   O18       1.0  0.20250  0.81250  0.65777  1.0000
  O   O19       1.0  0.98150  0.67850  0.55680  1.0000
  O   O20       1.0  0.32150  0.30300  0.89013  1.0000
  O   O21       1.0  0.69700  0.01850  0.22347  1.0000
  O   O22       1.0  0.01850  0.32150  0.05680  1.0000
  O   O23       1.0  0.67850  0.69700  0.39013  1.0000
  O   O24       1.0  0.30300  0.98150  0.72347  1.0000
