data_image0
_chemical_formula_structural       Zr2Rb2N4C24O28H32
_chemical_formula_sum              "Zr2 Rb2 N4 C24 O28 H32"
_cell_length_a       9.956
_cell_length_b       11.208
_cell_length_c       10.615
_cell_angle_alpha    90
_cell_angle_beta     113.53
_cell_angle_gamma    90

_space_group_name_H-M_alt    "P 1"
_space_group_IT_number       1

loop_
  _space_group_symop_operation_xyz
  'x, y, z'

loop_
  _atom_site_type_symbol
  _atom_site_label
  _atom_site_symmetry_multiplicity
  _atom_site_fract_x
  _atom_site_fract_y
  _atom_site_fract_z
  _atom_site_occupancy
  Zr  Zr1       1.0  0.91040  0.16416  0.72238  1.0000
  Zr  Zr2       1.0  0.08960  0.66416  0.27762  1.0000
  Rb  Rb1       1.0  0.61900  0.56902  0.61550  1.0000
  Rb  Rb2       1.0  0.38100  0.06902  0.38450  1.0000
  N   N1        1.0  0.06550  0.27077  0.93338  1.0000
  N   N2        1.0  0.93450  0.77077  0.06662  1.0000
  N   N3        1.0  0.95920  0.01011  0.57988  1.0000
  N   N4        1.0  0.04080  0.51011  0.42012  1.0000
  C   C1        1.0  0.08570  0.39400  0.89500  1.0000
  C   C2        1.0  0.91430  0.89400  0.10500  1.0000
  C   C3        1.0  0.20490  0.20400  0.99480  1.0000
  C   C4        1.0  0.79510  0.70400  0.00520  1.0000
  C   C5        1.0  0.99130  0.26950  0.03060  1.0000
  C   C6        1.0  0.00870  0.76950  0.96940  1.0000
  C   C7        1.0  0.95310  0.43630  0.77350  1.0000
  C   C8        1.0  0.04690  0.93630  0.22650  1.0000
  C   C9        1.0  0.16930  0.07200  0.98160  1.0000
  C   C10       1.0  0.83070  0.57200  0.01840  1.0000
  C   C11       1.0  0.83490  0.22690  0.96870  1.0000
  C   C12       1.0  0.16510  0.72690  0.03130  1.0000
  C   C13       1.0  0.91660  0.89340  0.61630  1.0000
  C   C14       1.0  0.08340  0.39340  0.38370  1.0000
  C   C15       1.0  0.11760  0.01450  0.60860  1.0000
  C   C16       1.0  0.88240  0.51450  0.39140  1.0000
  C   C17       1.0  0.86960  0.03920  0.43320  1.0000
  C   C18       1.0  0.13040  0.53920  0.56680  1.0000
  C   C19       1.0  0.78660  0.90600  0.65340  1.0000
  C   C20       1.0  0.21340  0.40600  0.34660  1.0000
  C   C21       1.0  0.17180  0.14210  0.63600  1.0000
  C   C22       1.0  0.82820  0.64210  0.36400  1.0000
  C   C23       1.0  0.74540  0.12470  0.41200  1.0000
  C   C24       1.0  0.25460  0.62470  0.58800  1.0000
  O   O1        1.0  0.93230  0.54378  0.74920  1.0000
  O   O2        1.0  0.06770  0.04378  0.25080  1.0000
  O   O3        1.0  0.87107  0.35425  0.69673  1.0000
  O   O4        1.0  0.12893  0.85425  0.30327  1.0000
  O   O5        1.0  0.24340  0.00033  0.06670  1.0000
  O   O6        1.0  0.75660  0.50033  0.93330  1.0000
  O   O7        1.0  0.05415  0.04468  0.87143  1.0000
  O   O8        1.0  0.94585  0.54468  0.12857  1.0000
  O   O9        1.0  0.76360  0.22227  0.03970  1.0000
  O   O10       1.0  0.23640  0.72227  0.96030  1.0000
  O   O11       1.0  0.78476  0.19112  0.84306  1.0000
  O   O12       1.0  0.21524  0.69112  0.15694  1.0000
  O   O13       1.0  0.71430  0.81789  0.65520  1.0000
  O   O14       1.0  0.28570  0.31789  0.34480  1.0000
  O   O15       1.0  0.76120  0.01119  0.68490  1.0000
  O   O16       1.0  0.23880  0.51119  0.31510  1.0000
  O   O17       1.0  0.28296  0.17100  0.62110  1.0000
  O   O18       1.0  0.71704  0.67100  0.37890  1.0000
  O   O19       1.0  0.09570  0.21260  0.67856  1.0000
  O   O20       1.0  0.90430  0.71260  0.32144  1.0000
  O   O21       1.0  0.64150  0.13160  0.30180  1.0000
  O   O22       1.0  0.35850  0.63160  0.69820  1.0000
  O   O23       1.0  0.76150  0.19300  0.51473  1.0000
  O   O24       1.0  0.23850  0.69300  0.48527  1.0000
  O   O25       1.0  0.57120  0.38900  0.40540  1.0000
  O   O26       1.0  0.42880  0.88900  0.59460  1.0000
  O   O27       1.0  0.50660  0.34550  0.71190  1.0000
  O   O28       1.0  0.49340  0.84550  0.28810  1.0000
  H   H1        1.0  0.10700  0.44800  0.96600  1.0000
  H   H2        1.0  0.89300  0.94800  0.03400  1.0000
  H   H3        1.0  0.16600  0.39700  0.86400  1.0000
  H   H4        1.0  0.83400  0.89700  0.13600  1.0000
  H   H5        1.0  0.25900  0.23000  0.08400  1.0000
  H   H6        1.0  0.74100  0.73000  0.91600  1.0000
  H   H7        1.0  0.26000  0.22300  0.93900  1.0000
  H   H8        1.0  0.74000  0.72300  0.06100  1.0000
  H   H9        1.0  0.04100  0.21300  0.10600  1.0000
  H   H10       1.0  0.95900  0.71300  0.89400  1.0000
  H   H11       1.0  0.99800  0.34400  0.06500  1.0000
  H   H12       1.0  0.00200  0.84400  0.93500  1.0000
  H   H13       1.0  0.00000  0.86300  0.69200  1.0000
  H   H14       1.0  0.00000  0.36300  0.30800  1.0000
  H   H15       1.0  0.90100  0.83900  0.55500  1.0000
  H   H16       1.0  0.09900  0.33900  0.44500  1.0000
  H   H17       1.0  0.14000  0.98500  0.53900  1.0000
  H   H18       1.0  0.86000  0.48500  0.46100  1.0000
  H   H19       1.0  0.17100  0.97200  0.69400  1.0000
  H   H20       1.0  0.82900  0.47200  0.30600  1.0000
  H   H21       1.0  0.83500  0.96500  0.38000  1.0000
  H   H22       1.0  0.16500  0.46500  0.62000  1.0000
  H   H23       1.0  0.93700  0.08100  0.39400  1.0000
  H   H24       1.0  0.06300  0.58100  0.60600  1.0000
  H   H25       1.0  0.63800  0.32700  0.44800  1.0000
  H   H26       1.0  0.36200  0.82700  0.55200  1.0000
  H   H27       1.0  0.48800  0.35400  0.39900  1.0000
  H   H28       1.0  0.51200  0.85400  0.60100  1.0000
  H   H29       1.0  0.58600  0.30200  0.73600  1.0000
  H   H30       1.0  0.41400  0.80200  0.26400  1.0000
  H   H31       1.0  0.42700  0.28500  0.67300  1.0000
  H   H32       1.0  0.57300  0.78500  0.32700  1.0000
