data_image0
_chemical_formula_structural       Zn4C4N4O8C4O4C4H4C4H4O4C4O4C4H4O4C4H4O4C8H4C8H4C8H4C8H4C4H4C8H4C4H4C12H4C4H4C8H4C4H4C8H12C4H12C4H4
_chemical_formula_sum              "Zn4 C120 N4 O28 H88"
_cell_length_a       14.0797
_cell_length_b       9.0269
_cell_length_c       27.4319
_cell_angle_alpha    90
_cell_angle_beta     91.187
_cell_angle_gamma    90

_space_group_name_H-M_alt    "P 1"
_space_group_IT_number       1

loop_
  _space_group_symop_operation_xyz
  'x, y, z'

loop_
  _atom_site_type_symbol
  _atom_site_label
  _atom_site_symmetry_multiplicity
  _atom_site_fract_x
  _atom_site_fract_y
  _atom_site_fract_z
  _atom_site_occupancy
  Zn  Zn1       1.0  0.91945  0.22109  0.16190  1.0000
  Zn  Zn2       1.0  0.58055  0.72109  0.33810  1.0000
  Zn  Zn3       1.0  0.08055  0.77891  0.83810  1.0000
  Zn  Zn4       1.0  0.41945  0.27891  0.66190  1.0000
  C   C1        1.0  0.00020  0.42060  0.23561  1.0000
  C   C2        1.0  0.49980  0.92060  0.26439  1.0000
  C   C3        1.0  0.99980  0.57940  0.76439  1.0000
  C   C4        1.0  0.50020  0.07940  0.73561  1.0000
  N   N1        1.0  0.82360  0.81240  0.21332  1.0000
  N   N2        1.0  0.67640  0.31240  0.28668  1.0000
  N   N3        1.0  0.17640  0.18760  0.78668  1.0000
  N   N4        1.0  0.32360  0.68760  0.71332  1.0000
  O   O1        1.0  0.93840  0.32750  0.22304  1.0000
  O   O2        1.0  0.56160  0.82750  0.27696  1.0000
  O   O3        1.0  0.06160  0.67250  0.77696  1.0000
  O   O4        1.0  0.43840  0.17250  0.72304  1.0000
  O   O5        1.0  0.06460  0.46710  0.21090  1.0000
  O   O6        1.0  0.43540  0.96710  0.28910  1.0000
  O   O7        1.0  0.93540  0.53290  0.78910  1.0000
  O   O8        1.0  0.56460  0.03290  0.71090  1.0000
  C   C5        1.0  0.99100  0.47790  0.28765  1.0000
  C   C6        1.0  0.50900  0.97790  0.21235  1.0000
  C   C7        1.0  0.00900  0.52210  0.71235  1.0000
  C   C8        1.0  0.49100  0.02210  0.78765  1.0000
  O   O9        1.0  0.41350  0.04650  0.59453  1.0000
  O   O10       1.0  0.08650  0.54650  0.90547  1.0000
  O   O11       1.0  0.58650  0.95350  0.40547  1.0000
  O   O12       1.0  0.91350  0.45350  0.09453  1.0000
  C   C9        1.0  0.04260  0.59820  0.30412  1.0000
  C   C10       1.0  0.45740  0.09820  0.19588  1.0000
  C   C11       1.0  0.95740  0.40180  0.69588  1.0000
  C   C12       1.0  0.54260  0.90180  0.80412  1.0000
  H   H1        1.0  0.08490  0.64480  0.28350  1.0000
  H   H2        1.0  0.41510  0.14480  0.21650  1.0000
  H   H3        1.0  0.91510  0.35520  0.71650  1.0000
  H   H4        1.0  0.58490  0.85520  0.78350  1.0000
  C   C13       1.0  0.03180  0.65040  0.35130  1.0000
  C   C14       1.0  0.46820  0.15040  0.14870  1.0000
  C   C15       1.0  0.96820  0.34960  0.64870  1.0000
  C   C16       1.0  0.53180  0.84960  0.85130  1.0000
  H   H5        1.0  0.06720  0.73180  0.36180  1.0000
  H   H6        1.0  0.43280  0.23180  0.13820  1.0000
  H   H7        1.0  0.93280  0.26820  0.63820  1.0000
  H   H8        1.0  0.56720  0.76820  0.86180  1.0000
  O   O13       1.0  0.30860  0.18840  0.62937  1.0000
  O   O14       1.0  0.19140  0.68840  0.87063  1.0000
  O   O15       1.0  0.69140  0.81160  0.37063  1.0000
  O   O16       1.0  0.80860  0.31160  0.12937  1.0000
  C   C17       1.0  0.96970  0.58430  0.38318  1.0000
  C   C18       1.0  0.53030  0.08430  0.11682  1.0000
  C   C19       1.0  0.03030  0.41570  0.61682  1.0000
  C   C20       1.0  0.46970  0.91570  0.88318  1.0000
  O   O17       1.0  0.54050  0.33700  0.63402  1.0000
  O   O18       1.0  0.95950  0.83700  0.86598  1.0000
  O   O19       1.0  0.45950  0.66300  0.36598  1.0000
  O   O20       1.0  0.04050  0.16300  0.13402  1.0000
  C   C21       1.0  0.92040  0.46020  0.36649  1.0000
  C   C22       1.0  0.57960  0.96020  0.13351  1.0000
  C   C23       1.0  0.07960  0.53980  0.63351  1.0000
  C   C24       1.0  0.42040  0.03980  0.86649  1.0000
  H   H9        1.0  0.88020  0.40980  0.38730  1.0000
  H   H10       1.0  0.61980  0.90980  0.11270  1.0000
  H   H11       1.0  0.11980  0.59020  0.61270  1.0000
  H   H12       1.0  0.38020  0.09020  0.88730  1.0000
  O   O21       1.0  0.44710  0.48280  0.58903  1.0000
  O   O22       1.0  0.05290  0.98280  0.91097  1.0000
  O   O23       1.0  0.55290  0.51720  0.41097  1.0000
  O   O24       1.0  0.94710  0.01720  0.08903  1.0000
  C   C25       1.0  0.93070  0.41120  0.31898  1.0000
  C   C26       1.0  0.56930  0.91120  0.18102  1.0000
  C   C27       1.0  0.06930  0.58880  0.68102  1.0000
  C   C28       1.0  0.43070  0.08880  0.81898  1.0000
  H   H13       1.0  0.89530  0.33020  0.30820  1.0000
  H   H14       1.0  0.60470  0.83020  0.19180  1.0000
  H   H15       1.0  0.10470  0.66980  0.69180  1.0000
  H   H16       1.0  0.39530  0.16980  0.80820  1.0000
  O   O25       1.0  0.86670  0.04670  0.19957  1.0000
  O   O26       1.0  0.63330  0.54670  0.30043  1.0000
  O   O27       1.0  0.13330  0.95330  0.80043  1.0000
  O   O28       1.0  0.36670  0.45330  0.69957  1.0000
  C   C29       1.0  0.96020  0.63720  0.43452  1.0000
  C   C30       1.0  0.53980  0.13720  0.06548  1.0000
  C   C31       1.0  0.03980  0.36280  0.56548  1.0000
  C   C32       1.0  0.46020  0.86280  0.93452  1.0000
  C   C33       1.0  0.03350  0.70830  0.45979  1.0000
  C   C34       1.0  0.46650  0.20830  0.04021  1.0000
  C   C35       1.0  0.96650  0.29170  0.54021  1.0000
  C   C36       1.0  0.53350  0.79170  0.95979  1.0000
  H   H17       1.0  0.09050  0.72560  0.44420  1.0000
  H   H18       1.0  0.40950  0.22560  0.05580  1.0000
  H   H19       1.0  0.90950  0.27440  0.55580  1.0000
  H   H20       1.0  0.59050  0.77440  0.94420  1.0000
  C   C37       1.0  0.02360  0.75420  0.50774  1.0000
  C   C38       1.0  0.47640  0.25420  0.99226  1.0000
  C   C39       1.0  0.97640  0.24580  0.49226  1.0000
  C   C40       1.0  0.52360  0.74580  0.00774  1.0000
  C   C41       1.0  0.93920  0.72480  0.53146  1.0000
  C   C42       1.0  0.56080  0.22480  0.96854  1.0000
  C   C43       1.0  0.06080  0.27520  0.46854  1.0000
  C   C44       1.0  0.43920  0.77520  0.03146  1.0000
  H   H21       1.0  0.93220  0.75420  0.56370  1.0000
  H   H22       1.0  0.56780  0.25420  0.93630  1.0000
  H   H23       1.0  0.06780  0.24580  0.43630  1.0000
  H   H24       1.0  0.43220  0.74580  0.06370  1.0000
  C   C45       1.0  0.86460  0.65110  0.50697  1.0000
  C   C46       1.0  0.63540  0.15110  0.99303  1.0000
  C   C47       1.0  0.13540  0.34890  0.49303  1.0000
  C   C48       1.0  0.36460  0.84890  0.00697  1.0000
  C   C49       1.0  0.87590  0.61190  0.45857  1.0000
  C   C50       1.0  0.62410  0.11190  0.04143  1.0000
  C   C51       1.0  0.12410  0.38810  0.54143  1.0000
  C   C52       1.0  0.37590  0.88810  0.95857  1.0000
  H   H25       1.0  0.82550  0.56720  0.44170  1.0000
  H   H26       1.0  0.67450  0.06720  0.05830  1.0000
  H   H27       1.0  0.17450  0.43280  0.55830  1.0000
  H   H28       1.0  0.32550  0.93280  0.94170  1.0000
  C   C53       1.0  0.10250  0.83470  0.53342  1.0000
  C   C54       1.0  0.39750  0.33470  0.96658  1.0000
  C   C55       1.0  0.89750  0.16530  0.46658  1.0000
  C   C56       1.0  0.60250  0.66530  0.03342  1.0000
  C   C57       1.0  0.08450  0.95330  0.56409  1.0000
  C   C58       1.0  0.41550  0.45330  0.93591  1.0000
  C   C59       1.0  0.91550  0.04670  0.43591  1.0000
  C   C60       1.0  0.58450  0.54670  0.06409  1.0000
  H   H29       1.0  0.02190  0.98090  0.56950  1.0000
  H   H30       1.0  0.47810  0.48090  0.93050  1.0000
  H   H31       1.0  0.97810  0.01910  0.43050  1.0000
  H   H32       1.0  0.52190  0.51910  0.06950  1.0000
  C   C61       1.0  0.15730  0.03130  0.58672  1.0000
  C   C62       1.0  0.34270  0.53130  0.91328  1.0000
  C   C63       1.0  0.84270  0.96870  0.41328  1.0000
  C   C64       1.0  0.65730  0.46870  0.08672  1.0000
  H   H33       1.0  0.14300  0.10900  0.60760  1.0000
  H   H34       1.0  0.35700  0.60900  0.89240  1.0000
  H   H35       1.0  0.85700  0.89100  0.39240  1.0000
  H   H36       1.0  0.64300  0.39100  0.10760  1.0000
  C   C65       1.0  0.25090  0.99560  0.57883  1.0000
  C   C66       1.0  0.24910  0.49560  0.92117  1.0000
  C   C67       1.0  0.74910  0.00440  0.42117  1.0000
  C   C68       1.0  0.75090  0.50440  0.07883  1.0000
  C   C69       1.0  0.26970  0.87340  0.54966  1.0000
  C   C70       1.0  0.23030  0.37340  0.95034  1.0000
  C   C71       1.0  0.73030  0.12660  0.45034  1.0000
  C   C72       1.0  0.76970  0.62660  0.04966  1.0000
  H   H37       1.0  0.33230  0.84380  0.54550  1.0000
  H   H38       1.0  0.16770  0.34380  0.95450  1.0000
  H   H39       1.0  0.66770  0.15620  0.45450  1.0000
  H   H40       1.0  0.83230  0.65620  0.04550  1.0000
  C   C73       1.0  0.19670  0.79480  0.52669  1.0000
  C   C74       1.0  0.30330  0.29480  0.97331  1.0000
  C   C75       1.0  0.80330  0.20520  0.47331  1.0000
  C   C76       1.0  0.69670  0.70520  0.02669  1.0000
  H   H41       1.0  0.21100  0.71490  0.50670  1.0000
  H   H42       1.0  0.28900  0.21490  0.99330  1.0000
  H   H43       1.0  0.78900  0.28510  0.49330  1.0000
  H   H44       1.0  0.71100  0.78510  0.00670  1.0000
  C   C77       1.0  0.33150  0.08150  0.60224  1.0000
  C   C78       1.0  0.16850  0.58150  0.89776  1.0000
  C   C79       1.0  0.66850  0.91850  0.39776  1.0000
  C   C80       1.0  0.83150  0.41850  0.10224  1.0000
  C   C81       1.0  0.77620  0.60790  0.53261  1.0000
  C   C82       1.0  0.72380  0.10790  0.96739  1.0000
  C   C83       1.0  0.22380  0.39210  0.46739  1.0000
  C   C84       1.0  0.27620  0.89210  0.03261  1.0000
  C   C85       1.0  0.78250  0.54040  0.57827  1.0000
  C   C86       1.0  0.71750  0.04040  0.92173  1.0000
  C   C87       1.0  0.21750  0.45960  0.42173  1.0000
  C   C88       1.0  0.28250  0.95960  0.07827  1.0000
  H   H45       1.0  0.84110  0.53430  0.59450  1.0000
  H   H46       1.0  0.65890  0.03430  0.90550  1.0000
  H   H47       1.0  0.15890  0.46570  0.40550  1.0000
  H   H48       1.0  0.34110  0.96570  0.09450  1.0000
  C   C89       1.0  0.70220  0.48210  0.59979  1.0000
  C   C90       1.0  0.79780  0.98210  0.90021  1.0000
  C   C91       1.0  0.29780  0.51790  0.40021  1.0000
  C   C92       1.0  0.20220  0.01790  0.09979  1.0000
  H   H49       1.0  0.70790  0.43400  0.62970  1.0000
  H   H50       1.0  0.79210  0.93400  0.87030  1.0000
  H   H51       1.0  0.29210  0.56600  0.37030  1.0000
  H   H52       1.0  0.20790  0.06600  0.12970  1.0000
  C   C93       1.0  0.61470  0.49460  0.57754  1.0000
  C   C94       1.0  0.88530  0.99460  0.92246  1.0000
  C   C95       1.0  0.38530  0.50540  0.42246  1.0000
  C   C96       1.0  0.11470  0.00540  0.07754  1.0000
  C   C97       1.0  0.60680  0.56760  0.53319  1.0000
  C   C98       1.0  0.89320  0.06760  0.96681  1.0000
  C   C99       1.0  0.39320  0.43240  0.46681  1.0000
  C   C100      1.0  0.10680  0.93240  0.03319  1.0000
  H   H53       1.0  0.54720  0.58150  0.51860  1.0000
  H   H54       1.0  0.95280  0.08150  0.98140  1.0000
  H   H55       1.0  0.45280  0.41850  0.48140  1.0000
  H   H56       1.0  0.04720  0.91850  0.01860  1.0000
  C   C101      1.0  0.68740  0.62010  0.51041  1.0000
  C   C102      1.0  0.81260  0.12010  0.98959  1.0000
  C   C103      1.0  0.31260  0.37990  0.48959  1.0000
  C   C104      1.0  0.18740  0.87990  0.01041  1.0000
  H   H57       1.0  0.68160  0.66400  0.47980  1.0000
  H   H58       1.0  0.81840  0.16400  0.02020  1.0000
  H   H59       1.0  0.31840  0.33600  0.52020  1.0000
  H   H60       1.0  0.18160  0.83600  0.97980  1.0000
  C   C105      1.0  0.52650  0.43600  0.60085  1.0000
  C   C106      1.0  0.97350  0.93600  0.89915  1.0000
  C   C107      1.0  0.47350  0.56400  0.39915  1.0000
  C   C108      1.0  0.02650  0.06400  0.10085  1.0000
  C   C109      1.0  0.79880  0.66730  0.19220  1.0000
  C   C110      1.0  0.70120  0.16730  0.30780  1.0000
  C   C111      1.0  0.20120  0.33270  0.80780  1.0000
  C   C112      1.0  0.29880  0.83270  0.69220  1.0000
  H   H61       1.0  0.80470  0.67120  0.15750  1.0000
  H   H62       1.0  0.69530  0.17120  0.34250  1.0000
  H   H63       1.0  0.19530  0.32880  0.84250  1.0000
  H   H64       1.0  0.30470  0.82880  0.65750  1.0000
  H   H65       1.0  0.73450  0.64290  0.20010  1.0000
  H   H66       1.0  0.76550  0.14290  0.29990  1.0000
  H   H67       1.0  0.26550  0.35710  0.79990  1.0000
  H   H68       1.0  0.23450  0.85710  0.70010  1.0000
  H   H69       1.0  0.84090  0.59320  0.20540  1.0000
  H   H70       1.0  0.65910  0.09320  0.29460  1.0000
  H   H71       1.0  0.15910  0.40680  0.79460  1.0000
  H   H72       1.0  0.34090  0.90680  0.70540  1.0000
  C   C113      1.0  0.81970  0.82390  0.26540  1.0000
  C   C114      1.0  0.68030  0.32390  0.23460  1.0000
  C   C115      1.0  0.18030  0.17610  0.73460  1.0000
  C   C116      1.0  0.31970  0.67610  0.76540  1.0000
  H   H73       1.0  0.83690  0.92260  0.27520  1.0000
  H   H74       1.0  0.66310  0.42260  0.22480  1.0000
  H   H75       1.0  0.16310  0.07740  0.72480  1.0000
  H   H76       1.0  0.33690  0.57740  0.77520  1.0000
  H   H77       1.0  0.86320  0.75440  0.28000  1.0000
  H   H78       1.0  0.63680  0.25440  0.22000  1.0000
  H   H79       1.0  0.13680  0.24560  0.72000  1.0000
  H   H80       1.0  0.36320  0.74560  0.78000  1.0000
  H   H81       1.0  0.75640  0.80270  0.27570  1.0000
  H   H82       1.0  0.74360  0.30270  0.22430  1.0000
  H   H83       1.0  0.24360  0.19730  0.72430  1.0000
  H   H84       1.0  0.25640  0.69730  0.77570  1.0000
  C   C117      1.0  0.84570  0.92440  0.18460  1.0000
  C   C118      1.0  0.65430  0.42440  0.31540  1.0000
  C   C119      1.0  0.15430  0.07560  0.81540  1.0000
  C   C120      1.0  0.34570  0.57560  0.68460  1.0000
  H   H85       1.0  0.84510  0.90850  0.15110  1.0000
  H   H86       1.0  0.65490  0.40850  0.34890  1.0000
  H   H87       1.0  0.15490  0.09150  0.84890  1.0000
  H   H88       1.0  0.34510  0.59150  0.65110  1.0000
