data_image0
_chemical_formula_structural       Nd4Cl16O32C48
_chemical_formula_sum              "Nd4 Cl16 O32 C48"
_cell_length_a       12.4513
_cell_length_b       12.4513
_cell_length_c       20.073
_cell_angle_alpha    90
_cell_angle_beta     90
_cell_angle_gamma    90

_space_group_name_H-M_alt    "P 1"
_space_group_IT_number       1

loop_
  _space_group_symop_operation_xyz
  'x, y, z'

loop_
  _atom_site_type_symbol
  _atom_site_label
  _atom_site_symmetry_multiplicity
  _atom_site_fract_x
  _atom_site_fract_y
  _atom_site_fract_z
  _atom_site_occupancy
  Nd  Nd1       1.0  0.50000  0.50000  0.75000  1.0000
  Nd  Nd2       1.0  0.00000  0.00000  0.25000  1.0000
  Nd  Nd3       1.0  0.50000  0.50000  0.25000  1.0000
  Nd  Nd4       1.0  0.00000  0.00000  0.75000  1.0000
  Cl  Cl1       1.0  0.18010  0.31990  0.60378  1.0000
  Cl  Cl2       1.0  0.81990  0.68010  0.60378  1.0000
  Cl  Cl3       1.0  0.68010  0.18010  0.60378  1.0000
  Cl  Cl4       1.0  0.31990  0.81990  0.60378  1.0000
  Cl  Cl5       1.0  0.81990  0.31990  0.89622  1.0000
  Cl  Cl6       1.0  0.18010  0.68010  0.89622  1.0000
  Cl  Cl7       1.0  0.31990  0.18010  0.89622  1.0000
  Cl  Cl8       1.0  0.68010  0.81990  0.89622  1.0000
  Cl  Cl9       1.0  0.68010  0.81990  0.10378  1.0000
  Cl  Cl10      1.0  0.31990  0.18010  0.10378  1.0000
  Cl  Cl11      1.0  0.18010  0.68010  0.10378  1.0000
  Cl  Cl12      1.0  0.81990  0.31990  0.10378  1.0000
  Cl  Cl13      1.0  0.31990  0.81990  0.39622  1.0000
  Cl  Cl14      1.0  0.68010  0.18010  0.39622  1.0000
  Cl  Cl15      1.0  0.81990  0.68010  0.39622  1.0000
  Cl  Cl16      1.0  0.18010  0.31990  0.39622  1.0000
  O   O1        1.0  0.35240  0.41330  0.68980  1.0000
  O   O2        1.0  0.64760  0.58670  0.68980  1.0000
  O   O3        1.0  0.58670  0.35240  0.68980  1.0000
  O   O4        1.0  0.41330  0.64760  0.68980  1.0000
  O   O5        1.0  0.64760  0.41330  0.81020  1.0000
  O   O6        1.0  0.35240  0.58670  0.81020  1.0000
  O   O7        1.0  0.41330  0.35240  0.81020  1.0000
  O   O8        1.0  0.58670  0.64760  0.81020  1.0000
  O   O9        1.0  0.85240  0.91330  0.18980  1.0000
  O   O10       1.0  0.14760  0.08670  0.18980  1.0000
  O   O11       1.0  0.08670  0.85240  0.18980  1.0000
  O   O12       1.0  0.91330  0.14760  0.18980  1.0000
  O   O13       1.0  0.14760  0.91330  0.31020  1.0000
  O   O14       1.0  0.85240  0.08670  0.31020  1.0000
  O   O15       1.0  0.91330  0.85240  0.31020  1.0000
  O   O16       1.0  0.08670  0.14760  0.31020  1.0000
  O   O17       1.0  0.64760  0.58670  0.31020  1.0000
  O   O18       1.0  0.35240  0.41330  0.31020  1.0000
  O   O19       1.0  0.41330  0.64760  0.31020  1.0000
  O   O20       1.0  0.58670  0.35240  0.31020  1.0000
  O   O21       1.0  0.35240  0.58670  0.18980  1.0000
  O   O22       1.0  0.64760  0.41330  0.18980  1.0000
  O   O23       1.0  0.58670  0.64760  0.18980  1.0000
  O   O24       1.0  0.41330  0.35240  0.18980  1.0000
  O   O25       1.0  0.14760  0.08670  0.81020  1.0000
  O   O26       1.0  0.85240  0.91330  0.81020  1.0000
  O   O27       1.0  0.91330  0.14760  0.81020  1.0000
  O   O28       1.0  0.08670  0.85240  0.81020  1.0000
  O   O29       1.0  0.85240  0.08670  0.68980  1.0000
  O   O30       1.0  0.14760  0.91330  0.68980  1.0000
  O   O31       1.0  0.08670  0.14760  0.68980  1.0000
  O   O32       1.0  0.91330  0.85240  0.68980  1.0000
  C   C1        1.0  0.30150  0.33630  0.71450  1.0000
  C   C2        1.0  0.69850  0.66370  0.71450  1.0000
  C   C3        1.0  0.66370  0.30150  0.71450  1.0000
  C   C4        1.0  0.33630  0.69850  0.71450  1.0000
  C   C5        1.0  0.69850  0.33630  0.78550  1.0000
  C   C6        1.0  0.30150  0.66370  0.78550  1.0000
  C   C7        1.0  0.33630  0.30150  0.78550  1.0000
  C   C8        1.0  0.66370  0.69850  0.78550  1.0000
  C   C9        1.0  0.80150  0.83630  0.21450  1.0000
  C   C10       1.0  0.19850  0.16370  0.21450  1.0000
  C   C11       1.0  0.16370  0.80150  0.21450  1.0000
  C   C12       1.0  0.83630  0.19850  0.21450  1.0000
  C   C13       1.0  0.19850  0.83630  0.28550  1.0000
  C   C14       1.0  0.80150  0.16370  0.28550  1.0000
  C   C15       1.0  0.83630  0.80150  0.28550  1.0000
  C   C16       1.0  0.16370  0.19850  0.28550  1.0000
  C   C17       1.0  0.69850  0.66370  0.28550  1.0000
  C   C18       1.0  0.30150  0.33630  0.28550  1.0000
  C   C19       1.0  0.33630  0.69850  0.28550  1.0000
  C   C20       1.0  0.66370  0.30150  0.28550  1.0000
  C   C21       1.0  0.30150  0.66370  0.21450  1.0000
  C   C22       1.0  0.69850  0.33630  0.21450  1.0000
  C   C23       1.0  0.66370  0.69850  0.21450  1.0000
  C   C24       1.0  0.33630  0.30150  0.21450  1.0000
  C   C25       1.0  0.19850  0.16370  0.78550  1.0000
  C   C26       1.0  0.80150  0.83630  0.78550  1.0000
  C   C27       1.0  0.83630  0.19850  0.78550  1.0000
  C   C28       1.0  0.16370  0.80150  0.78550  1.0000
  C   C29       1.0  0.80150  0.16370  0.71450  1.0000
  C   C30       1.0  0.19850  0.83630  0.71450  1.0000
  C   C31       1.0  0.16370  0.19850  0.71450  1.0000
  C   C32       1.0  0.83630  0.80150  0.71450  1.0000
  C   C33       1.0  0.21930  0.28070  0.68340  1.0000
  C   C34       1.0  0.78070  0.71930  0.68340  1.0000
  C   C35       1.0  0.71930  0.21930  0.68340  1.0000
  C   C36       1.0  0.28070  0.78070  0.68340  1.0000
  C   C37       1.0  0.78070  0.28070  0.81660  1.0000
  C   C38       1.0  0.21930  0.71930  0.81660  1.0000
  C   C39       1.0  0.28070  0.21930  0.81660  1.0000
  C   C40       1.0  0.71930  0.78070  0.81660  1.0000
  C   C41       1.0  0.71930  0.78070  0.18340  1.0000
  C   C42       1.0  0.28070  0.21930  0.18340  1.0000
  C   C43       1.0  0.21930  0.71930  0.18340  1.0000
  C   C44       1.0  0.78070  0.28070  0.18340  1.0000
  C   C45       1.0  0.28070  0.78070  0.31660  1.0000
  C   C46       1.0  0.71930  0.21930  0.31660  1.0000
  C   C47       1.0  0.78070  0.71930  0.31660  1.0000
  C   C48       1.0  0.21930  0.28070  0.31660  1.0000
