data_image0
_chemical_formula_structural       Eu4Cl16O32C48
_chemical_formula_sum              "Eu4 Cl16 O32 C48"
_cell_length_a       12.3159
_cell_length_b       12.3159
_cell_length_c       20.117
_cell_angle_alpha    90
_cell_angle_beta     90
_cell_angle_gamma    90

_space_group_name_H-M_alt    "P 1"
_space_group_IT_number       1

loop_
  _space_group_symop_operation_xyz
  'x, y, z'

loop_
  _atom_site_type_symbol
  _atom_site_label
  _atom_site_symmetry_multiplicity
  _atom_site_fract_x
  _atom_site_fract_y
  _atom_site_fract_z
  _atom_site_occupancy
  Eu  Eu1       1.0  0.50000  0.50000  0.75000  1.0000
  Eu  Eu2       1.0  0.00000  0.00000  0.25000  1.0000
  Eu  Eu3       1.0  0.50000  0.50000  0.25000  1.0000
  Eu  Eu4       1.0  0.00000  0.00000  0.75000  1.0000
  Cl  Cl1       1.0  0.18402  0.31598  0.60315  1.0000
  Cl  Cl2       1.0  0.81598  0.68402  0.60315  1.0000
  Cl  Cl3       1.0  0.68402  0.18402  0.60315  1.0000
  Cl  Cl4       1.0  0.31598  0.81598  0.60315  1.0000
  Cl  Cl5       1.0  0.81598  0.31598  0.89685  1.0000
  Cl  Cl6       1.0  0.18402  0.68402  0.89685  1.0000
  Cl  Cl7       1.0  0.31598  0.18402  0.89685  1.0000
  Cl  Cl8       1.0  0.68402  0.81598  0.89685  1.0000
  Cl  Cl9       1.0  0.68402  0.81598  0.10315  1.0000
  Cl  Cl10      1.0  0.31598  0.18402  0.10315  1.0000
  Cl  Cl11      1.0  0.18402  0.68402  0.10315  1.0000
  Cl  Cl12      1.0  0.81598  0.31598  0.10315  1.0000
  Cl  Cl13      1.0  0.31598  0.81598  0.39685  1.0000
  Cl  Cl14      1.0  0.68402  0.18402  0.39685  1.0000
  Cl  Cl15      1.0  0.81598  0.68402  0.39685  1.0000
  Cl  Cl16      1.0  0.18402  0.31598  0.39685  1.0000
  O   O1        1.0  0.35412  0.41511  0.69053  1.0000
  O   O2        1.0  0.64588  0.58489  0.69053  1.0000
  O   O3        1.0  0.58489  0.35412  0.69053  1.0000
  O   O4        1.0  0.41511  0.64588  0.69053  1.0000
  O   O5        1.0  0.64588  0.41511  0.80947  1.0000
  O   O6        1.0  0.35412  0.58489  0.80947  1.0000
  O   O7        1.0  0.41511  0.35412  0.80947  1.0000
  O   O8        1.0  0.58489  0.64588  0.80947  1.0000
  O   O9        1.0  0.85412  0.91511  0.19053  1.0000
  O   O10       1.0  0.14588  0.08489  0.19053  1.0000
  O   O11       1.0  0.08489  0.85412  0.19053  1.0000
  O   O12       1.0  0.91511  0.14588  0.19053  1.0000
  O   O13       1.0  0.14588  0.91511  0.30947  1.0000
  O   O14       1.0  0.85412  0.08489  0.30947  1.0000
  O   O15       1.0  0.91511  0.85412  0.30947  1.0000
  O   O16       1.0  0.08489  0.14588  0.30947  1.0000
  O   O17       1.0  0.64588  0.58489  0.30947  1.0000
  O   O18       1.0  0.35412  0.41511  0.30947  1.0000
  O   O19       1.0  0.41511  0.64588  0.30947  1.0000
  O   O20       1.0  0.58489  0.35412  0.30947  1.0000
  O   O21       1.0  0.35412  0.58489  0.19053  1.0000
  O   O22       1.0  0.64588  0.41511  0.19053  1.0000
  O   O23       1.0  0.58489  0.64588  0.19053  1.0000
  O   O24       1.0  0.41511  0.35412  0.19053  1.0000
  O   O25       1.0  0.14588  0.08489  0.80947  1.0000
  O   O26       1.0  0.85412  0.91511  0.80947  1.0000
  O   O27       1.0  0.91511  0.14588  0.80947  1.0000
  O   O28       1.0  0.08489  0.85412  0.80947  1.0000
  O   O29       1.0  0.85412  0.08489  0.69053  1.0000
  O   O30       1.0  0.14588  0.91511  0.69053  1.0000
  O   O31       1.0  0.08489  0.14588  0.69053  1.0000
  O   O32       1.0  0.91511  0.85412  0.69053  1.0000
  C   C1        1.0  0.21990  0.28010  0.68310  1.0000
  C   C2        1.0  0.78010  0.71990  0.68310  1.0000
  C   C3        1.0  0.71990  0.21990  0.68310  1.0000
  C   C4        1.0  0.28010  0.78010  0.68310  1.0000
  C   C5        1.0  0.78010  0.28010  0.81690  1.0000
  C   C6        1.0  0.21990  0.71990  0.81690  1.0000
  C   C7        1.0  0.28010  0.21990  0.81690  1.0000
  C   C8        1.0  0.71990  0.78010  0.81690  1.0000
  C   C9        1.0  0.71990  0.78010  0.18310  1.0000
  C   C10       1.0  0.28010  0.21990  0.18310  1.0000
  C   C11       1.0  0.21990  0.71990  0.18310  1.0000
  C   C12       1.0  0.78010  0.28010  0.18310  1.0000
  C   C13       1.0  0.28010  0.78010  0.31690  1.0000
  C   C14       1.0  0.71990  0.21990  0.31690  1.0000
  C   C15       1.0  0.78010  0.71990  0.31690  1.0000
  C   C16       1.0  0.21990  0.28010  0.31690  1.0000
  C   C17       1.0  0.30270  0.33690  0.71454  1.0000
  C   C18       1.0  0.69730  0.66310  0.71454  1.0000
  C   C19       1.0  0.66310  0.30270  0.71454  1.0000
  C   C20       1.0  0.33690  0.69730  0.71454  1.0000
  C   C21       1.0  0.69730  0.33690  0.78546  1.0000
  C   C22       1.0  0.30270  0.66310  0.78546  1.0000
  C   C23       1.0  0.33690  0.30270  0.78546  1.0000
  C   C24       1.0  0.66310  0.69730  0.78546  1.0000
  C   C25       1.0  0.80270  0.83690  0.21454  1.0000
  C   C26       1.0  0.19730  0.16310  0.21454  1.0000
  C   C27       1.0  0.16310  0.80270  0.21454  1.0000
  C   C28       1.0  0.83690  0.19730  0.21454  1.0000
  C   C29       1.0  0.19730  0.83690  0.28546  1.0000
  C   C30       1.0  0.80270  0.16310  0.28546  1.0000
  C   C31       1.0  0.83690  0.80270  0.28546  1.0000
  C   C32       1.0  0.16310  0.19730  0.28546  1.0000
  C   C33       1.0  0.69730  0.66310  0.28546  1.0000
  C   C34       1.0  0.30270  0.33690  0.28546  1.0000
  C   C35       1.0  0.33690  0.69730  0.28546  1.0000
  C   C36       1.0  0.66310  0.30270  0.28546  1.0000
  C   C37       1.0  0.30270  0.66310  0.21454  1.0000
  C   C38       1.0  0.69730  0.33690  0.21454  1.0000
  C   C39       1.0  0.66310  0.69730  0.21454  1.0000
  C   C40       1.0  0.33690  0.30270  0.21454  1.0000
  C   C41       1.0  0.19730  0.16310  0.78546  1.0000
  C   C42       1.0  0.80270  0.83690  0.78546  1.0000
  C   C43       1.0  0.83690  0.19730  0.78546  1.0000
  C   C44       1.0  0.16310  0.80270  0.78546  1.0000
  C   C45       1.0  0.80270  0.16310  0.71454  1.0000
  C   C46       1.0  0.19730  0.83690  0.71454  1.0000
  C   C47       1.0  0.16310  0.19730  0.71454  1.0000
  C   C48       1.0  0.83690  0.80270  0.71454  1.0000
