data_image0
_chemical_formula_structural       U2O18C2N2C2H2O2C2H2O2C4H2C2H2C6H2C12H2N2O2C2O4
_chemical_formula_sum              "U2 O28 C32 N4 H12"
_cell_length_a       9.875
_cell_length_b       11.616
_cell_length_c       13.994
_cell_angle_alpha    112.21
_cell_angle_beta     101.87
_cell_angle_gamma    102.91

_space_group_name_H-M_alt    "P 1"
_space_group_IT_number       1

loop_
  _space_group_symop_operation_xyz
  'x, y, z'

loop_
  _atom_site_type_symbol
  _atom_site_label
  _atom_site_symmetry_multiplicity
  _atom_site_fract_x
  _atom_site_fract_y
  _atom_site_fract_z
  _atom_site_occupancy
  U   U1        1.0  0.56230  0.29188  0.25955  1.0000
  U   U2        1.0  0.43770  0.70812  0.74045  1.0000
  O   O1        1.0  0.52940  0.31400  0.14360  1.0000
  O   O2        1.0  0.47060  0.68600  0.85640  1.0000
  O   O3        1.0  0.80290  0.27880  0.24180  1.0000
  O   O4        1.0  0.19710  0.72120  0.75820  1.0000
  O   O5        1.0  0.59420  0.27470  0.37750  1.0000
  O   O6        1.0  0.40580  0.72530  0.62250  1.0000
  O   O7        1.0  0.53700  0.51300  0.36090  1.0000
  O   O8        1.0  0.46300  0.48700  0.63910  1.0000
  O   O9        1.0  0.61970  0.09330  0.16840  1.0000
  O   O10       1.0  0.38030  0.90670  0.83160  1.0000
  O   O11       1.0  0.76020  0.50720  0.37260  1.0000
  O   O12       1.0  0.23980  0.49280  0.62740  1.0000
  O   O13       1.0  0.90990  0.68460  0.94620  1.0000
  O   O14       1.0  0.09010  0.31540  0.05380  1.0000
  O   O15       1.0  0.73380  0.67180  0.01650  1.0000
  O   O16       1.0  0.26620  0.32820  0.98350  1.0000
  O   O17       1.0  0.17180  0.09430  0.67380  1.0000
  O   O18       1.0  0.82820  0.90570  0.32620  1.0000
  C   C1        1.0  0.09740  0.07890  0.16170  1.0000
  C   C2        1.0  0.90260  0.92110  0.83830  1.0000
  N   N1        1.0  0.84430  0.73470  0.00640  1.0000
  N   N2        1.0  0.15570  0.26530  0.99360  1.0000
  C   C3        1.0  0.79910  0.94180  0.09780  1.0000
  C   C4        1.0  0.20090  0.05820  0.90220  1.0000
  H   H1        1.0  0.69978  0.89563  0.07741  1.0000
  H   H2        1.0  0.30022  0.10437  0.92259  1.0000
  O   O19       1.0  0.18790  0.89630  0.58560  1.0000
  O   O20       1.0  0.81210  0.10370  0.41440  1.0000
  C   C5        1.0  0.89250  0.77700  0.51180  1.0000
  C   C6        1.0  0.10750  0.22300  0.48820  1.0000
  H   H3        1.0  0.95286  0.72814  0.49011  1.0000
  H   H4        1.0  0.04714  0.27186  0.50989  1.0000
  O   O21       1.0  0.48590  0.94420  0.57360  1.0000
  O   O22       1.0  0.51410  0.05580  0.42640  1.0000
  C   C7        1.0  0.85420  0.07870  0.15690  1.0000
  C   C8        1.0  0.14580  0.92130  0.84310  1.0000
  C   C9        1.0  0.04610  0.94280  0.10100  1.0000
  C   C10       1.0  0.95390  0.05720  0.89900  1.0000
  H   H5        1.0  0.10991  0.89708  0.08129  1.0000
  H   H6        1.0  0.89009  0.10292  0.91871  1.0000
  C   C11       1.0  0.00230  0.14640  0.18920  1.0000
  C   C12       1.0  0.99770  0.85360  0.81080  1.0000
  H   H7        1.0  0.03786  0.23758  0.22962  1.0000
  H   H8        1.0  0.96214  0.76242  0.77038  1.0000
  C   C13       1.0  0.89750  0.87690  0.07060  1.0000
  C   C14       1.0  0.10250  0.12310  0.92940  1.0000
  C   C15       1.0  0.74080  0.71500  0.47600  1.0000
  C   C16       1.0  0.25920  0.28500  0.52400  1.0000
  C   C17       1.0  0.65150  0.78850  0.50690  1.0000
  C   C18       1.0  0.34850  0.21150  0.49310  1.0000
  H   H9        1.0  0.55013  0.74897  0.48188  1.0000
  H   H10       1.0  0.44987  0.25103  0.51812  1.0000
  C   C19       1.0  0.75340  0.15400  0.18910  1.0000
  C   C20       1.0  0.24660  0.84600  0.81090  1.0000
  C   C21       1.0  0.67550  0.56910  0.39940  1.0000
  C   C22       1.0  0.32450  0.43090  0.60060  1.0000
  C   C23       1.0  0.95250  0.90970  0.57890  1.0000
  C   C24       1.0  0.04750  0.09030  0.42110  1.0000
  C   C25       1.0  0.71500  0.92060  0.57500  1.0000
  C   C26       1.0  0.28500  0.07940  0.42500  1.0000
  C   C27       1.0  0.11600  0.97640  0.61720  1.0000
  C   C28       1.0  0.88400  0.02360  0.38280  1.0000
  C   C29       1.0  0.86400  0.98320  0.61040  1.0000
  C   C30       1.0  0.13600  0.01680  0.38960  1.0000
  H   H11       1.0  0.90420  0.07359  0.65486  1.0000
  H   H12       1.0  0.09580  0.92641  0.34514  1.0000
  N   N3        1.0  0.61900  0.99970  0.61020  1.0000
  N   N4        1.0  0.38100  0.00030  0.38980  1.0000
  O   O23       1.0  0.67600  0.11330  0.67200  1.0000
  O   O24       1.0  0.32400  0.88670  0.32800  1.0000
  C   C31       1.0  0.26050  0.15470  0.19390  1.0000
  C   C32       1.0  0.73950  0.84530  0.80610  1.0000
  O   O25       1.0  0.30520  0.27610  0.25170  1.0000
  O   O26       1.0  0.69480  0.72390  0.74830  1.0000
  O   O27       1.0  0.34760  0.09330  0.17080  1.0000
  O   O28       1.0  0.65240  0.90670  0.82920  1.0000
