data_image0
_chemical_formula_structural       Mn8Cr8O96C48
_chemical_formula_sum              "Mn8 Cr8 O96 C48"
_cell_length_a       9.0543
_cell_length_b       24.7663
_cell_length_c       33.6047
_cell_angle_alpha    90
_cell_angle_beta     90
_cell_angle_gamma    90

_space_group_name_H-M_alt    "P 1"
_space_group_IT_number       1

loop_
  _space_group_symop_operation_xyz
  'x, y, z'

loop_
  _atom_site_type_symbol
  _atom_site_label
  _atom_site_symmetry_multiplicity
  _atom_site_fract_x
  _atom_site_fract_y
  _atom_site_fract_z
  _atom_site_occupancy
  Mn  Mn1       1.0  0.77406  0.48918  0.78064  1.0000
  Mn  Mn2       1.0  0.27406  0.01082  0.21936  1.0000
  Mn  Mn3       1.0  0.22594  0.98918  0.71936  1.0000
  Mn  Mn4       1.0  0.72594  0.51082  0.28064  1.0000
  Mn  Mn5       1.0  0.27828  0.50373  0.69169  1.0000
  Mn  Mn6       1.0  0.77828  0.99627  0.30831  1.0000
  Mn  Mn7       1.0  0.72172  0.00373  0.80831  1.0000
  Mn  Mn8       1.0  0.22172  0.49627  0.19169  1.0000
  Cr  Cr1       1.0  0.29813  0.48701  0.03163  1.0000
  Cr  Cr2       1.0  0.79813  0.01299  0.96837  1.0000
  Cr  Cr3       1.0  0.70187  0.98701  0.46837  1.0000
  Cr  Cr4       1.0  0.20187  0.51299  0.53163  1.0000
  Cr  Cr5       1.0  0.79935  0.48686  0.94227  1.0000
  Cr  Cr6       1.0  0.29935  0.01314  0.05773  1.0000
  Cr  Cr7       1.0  0.20065  0.98686  0.55773  1.0000
  Cr  Cr8       1.0  0.70065  0.51314  0.44227  1.0000
  O   O1        1.0  0.14670  0.46550  0.57988  1.0000
  O   O2        1.0  0.64670  0.03450  0.42012  1.0000
  O   O3        1.0  0.85330  0.96550  0.92012  1.0000
  O   O4        1.0  0.35330  0.53450  0.07988  1.0000
  O   O5        1.0  0.11000  0.53390  0.02173  1.0000
  O   O6        1.0  0.61000  0.96610  0.97827  1.0000
  O   O7        1.0  0.89000  0.03390  0.47827  1.0000
  O   O8        1.0  0.39000  0.46610  0.52173  1.0000
  O   O9        1.0  0.29870  0.55730  0.57734  1.0000
  O   O10       1.0  0.79870  0.94270  0.42266  1.0000
  O   O11       1.0  0.70130  0.05730  0.92266  1.0000
  O   O12       1.0  0.20130  0.44270  0.07734  1.0000
  O   O13       1.0  0.19920  0.44350  0.98592  1.0000
  O   O14       1.0  0.69920  0.05650  0.01408  1.0000
  O   O15       1.0  0.80080  0.94350  0.51408  1.0000
  O   O16       1.0  0.30080  0.55650  0.48592  1.0000
  O   O17       1.0  0.49720  0.44440  0.02630  1.0000
  O   O18       1.0  0.99720  0.05560  0.97370  1.0000
  O   O19       1.0  0.50280  0.94440  0.47370  1.0000
  O   O20       1.0  0.00280  0.55560  0.52630  1.0000
  O   O21       1.0  0.41520  0.53520  0.99143  1.0000
  O   O22       1.0  0.91520  0.96480  0.00857  1.0000
  O   O23       1.0  0.58480  0.03520  0.50857  1.0000
  O   O24       1.0  0.08480  0.46480  0.49143  1.0000
  O   O25       1.0  0.60930  0.53230  0.95163  1.0000
  O   O26       1.0  0.10930  0.96770  0.04837  1.0000
  O   O27       1.0  0.39070  0.03230  0.54837  1.0000
  O   O28       1.0  0.89070  0.46770  0.45163  1.0000
  O   O29       1.0  0.70160  0.44220  0.98815  1.0000
  O   O30       1.0  0.20160  0.05780  0.01185  1.0000
  O   O31       1.0  0.29840  0.94220  0.51185  1.0000
  O   O32       1.0  0.79840  0.55780  0.48815  1.0000
  O   O33       1.0  0.91040  0.53600  0.98262  1.0000
  O   O34       1.0  0.41040  0.96400  0.01738  1.0000
  O   O35       1.0  0.08960  0.03600  0.51738  1.0000
  O   O36       1.0  0.58960  0.46400  0.48262  1.0000
  O   O37       1.0  0.99630  0.44460  0.94756  1.0000
  O   O38       1.0  0.49630  0.05540  0.05244  1.0000
  O   O39       1.0  0.00370  0.94460  0.55244  1.0000
  O   O40       1.0  0.50370  0.55540  0.44756  1.0000
  O   O41       1.0  0.86140  0.53450  0.89400  1.0000
  O   O42       1.0  0.36140  0.96550  0.10600  1.0000
  O   O43       1.0  0.13860  0.03450  0.60600  1.0000
  O   O44       1.0  0.63860  0.46550  0.39400  1.0000
  O   O45       1.0  0.71420  0.44080  0.89570  1.0000
  O   O46       1.0  0.21420  0.05920  0.10430  1.0000
  O   O47       1.0  0.28580  0.94080  0.60430  1.0000
  O   O48       1.0  0.78580  0.55920  0.39570  1.0000
  O   O49       1.0  0.84930  0.53520  0.82790  1.0000
  O   O50       1.0  0.34930  0.96480  0.17210  1.0000
  O   O51       1.0  0.15070  0.03520  0.67210  1.0000
  O   O52       1.0  0.65070  0.46480  0.32790  1.0000
  O   O53       1.0  0.70050  0.44210  0.82882  1.0000
  O   O54       1.0  0.20050  0.05790  0.17118  1.0000
  O   O55       1.0  0.29950  0.94210  0.67118  1.0000
  O   O56       1.0  0.79950  0.55790  0.32882  1.0000
  O   O57       1.0  0.58860  0.53860  0.77382  1.0000
  O   O58       1.0  0.08860  0.96140  0.22618  1.0000
  O   O59       1.0  0.41140  0.03860  0.72618  1.0000
  O   O60       1.0  0.91140  0.46140  0.27382  1.0000
  O   O61       1.0  0.65970  0.44630  0.73790  1.0000
  O   O62       1.0  0.15970  0.05370  0.26210  1.0000
  O   O63       1.0  0.34030  0.94630  0.76210  1.0000
  O   O64       1.0  0.84030  0.55370  0.23790  1.0000
  O   O65       1.0  0.87420  0.53920  0.73789  1.0000
  O   O66       1.0  0.37420  0.96080  0.26211  1.0000
  O   O67       1.0  0.12580  0.03920  0.76211  1.0000
  O   O68       1.0  0.62580  0.46080  0.23789  1.0000
  O   O69       1.0  0.97400  0.44890  0.77179  1.0000
  O   O70       1.0  0.47400  0.05110  0.22821  1.0000
  O   O71       1.0  0.02600  0.94890  0.72821  1.0000
  O   O72       1.0  0.52600  0.55110  0.27179  1.0000
  O   O73       1.0  0.39680  0.54870  0.73278  1.0000
  O   O74       1.0  0.89680  0.95130  0.26722  1.0000
  O   O75       1.0  0.60320  0.04870  0.76722  1.0000
  O   O76       1.0  0.10320  0.45130  0.23278  1.0000
  O   O77       1.0  0.46460  0.45640  0.69718  1.0000
  O   O78       1.0  0.96460  0.04360  0.30282  1.0000
  O   O79       1.0  0.53540  0.95640  0.80282  1.0000
  O   O80       1.0  0.03540  0.54360  0.19718  1.0000
  O   O81       1.0  0.08100  0.54520  0.70111  1.0000
  O   O82       1.0  0.58100  0.95480  0.29889  1.0000
  O   O83       1.0  0.91900  0.04520  0.79889  1.0000
  O   O84       1.0  0.41900  0.45480  0.20111  1.0000
  O   O85       1.0  0.18060  0.45490  0.73564  1.0000
  O   O86       1.0  0.68060  0.04510  0.26436  1.0000
  O   O87       1.0  0.81940  0.95490  0.76436  1.0000
  O   O88       1.0  0.31940  0.54510  0.23564  1.0000
  O   O89       1.0  0.34090  0.55220  0.64330  1.0000
  O   O90       1.0  0.84090  0.94780  0.35670  1.0000
  O   O91       1.0  0.65910  0.05220  0.85670  1.0000
  O   O92       1.0  0.15910  0.44780  0.14330  1.0000
  O   O93       1.0  0.18820  0.45960  0.64577  1.0000
  O   O94       1.0  0.68820  0.04040  0.35423  1.0000
  O   O95       1.0  0.81180  0.95960  0.85423  1.0000
  O   O96       1.0  0.31180  0.54040  0.14577  1.0000
  C   C1        1.0  0.53030  0.51460  0.97920  1.0000
  C   C2        1.0  0.03030  0.98540  0.02080  1.0000
  C   C3        1.0  0.46970  0.01460  0.52080  1.0000
  C   C4        1.0  0.96970  0.48540  0.47920  1.0000
  C   C5        1.0  0.58120  0.46190  0.00010  1.0000
  C   C6        1.0  0.08120  0.03810  0.99990  1.0000
  C   C7        1.0  0.41880  0.96190  0.49990  1.0000
  C   C8        1.0  0.91880  0.53810  0.50010  1.0000
  C   C9        1.0  0.03010  0.51450  0.99420  1.0000
  C   C10       1.0  0.53010  0.98550  0.00580  1.0000
  C   C11       1.0  0.96990  0.01450  0.50580  1.0000
  C   C12       1.0  0.46990  0.48550  0.49420  1.0000
  C   C13       1.0  0.07930  0.46280  0.97400  1.0000
  C   C14       1.0  0.57930  0.03720  0.02600  1.0000
  C   C15       1.0  0.92070  0.96280  0.52600  1.0000
  C   C16       1.0  0.42070  0.53720  0.47400  1.0000
  C   C17       1.0  0.82460  0.51460  0.86130  1.0000
  C   C18       1.0  0.32460  0.98540  0.13870  1.0000
  C   C19       1.0  0.17540  0.01460  0.63870  1.0000
  C   C20       1.0  0.67540  0.48540  0.36130  1.0000
  C   C21       1.0  0.73800  0.46020  0.86180  1.0000
  C   C22       1.0  0.23800  0.03980  0.13820  1.0000
  C   C23       1.0  0.26200  0.96020  0.63820  1.0000
  C   C24       1.0  0.76200  0.53980  0.36180  1.0000
  C   C25       1.0  0.99910  0.52340  0.72740  1.0000
  C   C26       1.0  0.49910  0.97660  0.27260  1.0000
  C   C27       1.0  0.00090  0.02340  0.77260  1.0000
  C   C28       1.0  0.50090  0.47660  0.22740  1.0000
  C   C29       1.0  0.05910  0.47020  0.74680  1.0000
  C   C30       1.0  0.55910  0.02980  0.25320  1.0000
  C   C31       1.0  0.94090  0.97020  0.75320  1.0000
  C   C32       1.0  0.44090  0.52980  0.24680  1.0000
  C   C33       1.0  0.50800  0.52470  0.74580  1.0000
  C   C34       1.0  0.00800  0.97530  0.25420  1.0000
  C   C35       1.0  0.49200  0.02470  0.75420  1.0000
  C   C36       1.0  0.99200  0.47530  0.24580  1.0000
  C   C37       1.0  0.54760  0.47090  0.72520  1.0000
  C   C38       1.0  0.04760  0.02910  0.27480  1.0000
  C   C39       1.0  0.45240  0.97090  0.77480  1.0000
  C   C40       1.0  0.95240  0.52910  0.22520  1.0000
  C   C41       1.0  0.28930  0.53590  0.61040  1.0000
  C   C42       1.0  0.78930  0.96410  0.38960  1.0000
  C   C43       1.0  0.71070  0.03590  0.88960  1.0000
  C   C44       1.0  0.21070  0.46410  0.11040  1.0000
  C   C45       1.0  0.20060  0.48180  0.61280  1.0000
  C   C46       1.0  0.70060  0.01820  0.38720  1.0000
  C   C47       1.0  0.79940  0.98180  0.88720  1.0000
  C   C48       1.0  0.29940  0.51820  0.11280  1.0000
