data_image0
_chemical_formula_structural       Mn4O4H8N36C24
_chemical_formula_sum              "Mn4 O4 H8 N36 C24"
_cell_length_a       16.9085
_cell_length_b       8.67119
_cell_length_c       13.4009
_cell_angle_alpha    90
_cell_angle_beta     90
_cell_angle_gamma    90

_space_group_name_H-M_alt    "P 1"
_space_group_IT_number       1

loop_
  _space_group_symop_operation_xyz
  'x, y, z'

loop_
  _atom_site_type_symbol
  _atom_site_label
  _atom_site_symmetry_multiplicity
  _atom_site_fract_x
  _atom_site_fract_y
  _atom_site_fract_z
  _atom_site_occupancy
  Mn  Mn1       1.0  0.28208  0.33460  0.61898  1.0000
  Mn  Mn2       1.0  0.71792  0.66540  0.11898  1.0000
  Mn  Mn3       1.0  0.78208  0.16540  0.61898  1.0000
  Mn  Mn4       1.0  0.21792  0.83460  0.11898  1.0000
  O   O1        1.0  0.28403  0.31844  0.78041  1.0000
  O   O2        1.0  0.71597  0.68156  0.28041  1.0000
  O   O3        1.0  0.78403  0.18156  0.78041  1.0000
  O   O4        1.0  0.21597  0.81844  0.28041  1.0000
  H   H1        1.0  0.24484  0.25781  0.80677  1.0000
  H   H2        1.0  0.75516  0.74219  0.30677  1.0000
  H   H3        1.0  0.74484  0.24219  0.80677  1.0000
  H   H4        1.0  0.25516  0.75781  0.30677  1.0000
  H   H5        1.0  0.27386  0.41131  0.80938  1.0000
  H   H6        1.0  0.72614  0.58869  0.30938  1.0000
  H   H7        1.0  0.77386  0.08869  0.80938  1.0000
  H   H8        1.0  0.22614  0.91131  0.30938  1.0000
  N   N1        1.0  0.27842  0.34530  0.44479  1.0000
  N   N2        1.0  0.72158  0.65470  0.94479  1.0000
  N   N3        1.0  0.77842  0.15470  0.44479  1.0000
  N   N4        1.0  0.22158  0.84530  0.94479  1.0000
  N   N5        1.0  0.31835  0.58390  0.35723  1.0000
  N   N6        1.0  0.68165  0.41610  0.85723  1.0000
  N   N7        1.0  0.81835  0.91610  0.35723  1.0000
  N   N8        1.0  0.18165  0.08390  0.85723  1.0000
  N   N9        1.0  0.22833  0.10910  0.36285  1.0000
  N   N10       1.0  0.77167  0.89090  0.86285  1.0000
  N   N11       1.0  0.72833  0.39090  0.36285  1.0000
  N   N12       1.0  0.27167  0.60910  0.86285  1.0000
  N   N13       1.0  0.40960  0.37250  0.60620  1.0000
  N   N14       1.0  0.59040  0.62750  0.10620  1.0000
  N   N15       1.0  0.90960  0.12750  0.60620  1.0000
  N   N16       1.0  0.09040  0.87250  0.10620  1.0000
  N   N17       1.0  0.53443  0.30620  0.52398  1.0000
  N   N18       1.0  0.46557  0.69380  0.02398  1.0000
  N   N19       1.0  0.03443  0.19380  0.52398  1.0000
  N   N20       1.0  0.96557  0.80620  0.02398  1.0000
  N   N21       1.0  0.65455  0.21370  0.60783  1.0000
  N   N22       1.0  0.34545  0.78630  0.10783  1.0000
  N   N23       1.0  0.15455  0.28630  0.60783  1.0000
  N   N24       1.0  0.84545  0.71370  0.10783  1.0000
  N   N25       1.0  0.26083  0.58145  0.61342  1.0000
  N   N26       1.0  0.73917  0.41855  0.11342  1.0000
  N   N27       1.0  0.76083  0.91855  0.61342  1.0000
  N   N28       1.0  0.23917  0.08145  0.11342  1.0000
  N   N29       1.0  0.24176  0.84150  0.54631  1.0000
  N   N30       1.0  0.75824  0.15850  0.04631  1.0000
  N   N31       1.0  0.74176  0.65850  0.54631  1.0000
  N   N32       1.0  0.25824  0.34150  0.04631  1.0000
  N   N33       1.0  0.29950  0.08437  0.60557  1.0000
  N   N34       1.0  0.70050  0.91563  0.10557  1.0000
  N   N35       1.0  0.79950  0.41563  0.60557  1.0000
  N   N36       1.0  0.20050  0.58437  0.10557  1.0000
  C   C1        1.0  0.29921  0.46960  0.39373  1.0000
  C   C2        1.0  0.70079  0.53040  0.89373  1.0000
  C   C3        1.0  0.79921  0.03040  0.39373  1.0000
  C   C4        1.0  0.20079  0.96960  0.89373  1.0000
  C   C5        1.0  0.25218  0.22220  0.39594  1.0000
  C   C6        1.0  0.74782  0.77780  0.89594  1.0000
  C   C7        1.0  0.75218  0.27780  0.39594  1.0000
  C   C8        1.0  0.24782  0.72220  0.89594  1.0000
  C   C9        1.0  0.46947  0.33840  0.57127  1.0000
  C   C10       1.0  0.53053  0.66160  0.07127  1.0000
  C   C11       1.0  0.96947  0.16160  0.57127  1.0000
  C   C12       1.0  0.03053  0.83840  0.07127  1.0000
  C   C13       1.0  0.59699  0.25930  0.57271  1.0000
  C   C14       1.0  0.40301  0.74070  0.07271  1.0000
  C   C15       1.0  0.09699  0.24070  0.57271  1.0000
  C   C16       1.0  0.90301  0.75930  0.07271  1.0000
  C   C17       1.0  0.25501  0.70650  0.58572  1.0000
  C   C18       1.0  0.74499  0.29350  0.08572  1.0000
  C   C19       1.0  0.75501  0.79350  0.58572  1.0000
  C   C20       1.0  0.24499  0.20650  0.08572  1.0000
  C   C21       1.0  0.27367  0.96710  0.58163  1.0000
  C   C22       1.0  0.72633  0.03290  0.08163  1.0000
  C   C23       1.0  0.77367  0.53290  0.58163  1.0000
  C   C24       1.0  0.22633  0.46710  0.08163  1.0000
