data_image0
_chemical_formula_structural       Ni4O4H8N36C24
_chemical_formula_sum              "Ni4 O4 H8 N36 C24"
_cell_length_a       16.8309
_cell_length_b       8.5268
_cell_length_c       13.5078
_cell_angle_alpha    90
_cell_angle_beta     90
_cell_angle_gamma    90

_space_group_name_H-M_alt    "P 1"
_space_group_IT_number       1

loop_
  _space_group_symop_operation_xyz
  'x, y, z'

loop_
  _atom_site_type_symbol
  _atom_site_label
  _atom_site_symmetry_multiplicity
  _atom_site_fract_x
  _atom_site_fract_y
  _atom_site_fract_z
  _atom_site_occupancy
  Ni  Ni1       1.0  0.28128  0.30855  0.61500  1.0000
  Ni  Ni2       1.0  0.71872  0.69145  0.11500  1.0000
  Ni  Ni3       1.0  0.78128  0.19145  0.61500  1.0000
  Ni  Ni4       1.0  0.21872  0.80855  0.11500  1.0000
  O   O1        1.0  0.28810  0.29660  0.76760  1.0000
  O   O2        1.0  0.71190  0.70340  0.26760  1.0000
  O   O3        1.0  0.78810  0.20340  0.76760  1.0000
  O   O4        1.0  0.21190  0.79660  0.26760  1.0000
  H   H1        1.0  0.27249  0.38479  0.79445  1.0000
  H   H2        1.0  0.72751  0.61521  0.29445  1.0000
  H   H3        1.0  0.77249  0.11521  0.79445  1.0000
  H   H4        1.0  0.22751  0.88479  0.29445  1.0000
  H   H5        1.0  0.25328  0.22897  0.79026  1.0000
  H   H6        1.0  0.74672  0.77103  0.29026  1.0000
  H   H7        1.0  0.75328  0.27103  0.79026  1.0000
  H   H8        1.0  0.24672  0.72897  0.29026  1.0000
  N   N1        1.0  0.27590  0.31720  0.45380  1.0000
  N   N2        1.0  0.72410  0.68280  0.95380  1.0000
  N   N3        1.0  0.77590  0.18280  0.45380  1.0000
  N   N4        1.0  0.22410  0.81720  0.95380  1.0000
  N   N5        1.0  0.30920  0.56100  0.36300  1.0000
  N   N6        1.0  0.69080  0.43900  0.86300  1.0000
  N   N7        1.0  0.80920  0.93900  0.36300  1.0000
  N   N8        1.0  0.19080  0.06100  0.86300  1.0000
  N   N9        1.0  0.23030  0.07800  0.36670  1.0000
  N   N10       1.0  0.76970  0.92200  0.86670  1.0000
  N   N11       1.0  0.73030  0.42200  0.36670  1.0000
  N   N12       1.0  0.26970  0.57800  0.86670  1.0000
  N   N13       1.0  0.40220  0.33080  0.60380  1.0000
  N   N14       1.0  0.59780  0.66920  0.10380  1.0000
  N   N15       1.0  0.90220  0.16920  0.60380  1.0000
  N   N16       1.0  0.09780  0.83080  0.10380  1.0000
  N   N17       1.0  0.53590  0.30770  0.53570  1.0000
  N   N18       1.0  0.46410  0.69230  0.03570  1.0000
  N   N19       1.0  0.03590  0.19230  0.53570  1.0000
  N   N20       1.0  0.96410  0.80770  0.03570  1.0000
  N   N21       1.0  0.65870  0.22160  0.61380  1.0000
  N   N22       1.0  0.34130  0.77840  0.11380  1.0000
  N   N23       1.0  0.15870  0.27840  0.61380  1.0000
  N   N24       1.0  0.84130  0.72160  0.11380  1.0000
  N   N25       1.0  0.26710  0.54660  0.61410  1.0000
  N   N26       1.0  0.73290  0.45340  0.11410  1.0000
  N   N27       1.0  0.76710  0.95340  0.61410  1.0000
  N   N28       1.0  0.23290  0.04660  0.11410  1.0000
  N   N29       1.0  0.23680  0.81200  0.56230  1.0000
  N   N30       1.0  0.76320  0.18800  0.06230  1.0000
  N   N31       1.0  0.73680  0.68800  0.56230  1.0000
  N   N32       1.0  0.26320  0.31200  0.06230  1.0000
  N   N33       1.0  0.28890  0.06720  0.60770  1.0000
  N   N34       1.0  0.71110  0.93280  0.10770  1.0000
  N   N35       1.0  0.78890  0.43280  0.60770  1.0000
  N   N36       1.0  0.21110  0.56720  0.10770  1.0000
  C   C1        1.0  0.29330  0.44480  0.40200  1.0000
  C   C2        1.0  0.70670  0.55520  0.90200  1.0000
  C   C3        1.0  0.79330  0.05520  0.40200  1.0000
  C   C4        1.0  0.20670  0.94480  0.90200  1.0000
  C   C5        1.0  0.25210  0.19150  0.40420  1.0000
  C   C6        1.0  0.74790  0.80850  0.90420  1.0000
  C   C7        1.0  0.75210  0.30850  0.40420  1.0000
  C   C8        1.0  0.24790  0.69150  0.90420  1.0000
  C   C9        1.0  0.46540  0.31640  0.57720  1.0000
  C   C10       1.0  0.53460  0.68360  0.07720  1.0000
  C   C11       1.0  0.96540  0.18360  0.57720  1.0000
  C   C12       1.0  0.03460  0.81640  0.07720  1.0000
  C   C13       1.0  0.60010  0.26230  0.58270  1.0000
  C   C14       1.0  0.39990  0.73770  0.08270  1.0000
  C   C15       1.0  0.10010  0.23770  0.58270  1.0000
  C   C16       1.0  0.89990  0.76230  0.08270  1.0000
  C   C17       1.0  0.25710  0.67380  0.59460  1.0000
  C   C18       1.0  0.74290  0.32620  0.09460  1.0000
  C   C19       1.0  0.75710  0.82620  0.59460  1.0000
  C   C20       1.0  0.24290  0.17380  0.09460  1.0000
  C   C21       1.0  0.26740  0.94490  0.59090  1.0000
  C   C22       1.0  0.73260  0.05510  0.09090  1.0000
  C   C23       1.0  0.76740  0.55510  0.59090  1.0000
  C   C24       1.0  0.23260  0.44490  0.09090  1.0000
