data_image0
_chemical_formula_structural       Pb6S6Br6C6O6C6O6C6H6O12C6H6C12
_chemical_formula_sum              "Pb6 S6 Br6 C36 O24 H12"
_cell_length_a       10.1079
_cell_length_b       10.1079
_cell_length_c       21.838
_cell_angle_alpha    90
_cell_angle_beta     90
_cell_angle_gamma    120

_space_group_name_H-M_alt    "P 1"
_space_group_IT_number       1

loop_
  _space_group_symop_operation_xyz
  'x, y, z'

loop_
  _atom_site_type_symbol
  _atom_site_label
  _atom_site_symmetry_multiplicity
  _atom_site_fract_x
  _atom_site_fract_y
  _atom_site_fract_z
  _atom_site_occupancy
  Pb  Pb1       1.0  0.16388  0.05721  0.57855  1.0000
  Pb  Pb2       1.0  0.10667  0.16388  0.41188  1.0000
  Pb  Pb3       1.0  0.05721  0.89333  0.74522  1.0000
  Pb  Pb4       1.0  0.94279  0.10667  0.24522  1.0000
  Pb  Pb5       1.0  0.89333  0.83612  0.91188  1.0000
  Pb  Pb6       1.0  0.83612  0.94279  0.07855  1.0000
  S   S1        1.0  0.57694  0.48846  0.58222  1.0000
  S   S2        1.0  0.08848  0.57694  0.41555  1.0000
  S   S3        1.0  0.48846  0.91152  0.74889  1.0000
  S   S4        1.0  0.51154  0.08848  0.24889  1.0000
  S   S5        1.0  0.91152  0.42306  0.91555  1.0000
  S   S6        1.0  0.42306  0.51154  0.08222  1.0000
  Br  Br1       1.0  0.20155  0.23555  0.69464  1.0000
  Br  Br2       1.0  0.96600  0.20155  0.52797  1.0000
  Br  Br3       1.0  0.23555  0.03400  0.86131  1.0000
  Br  Br4       1.0  0.76445  0.96600  0.36131  1.0000
  Br  Br5       1.0  0.03400  0.79845  0.02797  1.0000
  Br  Br6       1.0  0.79845  0.76445  0.19464  1.0000
  C   C1        1.0  0.81670  0.73550  0.64240  1.0000
  C   C2        1.0  0.08120  0.81670  0.47573  1.0000
  C   C3        1.0  0.73550  0.91880  0.80907  1.0000
  C   C4        1.0  0.26450  0.08120  0.30907  1.0000
  C   C5        1.0  0.91880  0.18330  0.97573  1.0000
  C   C6        1.0  0.18330  0.26450  0.14240  1.0000
  O   O1        1.0  0.93040  0.87040  0.63780  1.0000
  O   O2        1.0  0.06000  0.93040  0.47113  1.0000
  O   O3        1.0  0.87040  0.94000  0.80447  1.0000
  O   O4        1.0  0.12960  0.06000  0.30447  1.0000
  O   O5        1.0  0.94000  0.06960  0.97113  1.0000
  O   O6        1.0  0.06960  0.12960  0.13780  1.0000
  C   C7        1.0  0.71390  0.67850  0.58860  1.0000
  C   C8        1.0  0.03540  0.71390  0.42193  1.0000
  C   C9        1.0  0.67850  0.96460  0.75527  1.0000
  C   C10       1.0  0.32150  0.03540  0.25527  1.0000
  C   C11       1.0  0.96460  0.28610  0.92193  1.0000
  C   C12       1.0  0.28610  0.32150  0.08860  1.0000
  O   O7        1.0  0.78960  0.65630  0.68900  1.0000
  O   O8        1.0  0.13330  0.78960  0.52233  1.0000
  O   O9        1.0  0.65630  0.86670  0.85567  1.0000
  O   O10       1.0  0.34370  0.13330  0.35567  1.0000
  O   O11       1.0  0.86670  0.21040  0.02233  1.0000
  O   O12       1.0  0.21040  0.34370  0.18900  1.0000
  C   C13       1.0  0.71400  0.76010  0.53860  1.0000
  C   C14       1.0  0.95390  0.71400  0.37193  1.0000
  C   C15       1.0  0.76010  0.04610  0.70527  1.0000
  C   C16       1.0  0.23990  0.95390  0.20527  1.0000
  C   C17       1.0  0.04610  0.28600  0.87193  1.0000
  C   C18       1.0  0.28600  0.23990  0.03860  1.0000
  H   H1        1.0  0.78240  0.86380  0.53320  1.0000
  H   H2        1.0  0.91860  0.78240  0.36653  1.0000
  H   H3        1.0  0.86380  0.08140  0.69987  1.0000
  H   H4        1.0  0.13620  0.91860  0.19987  1.0000
  H   H5        1.0  0.08140  0.21760  0.86653  1.0000
  H   H6        1.0  0.21760  0.13620  0.03320  1.0000
  O   O13       1.0  0.34160  0.42840  0.43130  1.0000
  O   O14       1.0  0.91320  0.34160  0.26463  1.0000
  O   O15       1.0  0.42840  0.08680  0.59797  1.0000
  O   O16       1.0  0.57160  0.91320  0.09797  1.0000
  O   O17       1.0  0.08680  0.65840  0.76463  1.0000
  O   O18       1.0  0.65840  0.57160  0.93130  1.0000
  O   O19       1.0  0.33820  0.25800  0.49717  1.0000
  O   O20       1.0  0.08020  0.33820  0.33050  1.0000
  O   O21       1.0  0.25800  0.91980  0.66384  1.0000
  O   O22       1.0  0.74200  0.08020  0.16384  1.0000
  O   O23       1.0  0.91980  0.66180  0.83050  1.0000
  O   O24       1.0  0.66180  0.74200  0.99717  1.0000
  C   C19       1.0  0.59900  0.66960  0.49660  1.0000
  C   C20       1.0  0.92940  0.59900  0.32993  1.0000
  C   C21       1.0  0.66960  0.07060  0.66327  1.0000
  C   C22       1.0  0.33040  0.92940  0.16327  1.0000
  C   C23       1.0  0.07060  0.40100  0.82993  1.0000
  C   C24       1.0  0.40100  0.33040  0.99660  1.0000
  H   H7        1.0  0.58060  0.70810  0.46090  1.0000
  H   H8        1.0  0.87250  0.58060  0.29423  1.0000
  H   H9        1.0  0.70810  0.12750  0.62757  1.0000
  H   H10       1.0  0.29190  0.87250  0.12757  1.0000
  H   H11       1.0  0.12750  0.41940  0.79423  1.0000
  H   H12       1.0  0.41940  0.29190  0.96090  1.0000
  C   C25       1.0  0.39050  0.39370  0.47830  1.0000
  C   C26       1.0  0.99680  0.39050  0.31163  1.0000
  C   C27       1.0  0.39370  0.00320  0.64497  1.0000
  C   C28       1.0  0.60630  0.99680  0.14497  1.0000
  C   C29       1.0  0.00320  0.60950  0.81163  1.0000
  C   C30       1.0  0.60950  0.60630  0.97830  1.0000
  C   C31       1.0  0.51760  0.52070  0.51300  1.0000
  C   C32       1.0  0.99690  0.51760  0.34633  1.0000
  C   C33       1.0  0.52070  0.00310  0.67967  1.0000
  C   C34       1.0  0.47930  0.99690  0.17967  1.0000
  C   C35       1.0  0.00310  0.48240  0.84633  1.0000
  C   C36       1.0  0.48240  0.47930  0.01300  1.0000
