data_image0
_chemical_formula_structural       Mn4P4O4H4O6H2O6H2O2H2O12C6
_chemical_formula_sum              "Mn4 P4 O30 H10 C6"
_cell_length_a       8.8946
_cell_length_b       9.8125
_cell_length_c       12.2507
_cell_angle_alpha    81.742
_cell_angle_beta     71.831
_cell_angle_gamma    72.827

_space_group_name_H-M_alt    "P 1"
_space_group_IT_number       1

loop_
  _space_group_symop_operation_xyz
  'x, y, z'

loop_
  _atom_site_type_symbol
  _atom_site_label
  _atom_site_symmetry_multiplicity
  _atom_site_fract_x
  _atom_site_fract_y
  _atom_site_fract_z
  _atom_site_occupancy
  Mn  Mn1       1.0  0.93886  0.34054  0.71726  1.0000
  Mn  Mn2       1.0  0.06114  0.65946  0.28274  1.0000
  Mn  Mn3       1.0  0.40124  0.95431  0.92639  1.0000
  Mn  Mn4       1.0  0.59876  0.04569  0.07361  1.0000
  P   P1        1.0  0.68817  0.11332  0.77624  1.0000
  P   P2        1.0  0.31183  0.88668  0.22376  1.0000
  P   P3        1.0  0.71856  0.66904  0.81466  1.0000
  P   P4        1.0  0.28144  0.33096  0.18534  1.0000
  O   O1        1.0  0.82230  0.17310  0.78630  1.0000
  O   O2        1.0  0.17770  0.82690  0.21370  1.0000
  O   O3        1.0  0.18230  0.87760  0.98630  1.0000
  O   O4        1.0  0.81770  0.12240  0.01370  1.0000
  H   H1        1.0  0.17860  0.79930  0.96640  1.0000
  H   H2        1.0  0.82140  0.20070  0.03360  1.0000
  H   H3        1.0  0.15580  0.87020  0.05920  1.0000
  H   H4        1.0  0.84420  0.12980  0.94080  1.0000
  O   O5        1.0  0.74620  0.00890  0.68170  1.0000
  O   O6        1.0  0.25380  0.99110  0.31830  1.0000
  O   O7        1.0  0.60840  0.04520  0.89290  1.0000
  O   O8        1.0  0.39160  0.95480  0.10710  1.0000
  O   O9        1.0  0.55100  0.24020  0.74030  1.0000
  O   O10       1.0  0.44900  0.75980  0.25970  1.0000
  H   H5        1.0  0.51180  0.29920  0.78970  1.0000
  H   H6        1.0  0.48820  0.70080  0.21030  1.0000
  O   O11       1.0  0.74040  0.51390  0.79720  1.0000
  O   O12       1.0  0.25960  0.48610  0.20280  1.0000
  O   O13       1.0  0.54860  0.74250  0.88650  1.0000
  O   O14       1.0  0.45140  0.25750  0.11350  1.0000
  O   O15       1.0  0.76150  0.74640  0.69340  1.0000
  O   O16       1.0  0.23850  0.25360  0.30660  1.0000
  H   H7        1.0  0.74030  0.83250  0.70020  1.0000
  H   H8        1.0  0.25970  0.16750  0.29980  1.0000
  O   O17       1.0  0.85020  0.67520  0.87390  1.0000
  O   O18       1.0  0.14980  0.32480  0.12610  1.0000
  H   H9        1.0  0.80570  0.72730  0.92800  1.0000
  H   H10       1.0  0.19430  0.27270  0.07200  1.0000
  O   O19       1.0  0.88800  0.37330  0.55220  1.0000
  O   O20       1.0  0.11200  0.62670  0.44780  1.0000
  O   O21       1.0  0.91780  0.50700  0.38660  1.0000
  O   O22       1.0  0.08220  0.49300  0.61340  1.0000
  O   O23       1.0  0.35140  0.01290  0.75960  1.0000
  O   O24       1.0  0.64860  0.98710  0.24040  1.0000
  O   O25       1.0  0.17890  0.16650  0.67270  1.0000
  O   O26       1.0  0.82110  0.83350  0.32730  1.0000
  O   O27       1.0  0.23170  0.17830  0.94130  1.0000
  O   O28       1.0  0.76830  0.82170  0.05870  1.0000
  O   O29       1.0  0.05860  0.33000  0.85340  1.0000
  O   O30       1.0  0.94140  0.67000  0.14660  1.0000
  C   C1        1.0  0.94350  0.46560  0.48250  1.0000
  C   C2        1.0  0.05650  0.53440  0.51750  1.0000
  C   C3        1.0  0.24050  0.12390  0.75420  1.0000
  C   C4        1.0  0.75950  0.87610  0.24580  1.0000
  C   C5        1.0  0.16960  0.22040  0.86070  1.0000
  C   C6        1.0  0.83040  0.77960  0.13930  1.0000
