data_image0
_chemical_formula_structural       Cd4Cl8O16C8
_chemical_formula_sum              "Cd4 Cl8 O16 C8"
_cell_length_a       8.4937
_cell_length_b       8.2364
_cell_length_c       22.015
_cell_angle_alpha    90
_cell_angle_beta     91.57
_cell_angle_gamma    90

_space_group_name_H-M_alt    "P 1"
_space_group_IT_number       1

loop_
  _space_group_symop_operation_xyz
  'x, y, z'

loop_
  _atom_site_type_symbol
  _atom_site_label
  _atom_site_symmetry_multiplicity
  _atom_site_fract_x
  _atom_site_fract_y
  _atom_site_fract_z
  _atom_site_occupancy
  Cd  Cd1       1.0  0.24393  0.97154  0.40479  1.0000
  Cd  Cd2       1.0  0.75607  0.47154  0.09521  1.0000
  Cd  Cd3       1.0  0.75607  0.02846  0.59521  1.0000
  Cd  Cd4       1.0  0.24393  0.52846  0.90479  1.0000
  Cl  Cl1       1.0  0.26630  0.74390  0.33064  1.0000
  Cl  Cl2       1.0  0.73370  0.24390  0.16936  1.0000
  Cl  Cl3       1.0  0.73370  0.25610  0.66936  1.0000
  Cl  Cl4       1.0  0.26630  0.75610  0.83064  1.0000
  Cl  Cl5       1.0  0.15980  0.20200  0.33618  1.0000
  Cl  Cl6       1.0  0.84020  0.70200  0.16382  1.0000
  Cl  Cl7       1.0  0.84020  0.79800  0.66382  1.0000
  Cl  Cl8       1.0  0.15980  0.29800  0.83618  1.0000
  O   O1        1.0  0.62000  0.16860  0.51280  1.0000
  O   O2        1.0  0.38000  0.66860  0.98720  1.0000
  O   O3        1.0  0.38000  0.83140  0.48720  1.0000
  O   O4        1.0  0.62000  0.33140  0.01280  1.0000
  O   O5        1.0  0.48280  0.10000  0.42967  1.0000
  O   O6        1.0  0.51720  0.60000  0.07033  1.0000
  O   O7        1.0  0.51720  0.90000  0.57033  1.0000
  O   O8        1.0  0.48280  0.40000  0.92967  1.0000
  O   O9        1.0  0.98780  0.13560  0.56090  1.0000
  O   O10       1.0  0.01220  0.63560  0.93910  1.0000
  O   O11       1.0  0.01220  0.86440  0.43910  1.0000
  O   O12       1.0  0.98780  0.36440  0.06090  1.0000
  O   O13       1.0  0.16570  0.12190  0.48930  1.0000
  O   O14       1.0  0.83430  0.62190  0.01070  1.0000
  O   O15       1.0  0.83430  0.87810  0.51070  1.0000
  O   O16       1.0  0.16570  0.37810  0.98930  1.0000
  C   C1        1.0  0.04330  0.07310  0.51420  1.0000
  C   C2        1.0  0.95670  0.57310  0.98580  1.0000
  C   C3        1.0  0.95670  0.92690  0.48580  1.0000
  C   C4        1.0  0.04330  0.42690  0.01420  1.0000
  C   C5        1.0  0.53000  0.07880  0.48440  1.0000
  C   C6        1.0  0.47000  0.57880  0.01560  1.0000
  C   C7        1.0  0.47000  0.92120  0.51560  1.0000
  C   C8        1.0  0.53000  0.42120  0.98440  1.0000
