data_image0
_chemical_formula_structural       Fe4O4Fe4O4Cl4O4Cl4O4Cl4O4Cl4O8C4O4C12
_chemical_formula_sum              "Fe8 O32 Cl16 C16"
_cell_length_a       10.8592
_cell_length_b       13.5867
_cell_length_c       13.63
_cell_angle_alpha    90
_cell_angle_beta     108.379
_cell_angle_gamma    90

_space_group_name_H-M_alt    "P 1"
_space_group_IT_number       1

loop_
  _space_group_symop_operation_xyz
  'x, y, z'

loop_
  _atom_site_type_symbol
  _atom_site_label
  _atom_site_symmetry_multiplicity
  _atom_site_fract_x
  _atom_site_fract_y
  _atom_site_fract_z
  _atom_site_occupancy
  Fe  Fe1       1.0  0.23156  0.58147  0.12209  1.0000
  Fe  Fe2       1.0  0.76844  0.08147  0.37791  1.0000
  Fe  Fe3       1.0  0.76844  0.41853  0.87791  1.0000
  Fe  Fe4       1.0  0.23156  0.91853  0.62209  1.0000
  O   O1        1.0  0.24289  0.57594  0.42092  1.0000
  O   O2        1.0  0.75711  0.07594  0.07908  1.0000
  O   O3        1.0  0.75711  0.42406  0.57908  1.0000
  O   O4        1.0  0.24289  0.92406  0.92092  1.0000
  Fe  Fe5       1.0  0.24156  0.44126  0.49694  1.0000
  Fe  Fe6       1.0  0.75844  0.94126  0.00306  1.0000
  Fe  Fe7       1.0  0.75844  0.55874  0.50306  1.0000
  Fe  Fe8       1.0  0.24156  0.05874  0.99694  1.0000
  O   O5        1.0  0.25535  0.44807  0.20415  1.0000
  O   O6        1.0  0.74465  0.94807  0.29585  1.0000
  O   O7        1.0  0.74465  0.55193  0.79585  1.0000
  O   O8        1.0  0.25535  0.05193  0.70415  1.0000
  Cl  Cl1       1.0  0.21697  0.28328  0.54233  1.0000
  Cl  Cl2       1.0  0.78303  0.78328  0.95767  1.0000
  Cl  Cl3       1.0  0.78303  0.71672  0.45767  1.0000
  Cl  Cl4       1.0  0.21697  0.21672  0.04233  1.0000
  O   O9        1.0  0.15391  0.50971  0.59102  1.0000
  O   O10       1.0  0.84609  0.00971  0.90898  1.0000
  O   O11       1.0  0.84609  0.49029  0.40898  1.0000
  O   O12       1.0  0.15391  0.99029  0.09102  1.0000
  Cl  Cl5       1.0  0.43445  0.57752  0.11628  1.0000
  Cl  Cl6       1.0  0.56555  0.07752  0.38372  1.0000
  Cl  Cl7       1.0  0.56555  0.42248  0.88372  1.0000
  Cl  Cl8       1.0  0.43445  0.92248  0.61628  1.0000
  O   O13       1.0  0.24952  0.63220  0.26752  1.0000
  O   O14       1.0  0.75048  0.13220  0.23248  1.0000
  O   O15       1.0  0.75048  0.36780  0.73248  1.0000
  O   O16       1.0  0.24952  0.86780  0.76752  1.0000
  Cl  Cl9       1.0  0.44011  0.46873  0.60772  1.0000
  Cl  Cl10      1.0  0.55989  0.96873  0.89228  1.0000
  Cl  Cl11      1.0  0.55989  0.53127  0.39228  1.0000
  Cl  Cl12      1.0  0.44011  0.03127  0.10772  1.0000
  O   O17       1.0  0.26830  0.39287  0.36249  1.0000
  O   O18       1.0  0.73170  0.89287  0.13751  1.0000
  O   O19       1.0  0.73170  0.60713  0.63751  1.0000
  O   O20       1.0  0.26830  0.10713  0.86249  1.0000
  Cl  Cl13      1.0  0.16809  0.73373  0.05746  1.0000
  Cl  Cl14      1.0  0.83191  0.23373  0.44254  1.0000
  Cl  Cl15      1.0  0.83191  0.26627  0.94254  1.0000
  Cl  Cl16      1.0  0.16809  0.76627  0.55746  1.0000
  O   O21       1.0  0.03050  0.55662  0.11925  1.0000
  O   O22       1.0  0.96950  0.05662  0.38075  1.0000
  O   O23       1.0  0.96950  0.44338  0.88075  1.0000
  O   O24       1.0  0.03050  0.94338  0.61925  1.0000
  O   O25       1.0  0.84550  0.49443  0.01294  1.0000
  O   O26       1.0  0.15450  0.99443  0.48706  1.0000
  O   O27       1.0  0.15450  0.50557  0.98706  1.0000
  O   O28       1.0  0.84550  0.00557  0.51294  1.0000
  C   C1        1.0  0.25960  0.45924  0.29590  1.0000
  C   C2        1.0  0.74040  0.95924  0.20410  1.0000
  C   C3        1.0  0.74040  0.54076  0.70410  1.0000
  C   C4        1.0  0.25960  0.04076  0.79590  1.0000
  O   O29       1.0  0.95977  0.55742  0.59951  1.0000
  O   O30       1.0  0.04023  0.05742  0.90049  1.0000
  O   O31       1.0  0.04023  0.44258  0.40049  1.0000
  O   O32       1.0  0.95977  0.94258  0.09951  1.0000
  C   C5        1.0  0.03240  0.51959  0.55560  1.0000
  C   C6        1.0  0.96760  0.01959  0.94440  1.0000
  C   C7        1.0  0.96760  0.48041  0.44440  1.0000
  C   C8        1.0  0.03240  0.98041  0.05560  1.0000
  C   C9        1.0  0.96410  0.51460  0.03800  1.0000
  C   C10       1.0  0.03590  0.01460  0.46200  1.0000
  C   C11       1.0  0.03590  0.48540  0.96200  1.0000
  C   C12       1.0  0.96410  0.98540  0.53800  1.0000
  C   C13       1.0  0.25100  0.56580  0.33280  1.0000
  C   C14       1.0  0.74900  0.06580  0.16720  1.0000
  C   C15       1.0  0.74900  0.43420  0.66720  1.0000
  C   C16       1.0  0.25100  0.93420  0.83280  1.0000
