data_image0
_chemical_formula_structural       Mo16P16C16O88H32
_chemical_formula_sum              "Mo16 P16 C16 O88 H32"
_cell_length_a       25.6
_cell_length_b       10.016
_cell_length_c       9.635
_cell_angle_alpha    90
_cell_angle_beta     90
_cell_angle_gamma    90

_space_group_name_H-M_alt    "P 1"
_space_group_IT_number       1

loop_
  _space_group_symop_operation_xyz
  'x, y, z'

loop_
  _atom_site_type_symbol
  _atom_site_label
  _atom_site_symmetry_multiplicity
  _atom_site_fract_x
  _atom_site_fract_y
  _atom_site_fract_z
  _atom_site_occupancy
  Mo  Mo1       1.0  0.10070  0.37768  0.14451  1.0000
  Mo  Mo2       1.0  0.60070  0.87768  0.14451  1.0000
  Mo  Mo3       1.0  0.89930  0.87768  0.35549  1.0000
  Mo  Mo4       1.0  0.89930  0.12232  0.64451  1.0000
  Mo  Mo5       1.0  0.39930  0.37768  0.35549  1.0000
  Mo  Mo6       1.0  0.39930  0.62232  0.64451  1.0000
  Mo  Mo7       1.0  0.10070  0.62232  0.85549  1.0000
  Mo  Mo8       1.0  0.60070  0.12232  0.85549  1.0000
  Mo  Mo9       1.0  0.89930  0.62232  0.85549  1.0000
  Mo  Mo10      1.0  0.39930  0.12232  0.85549  1.0000
  Mo  Mo11      1.0  0.10070  0.12232  0.64451  1.0000
  Mo  Mo12      1.0  0.10070  0.87768  0.35549  1.0000
  Mo  Mo13      1.0  0.60070  0.62232  0.64451  1.0000
  Mo  Mo14      1.0  0.60070  0.37768  0.35549  1.0000
  Mo  Mo15      1.0  0.89930  0.37768  0.14451  1.0000
  Mo  Mo16      1.0  0.39930  0.87768  0.14451  1.0000
  P   P1        1.0  0.17286  0.16339  0.35357  1.0000
  P   P2        1.0  0.67286  0.66339  0.35357  1.0000
  P   P3        1.0  0.82714  0.66339  0.14643  1.0000
  P   P4        1.0  0.82714  0.33661  0.85357  1.0000
  P   P5        1.0  0.32714  0.16339  0.14643  1.0000
  P   P6        1.0  0.32714  0.83661  0.85357  1.0000
  P   P7        1.0  0.17286  0.83661  0.64643  1.0000
  P   P8        1.0  0.67286  0.33661  0.64643  1.0000
  P   P9        1.0  0.82714  0.83661  0.64643  1.0000
  P   P10       1.0  0.32714  0.33661  0.64643  1.0000
  P   P11       1.0  0.17286  0.33661  0.85357  1.0000
  P   P12       1.0  0.17286  0.66339  0.14643  1.0000
  P   P13       1.0  0.67286  0.83661  0.85357  1.0000
  P   P14       1.0  0.67286  0.16339  0.14643  1.0000
  P   P15       1.0  0.82714  0.16339  0.35357  1.0000
  P   P16       1.0  0.32714  0.66339  0.35357  1.0000
  C   C1        1.0  0.24240  0.17460  0.32660  1.0000
  C   C2        1.0  0.74240  0.67460  0.32660  1.0000
  C   C3        1.0  0.75760  0.67460  0.17340  1.0000
  C   C4        1.0  0.75760  0.32540  0.82660  1.0000
  C   C5        1.0  0.25760  0.17460  0.17340  1.0000
  C   C6        1.0  0.25760  0.82540  0.82660  1.0000
  C   C7        1.0  0.24240  0.82540  0.67340  1.0000
  C   C8        1.0  0.74240  0.32540  0.67340  1.0000
  C   C9        1.0  0.75760  0.82540  0.67340  1.0000
  C   C10       1.0  0.25760  0.32540  0.67340  1.0000
  C   C11       1.0  0.24240  0.32540  0.82660  1.0000
  C   C12       1.0  0.24240  0.67460  0.17340  1.0000
  C   C13       1.0  0.74240  0.82540  0.82660  1.0000
  C   C14       1.0  0.74240  0.17460  0.17340  1.0000
  C   C15       1.0  0.75760  0.17460  0.32660  1.0000
  C   C16       1.0  0.25760  0.67460  0.32660  1.0000
  O   O1        1.0  0.07990  0.50000  0.00000  1.0000
  O   O2        1.0  0.57990  0.00000  0.00000  1.0000
  O   O3        1.0  0.92010  0.00000  0.50000  1.0000
  O   O4        1.0  0.42010  0.50000  0.50000  1.0000
  O   O5        1.0  0.92010  0.50000  0.00000  1.0000
  O   O6        1.0  0.42010  0.00000  0.00000  1.0000
  O   O7        1.0  0.07990  0.00000  0.50000  1.0000
  O   O8        1.0  0.57990  0.50000  0.50000  1.0000
  O   O9        1.0  0.06839  0.23790  0.08670  1.0000
  O   O10       1.0  0.56839  0.73790  0.08670  1.0000
  O   O11       1.0  0.93161  0.73790  0.41330  1.0000
  O   O12       1.0  0.93161  0.26210  0.58670  1.0000
  O   O13       1.0  0.43161  0.23790  0.41330  1.0000
  O   O14       1.0  0.43161  0.76210  0.58670  1.0000
  O   O15       1.0  0.06839  0.76210  0.91330  1.0000
  O   O16       1.0  0.56839  0.26210  0.91330  1.0000
  O   O17       1.0  0.93161  0.76210  0.91330  1.0000
  O   O18       1.0  0.43161  0.26210  0.91330  1.0000
  O   O19       1.0  0.06839  0.26210  0.58670  1.0000
  O   O20       1.0  0.06839  0.73790  0.41330  1.0000
  O   O21       1.0  0.56839  0.76210  0.58670  1.0000
  O   O22       1.0  0.56839  0.23790  0.41330  1.0000
  O   O23       1.0  0.93161  0.23790  0.08670  1.0000
  O   O24       1.0  0.43161  0.73790  0.08670  1.0000
  O   O25       1.0  0.05803  0.43280  0.26840  1.0000
  O   O26       1.0  0.55803  0.93280  0.26840  1.0000
  O   O27       1.0  0.94197  0.93280  0.23160  1.0000
  O   O28       1.0  0.94197  0.06720  0.76840  1.0000
  O   O29       1.0  0.44197  0.43280  0.23160  1.0000
  O   O30       1.0  0.44197  0.56720  0.76840  1.0000
  O   O31       1.0  0.05803  0.56720  0.73160  1.0000
  O   O32       1.0  0.55803  0.06720  0.73160  1.0000
  O   O33       1.0  0.94197  0.56720  0.73160  1.0000
  O   O34       1.0  0.44197  0.06720  0.73160  1.0000
  O   O35       1.0  0.05803  0.06720  0.76840  1.0000
  O   O36       1.0  0.05803  0.93280  0.23160  1.0000
  O   O37       1.0  0.55803  0.56720  0.76840  1.0000
  O   O38       1.0  0.55803  0.43280  0.23160  1.0000
  O   O39       1.0  0.94197  0.43280  0.26840  1.0000
  O   O40       1.0  0.44197  0.93280  0.26840  1.0000
  O   O41       1.0  0.14675  0.28490  0.28440  1.0000
  O   O42       1.0  0.64675  0.78490  0.28440  1.0000
  O   O43       1.0  0.85325  0.78490  0.21560  1.0000
  O   O44       1.0  0.85325  0.21510  0.78440  1.0000
  O   O45       1.0  0.35325  0.28490  0.21560  1.0000
  O   O46       1.0  0.35325  0.71510  0.78440  1.0000
  O   O47       1.0  0.14675  0.71510  0.71560  1.0000
  O   O48       1.0  0.64675  0.21510  0.71560  1.0000
  O   O49       1.0  0.85325  0.71510  0.71560  1.0000
  O   O50       1.0  0.35325  0.21510  0.71560  1.0000
  O   O51       1.0  0.14675  0.21510  0.78440  1.0000
  O   O52       1.0  0.14675  0.78490  0.21560  1.0000
  O   O53       1.0  0.64675  0.71510  0.78440  1.0000
  O   O54       1.0  0.64675  0.28490  0.21560  1.0000
  O   O55       1.0  0.85325  0.28490  0.28440  1.0000
  O   O56       1.0  0.35325  0.78490  0.28440  1.0000
  O   O57       1.0  0.15338  0.03460  0.28860  1.0000
  O   O58       1.0  0.65338  0.53460  0.28860  1.0000
  O   O59       1.0  0.84662  0.53460  0.21140  1.0000
  O   O60       1.0  0.84662  0.46540  0.78860  1.0000
  O   O61       1.0  0.34662  0.03460  0.21140  1.0000
  O   O62       1.0  0.34662  0.96540  0.78860  1.0000
  O   O63       1.0  0.15338  0.96540  0.71140  1.0000
  O   O64       1.0  0.65338  0.46540  0.71140  1.0000
  O   O65       1.0  0.84662  0.96540  0.71140  1.0000
  O   O66       1.0  0.34662  0.46540  0.71140  1.0000
  O   O67       1.0  0.15338  0.46540  0.78860  1.0000
  O   O68       1.0  0.15338  0.53460  0.21140  1.0000
  O   O69       1.0  0.65338  0.96540  0.78860  1.0000
  O   O70       1.0  0.65338  0.03460  0.21140  1.0000
  O   O71       1.0  0.84662  0.03460  0.28860  1.0000
  O   O72       1.0  0.34662  0.53460  0.28860  1.0000
  O   O73       1.0  0.16479  0.16880  0.50960  1.0000
  O   O74       1.0  0.66479  0.66880  0.50960  1.0000
  O   O75       1.0  0.83521  0.66880  0.99040  1.0000
  O   O76       1.0  0.83521  0.33120  0.00960  1.0000
  O   O77       1.0  0.33521  0.16880  0.99040  1.0000
  O   O78       1.0  0.33521  0.83120  0.00960  1.0000
  O   O79       1.0  0.16479  0.83120  0.49040  1.0000
  O   O80       1.0  0.66479  0.33120  0.49040  1.0000
  O   O81       1.0  0.83521  0.83120  0.49040  1.0000
  O   O82       1.0  0.33521  0.33120  0.49040  1.0000
  O   O83       1.0  0.16479  0.33120  0.00960  1.0000
  O   O84       1.0  0.16479  0.66880  0.99040  1.0000
  O   O85       1.0  0.66479  0.83120  0.00960  1.0000
  O   O86       1.0  0.66479  0.16880  0.99040  1.0000
  O   O87       1.0  0.83521  0.16880  0.50960  1.0000
  O   O88       1.0  0.33521  0.66880  0.50960  1.0000
  H   H1        1.0  0.25700  0.25500  0.36100  1.0000
  H   H2        1.0  0.75700  0.75500  0.36100  1.0000
  H   H3        1.0  0.74300  0.75500  0.13900  1.0000
  H   H4        1.0  0.74300  0.24500  0.86100  1.0000
  H   H5        1.0  0.24300  0.25500  0.13900  1.0000
  H   H6        1.0  0.24300  0.74500  0.86100  1.0000
  H   H7        1.0  0.25700  0.74500  0.63900  1.0000
  H   H8        1.0  0.75700  0.24500  0.63900  1.0000
  H   H9        1.0  0.74300  0.74500  0.63900  1.0000
  H   H10       1.0  0.24300  0.24500  0.63900  1.0000
  H   H11       1.0  0.25700  0.24500  0.86100  1.0000
  H   H12       1.0  0.25700  0.75500  0.13900  1.0000
  H   H13       1.0  0.75700  0.74500  0.86100  1.0000
  H   H14       1.0  0.75700  0.25500  0.13900  1.0000
  H   H15       1.0  0.74300  0.25500  0.36100  1.0000
  H   H16       1.0  0.24300  0.75500  0.36100  1.0000
  H   H17       1.0  0.25900  0.09700  0.36200  1.0000
  H   H18       1.0  0.75900  0.59700  0.36200  1.0000
  H   H19       1.0  0.74100  0.59700  0.13800  1.0000
  H   H20       1.0  0.74100  0.40300  0.86200  1.0000
  H   H21       1.0  0.24100  0.09700  0.13800  1.0000
  H   H22       1.0  0.24100  0.90300  0.86200  1.0000
  H   H23       1.0  0.25900  0.90300  0.63800  1.0000
  H   H24       1.0  0.75900  0.40300  0.63800  1.0000
  H   H25       1.0  0.74100  0.90300  0.63800  1.0000
  H   H26       1.0  0.24100  0.40300  0.63800  1.0000
  H   H27       1.0  0.25900  0.40300  0.86200  1.0000
  H   H28       1.0  0.25900  0.59700  0.13800  1.0000
  H   H29       1.0  0.75900  0.90300  0.86200  1.0000
  H   H30       1.0  0.75900  0.09700  0.13800  1.0000
  H   H31       1.0  0.74100  0.09700  0.36200  1.0000
  H   H32       1.0  0.24100  0.59700  0.36200  1.0000
