data_image0
_chemical_formula_structural       Co4O28H8C8H4C8H4C8H4C12
_chemical_formula_sum              "Co4 O28 H20 C36"
_cell_length_a       11.279
_cell_length_b       10.679
_cell_length_c       15.428
_cell_angle_alpha    90
_cell_angle_beta     95.276
_cell_angle_gamma    90

_space_group_name_H-M_alt    "P 1"
_space_group_IT_number       1

loop_
  _space_group_symop_operation_xyz
  'x, y, z'

loop_
  _atom_site_type_symbol
  _atom_site_label
  _atom_site_symmetry_multiplicity
  _atom_site_fract_x
  _atom_site_fract_y
  _atom_site_fract_z
  _atom_site_occupancy
  Co  Co1       1.0  0.84900  0.54034  0.01117  1.0000
  Co  Co2       1.0  0.65100  0.04034  0.48883  1.0000
  Co  Co3       1.0  0.15100  0.45966  0.98883  1.0000
  Co  Co4       1.0  0.34900  0.95966  0.51117  1.0000
  O   O1        1.0  0.91110  0.41260  0.09665  1.0000
  O   O2        1.0  0.58890  0.91260  0.40335  1.0000
  O   O3        1.0  0.08890  0.58740  0.90335  1.0000
  O   O4        1.0  0.41110  0.08740  0.59665  1.0000
  O   O5        1.0  0.10980  0.38740  0.10118  1.0000
  O   O6        1.0  0.39020  0.88740  0.39882  1.0000
  O   O7        1.0  0.89020  0.61260  0.89882  1.0000
  O   O8        1.0  0.60980  0.11260  0.60118  1.0000
  O   O9        1.0  0.22750  0.07870  0.44710  1.0000
  O   O10       1.0  0.27250  0.57870  0.05290  1.0000
  O   O11       1.0  0.77250  0.92130  0.55290  1.0000
  O   O12       1.0  0.72750  0.42130  0.94710  1.0000
  O   O13       1.0  0.32450  0.15050  0.33640  1.0000
  O   O14       1.0  0.17550  0.65050  0.16360  1.0000
  O   O15       1.0  0.67550  0.84950  0.66360  1.0000
  O   O16       1.0  0.82450  0.34950  0.83640  1.0000
  O   O17       1.0  0.78640  0.11890  0.43131  1.0000
  O   O18       1.0  0.71360  0.61890  0.06869  1.0000
  O   O19       1.0  0.21360  0.88110  0.56869  1.0000
  O   O20       1.0  0.28640  0.38110  0.93131  1.0000
  O   O21       1.0  0.70620  0.27900  0.35090  1.0000
  O   O22       1.0  0.79380  0.77900  0.14910  1.0000
  O   O23       1.0  0.29380  0.72100  0.64910  1.0000
  O   O24       1.0  0.20620  0.22100  0.85090  1.0000
  O   O25       1.0  0.96790  0.67890  0.06840  1.0000
  O   O26       1.0  0.53210  0.17890  0.43160  1.0000
  O   O27       1.0  0.03210  0.32110  0.93160  1.0000
  O   O28       1.0  0.46790  0.82110  0.56840  1.0000
  H   H1        1.0  0.03500  0.66400  0.10000  1.0000
  H   H2        1.0  0.46500  0.16400  0.40000  1.0000
  H   H3        1.0  0.96500  0.33600  0.90000  1.0000
  H   H4        1.0  0.53500  0.83600  0.60000  1.0000
  H   H5        1.0  0.92200  0.72100  0.09200  1.0000
  H   H6        1.0  0.57800  0.22100  0.40800  1.0000
  H   H7        1.0  0.07800  0.27900  0.90800  1.0000
  H   H8        1.0  0.42200  0.77900  0.59200  1.0000
  C   C1        1.0  0.01080  0.29980  0.21410  1.0000
  C   C2        1.0  0.48920  0.79980  0.28590  1.0000
  C   C3        1.0  0.98920  0.70020  0.78590  1.0000
  C   C4        1.0  0.51080  0.20020  0.71410  1.0000
  C   C5        1.0  0.11580  0.25040  0.25420  1.0000
  C   C6        1.0  0.38420  0.75040  0.24580  1.0000
  C   C7        1.0  0.88420  0.74960  0.74580  1.0000
  C   C8        1.0  0.61580  0.24960  0.75420  1.0000
  H   H9        1.0  0.18660  0.26170  0.22870  1.0000
  H   H10       1.0  0.31340  0.76170  0.27130  1.0000
  H   H11       1.0  0.81340  0.73830  0.77130  1.0000
  H   H12       1.0  0.68660  0.23830  0.72870  1.0000
  C   C9        1.0  0.11660  0.18440  0.33180  1.0000
  C   C10       1.0  0.38340  0.68440  0.16820  1.0000
  C   C11       1.0  0.88340  0.81560  0.66820  1.0000
  C   C12       1.0  0.61660  0.31560  0.83180  1.0000
  C   C13       1.0  0.01020  0.16670  0.36920  1.0000
  C   C14       1.0  0.48980  0.66670  0.13080  1.0000
  C   C15       1.0  0.98980  0.83330  0.63080  1.0000
  C   C16       1.0  0.51020  0.33330  0.86920  1.0000
  H   H13       1.0  0.01010  0.12000  0.42010  1.0000
  H   H14       1.0  0.48990  0.62000  0.07990  1.0000
  H   H15       1.0  0.98990  0.88000  0.57990  1.0000
  H   H16       1.0  0.51010  0.38000  0.92010  1.0000
  C   C17       1.0  0.90350  0.21770  0.33160  1.0000
  C   C18       1.0  0.59650  0.71770  0.16840  1.0000
  C   C19       1.0  0.09650  0.78230  0.66840  1.0000
  C   C20       1.0  0.40350  0.28230  0.83160  1.0000
  C   C21       1.0  0.90490  0.28240  0.25320  1.0000
  C   C22       1.0  0.59510  0.78240  0.24680  1.0000
  C   C23       1.0  0.09510  0.71760  0.74680  1.0000
  C   C24       1.0  0.40490  0.21760  0.75320  1.0000
  H   H17       1.0  0.83420  0.31460  0.22640  1.0000
  H   H18       1.0  0.66580  0.81460  0.27360  1.0000
  H   H19       1.0  0.16580  0.68540  0.77360  1.0000
  H   H20       1.0  0.33420  0.18540  0.72640  1.0000
  C   C25       1.0  0.00970  0.37150  0.12990  1.0000
  C   C26       1.0  0.49030  0.87150  0.37010  1.0000
  C   C27       1.0  0.99030  0.62850  0.87010  1.0000
  C   C28       1.0  0.50970  0.12850  0.62990  1.0000
  C   C29       1.0  0.23290  0.13480  0.37440  1.0000
  C   C30       1.0  0.26710  0.63480  0.12560  1.0000
  C   C31       1.0  0.76710  0.86520  0.62560  1.0000
  C   C32       1.0  0.73290  0.36520  0.87440  1.0000
  C   C33       1.0  0.78800  0.20480  0.37360  1.0000
  C   C34       1.0  0.71200  0.70480  0.12640  1.0000
  C   C35       1.0  0.21200  0.79520  0.62640  1.0000
  C   C36       1.0  0.28800  0.29520  0.87360  1.0000
