data_image0
_chemical_formula_structural       C4Ga8O20H4O20H4O16P12
_chemical_formula_sum              "C4 Ga8 O56 H8 P12"
_cell_length_a       8.9044
_cell_length_b       28.036
_cell_length_c       8.1727
_cell_angle_alpha    90
_cell_angle_beta     100.74
_cell_angle_gamma    90

_space_group_name_H-M_alt    "P 1"
_space_group_IT_number       1

loop_
  _space_group_symop_operation_xyz
  'x, y, z'

loop_
  _atom_site_type_symbol
  _atom_site_label
  _atom_site_symmetry_multiplicity
  _atom_site_fract_x
  _atom_site_fract_y
  _atom_site_fract_z
  _atom_site_occupancy
  C   C1        1.0  0.97600  0.02320  0.03710  1.0000
  C   C2        1.0  0.02400  0.52320  0.46290  1.0000
  C   C3        1.0  0.02400  0.97680  0.96290  1.0000
  C   C4        1.0  0.97600  0.47680  0.53710  1.0000
  Ga  Ga1       1.0  0.07232  0.04923  0.74373  1.0000
  Ga  Ga2       1.0  0.92768  0.54923  0.75627  1.0000
  Ga  Ga3       1.0  0.92768  0.95077  0.25627  1.0000
  Ga  Ga4       1.0  0.07232  0.45077  0.24373  1.0000
  Ga  Ga5       1.0  0.47514  0.01533  0.25797  1.0000
  Ga  Ga6       1.0  0.52486  0.51533  0.24203  1.0000
  Ga  Ga7       1.0  0.52486  0.98467  0.74203  1.0000
  Ga  Ga8       1.0  0.47514  0.48467  0.75797  1.0000
  O   O1        1.0  0.71030  0.97509  0.68190  1.0000
  O   O2        1.0  0.28970  0.47509  0.81810  1.0000
  O   O3        1.0  0.28970  0.02491  0.31810  1.0000
  O   O4        1.0  0.71030  0.52491  0.18190  1.0000
  O   O5        1.0  0.83660  0.96627  0.44370  1.0000
  O   O6        1.0  0.16340  0.46627  0.05630  1.0000
  O   O7        1.0  0.16340  0.03373  0.55630  1.0000
  O   O8        1.0  0.83660  0.53373  0.94370  1.0000
  O   O9        1.0  0.62500  0.02760  0.43560  1.0000
  O   O10       1.0  0.37500  0.52760  0.06440  1.0000
  O   O11       1.0  0.37500  0.97240  0.56440  1.0000
  O   O12       1.0  0.62500  0.47240  0.93560  1.0000
  O   O13       1.0  0.86990  0.04354  0.61250  1.0000
  O   O14       1.0  0.13010  0.54354  0.88750  1.0000
  O   O15       1.0  0.13010  0.95646  0.38750  1.0000
  O   O16       1.0  0.86990  0.45646  0.11250  1.0000
  O   O17       1.0  0.91980  0.16510  0.87810  1.0000
  O   O18       1.0  0.08020  0.66510  0.62190  1.0000
  O   O19       1.0  0.08020  0.83490  0.12190  1.0000
  O   O20       1.0  0.91980  0.33490  0.37810  1.0000
  H   H1        1.0  0.84540  0.16700  0.79840  1.0000
  H   H2        1.0  0.15460  0.66700  0.70160  1.0000
  H   H3        1.0  0.15460  0.83300  0.20160  1.0000
  H   H4        1.0  0.84540  0.33300  0.29840  1.0000
  O   O21       1.0  0.19690  0.15897  0.96500  1.0000
  O   O22       1.0  0.80310  0.65897  0.53500  1.0000
  O   O23       1.0  0.80310  0.84103  0.03500  1.0000
  O   O24       1.0  0.19690  0.34103  0.46500  1.0000
  O   O25       1.0  0.08930  0.20528  0.70620  1.0000
  O   O26       1.0  0.91070  0.70528  0.79380  1.0000
  O   O27       1.0  0.91070  0.79472  0.29380  1.0000
  O   O28       1.0  0.08930  0.29472  0.20620  1.0000
  O   O29       1.0  0.06980  0.11650  0.70150  1.0000
  O   O30       1.0  0.93020  0.61650  0.79850  1.0000
  O   O31       1.0  0.93020  0.88350  0.29850  1.0000
  O   O32       1.0  0.06980  0.38350  0.20150  1.0000
  O   O33       1.0  0.26810  0.04879  0.89750  1.0000
  O   O34       1.0  0.73190  0.54879  0.60250  1.0000
  O   O35       1.0  0.73190  0.95121  0.10250  1.0000
  O   O36       1.0  0.26810  0.45121  0.39750  1.0000
  O   O37       1.0  0.43200  0.12341  0.89020  1.0000
  O   O38       1.0  0.56800  0.62341  0.60980  1.0000
  O   O39       1.0  0.56800  0.87659  0.10980  1.0000
  O   O40       1.0  0.43200  0.37659  0.39020  1.0000
  H   H5        1.0  0.38250  0.13840  0.95180  1.0000
  H   H6        1.0  0.61750  0.63840  0.54820  1.0000
  H   H7        1.0  0.61750  0.86160  0.04820  1.0000
  H   H8        1.0  0.38250  0.36160  0.45180  1.0000
  O   O41       1.0  0.50050  0.06140  0.11030  1.0000
  O   O42       1.0  0.49950  0.56140  0.38970  1.0000
  O   O43       1.0  0.49950  0.93860  0.88970  1.0000
  O   O44       1.0  0.50050  0.43860  0.61030  1.0000
  O   O45       1.0  0.52790  0.04592  0.81730  1.0000
  O   O46       1.0  0.47210  0.54592  0.68270  1.0000
  O   O47       1.0  0.47210  0.95408  0.18270  1.0000
  O   O48       1.0  0.52790  0.45408  0.31730  1.0000
  O   O49       1.0  0.98160  0.06030  0.95540  1.0000
  O   O50       1.0  0.01840  0.56030  0.54460  1.0000
  O   O51       1.0  0.01840  0.93970  0.04460  1.0000
  O   O52       1.0  0.98160  0.43970  0.45540  1.0000
  O   O53       1.0  0.94120  0.02023  0.18010  1.0000
  O   O54       1.0  0.05880  0.52023  0.31990  1.0000
  O   O55       1.0  0.05880  0.97977  0.81990  1.0000
  O   O56       1.0  0.94120  0.47977  0.68010  1.0000
  P   P1        1.0  0.76567  0.00337  0.53880  1.0000
  P   P2        1.0  0.23433  0.50337  0.96120  1.0000
  P   P3        1.0  0.23433  0.99663  0.46120  1.0000
  P   P4        1.0  0.76567  0.49663  0.03880  1.0000
  P   P5        1.0  0.07240  0.16127  0.80850  1.0000
  P   P6        1.0  0.92760  0.66127  0.69150  1.0000
  P   P7        1.0  0.92760  0.83873  0.19150  1.0000
  P   P8        1.0  0.07240  0.33873  0.30850  1.0000
  P   P9        1.0  0.42690  0.06946  0.92750  1.0000
  P   P10       1.0  0.57310  0.56946  0.57250  1.0000
  P   P11       1.0  0.57310  0.93054  0.07250  1.0000
  P   P12       1.0  0.42690  0.43054  0.42750  1.0000
