data_image0
_chemical_formula_structural       C216F72Fe24O144
_chemical_formula_sum              "C216 F72 Fe24 O144"
_cell_length_a       31.2842
_cell_length_b       31.2842
_cell_length_c       19.6429
_cell_angle_alpha    90
_cell_angle_beta     90
_cell_angle_gamma    120

_space_group_name_H-M_alt    "P 1"
_space_group_IT_number       1

loop_
  _space_group_symop_operation_xyz
  'x, y, z'

loop_
  _atom_site_type_symbol
  _atom_site_label
  _atom_site_symmetry_multiplicity
  _atom_site_fract_x
  _atom_site_fract_y
  _atom_site_fract_z
  _atom_site_occupancy
  C   C1        1.0  0.32240  0.57240  0.00000  1.0000
  C   C2        1.0  0.42760  0.75000  0.00000  1.0000
  C   C3        1.0  0.25000  0.67760  0.00000  1.0000
  C   C4        1.0  0.42760  0.67760  0.50000  1.0000
  C   C5        1.0  0.25000  0.57240  0.50000  1.0000
  C   C6        1.0  0.32240  0.75000  0.50000  1.0000
  C   C7        1.0  0.98907  0.90573  0.33333  1.0000
  C   C8        1.0  0.09427  0.08333  0.33333  1.0000
  C   C9        1.0  0.91667  0.01093  0.33333  1.0000
  C   C10       1.0  0.09427  0.01093  0.83333  1.0000
  C   C11       1.0  0.91667  0.90573  0.83333  1.0000
  C   C12       1.0  0.98907  0.08333  0.83333  1.0000
  C   C13       1.0  0.65573  0.23907  0.66667  1.0000
  C   C14       1.0  0.76093  0.41667  0.66667  1.0000
  C   C15       1.0  0.58333  0.34427  0.66667  1.0000
  C   C16       1.0  0.76093  0.34427  0.16667  1.0000
  C   C17       1.0  0.58333  0.23907  0.16667  1.0000
  C   C18       1.0  0.65573  0.41667  0.16667  1.0000
  C   C19       1.0  0.35380  0.59050  0.06240  1.0000
  C   C20       1.0  0.40950  0.76330  0.06240  1.0000
  C   C21       1.0  0.23670  0.64620  0.06240  1.0000
  C   C22       1.0  0.40950  0.64620  0.56240  1.0000
  C   C23       1.0  0.23670  0.59050  0.56240  1.0000
  C   C24       1.0  0.35380  0.76330  0.56240  1.0000
  C   C25       1.0  0.02047  0.92383  0.39573  1.0000
  C   C26       1.0  0.07617  0.09663  0.39573  1.0000
  C   C27       1.0  0.90337  0.97953  0.39573  1.0000
  C   C28       1.0  0.07617  0.97953  0.89573  1.0000
  C   C29       1.0  0.90337  0.92383  0.89573  1.0000
  C   C30       1.0  0.02047  0.09663  0.89573  1.0000
  C   C31       1.0  0.68713  0.25717  0.72907  1.0000
  C   C32       1.0  0.74283  0.42997  0.72907  1.0000
  C   C33       1.0  0.57003  0.31287  0.72907  1.0000
  C   C34       1.0  0.74283  0.31287  0.22907  1.0000
  C   C35       1.0  0.57003  0.25717  0.22907  1.0000
  C   C36       1.0  0.68713  0.42997  0.22907  1.0000
  C   C37       1.0  0.37000  0.56040  0.09180  1.0000
  C   C38       1.0  0.43960  0.80960  0.09180  1.0000
  C   C39       1.0  0.19040  0.63000  0.09180  1.0000
  C   C40       1.0  0.43960  0.63000  0.59180  1.0000
  C   C41       1.0  0.19040  0.56040  0.59180  1.0000
  C   C42       1.0  0.37000  0.80960  0.59180  1.0000
  C   C43       1.0  0.03667  0.89373  0.42513  1.0000
  C   C44       1.0  0.10627  0.14293  0.42513  1.0000
  C   C45       1.0  0.85707  0.96333  0.42513  1.0000
  C   C46       1.0  0.10627  0.96333  0.92513  1.0000
  C   C47       1.0  0.85707  0.89373  0.92513  1.0000
  C   C48       1.0  0.03667  0.14293  0.92513  1.0000
  C   C49       1.0  0.70333  0.22707  0.75847  1.0000
  C   C50       1.0  0.77293  0.47627  0.75847  1.0000
  C   C51       1.0  0.52373  0.29667  0.75847  1.0000
  C   C52       1.0  0.77293  0.29667  0.25847  1.0000
  C   C53       1.0  0.52373  0.22707  0.25847  1.0000
  C   C54       1.0  0.70333  0.47627  0.25847  1.0000
  C   C55       1.0  0.35810  0.51520  0.06580  1.0000
  C   C56       1.0  0.48480  0.84290  0.06580  1.0000
  C   C57       1.0  0.15710  0.64190  0.06580  1.0000
  C   C58       1.0  0.48480  0.64190  0.56580  1.0000
  C   C59       1.0  0.15710  0.51520  0.56580  1.0000
  C   C60       1.0  0.35810  0.84290  0.56580  1.0000
  C   C61       1.0  0.02477  0.84853  0.39913  1.0000
  C   C62       1.0  0.15147  0.17623  0.39913  1.0000
  C   C63       1.0  0.82377  0.97523  0.39913  1.0000
  C   C64       1.0  0.15147  0.97523  0.89913  1.0000
  C   C65       1.0  0.82377  0.84853  0.89913  1.0000
  C   C66       1.0  0.02477  0.17623  0.89913  1.0000
  C   C67       1.0  0.69143  0.18187  0.73247  1.0000
  C   C68       1.0  0.81813  0.50957  0.73247  1.0000
  C   C69       1.0  0.49043  0.30857  0.73247  1.0000
  C   C70       1.0  0.81813  0.30857  0.23247  1.0000
  C   C71       1.0  0.49043  0.18187  0.23247  1.0000
  C   C72       1.0  0.69143  0.50957  0.23247  1.0000
  C   C73       1.0  0.32410  0.49590  0.00550  1.0000
  C   C74       1.0  0.50410  0.82820  0.00550  1.0000
  C   C75       1.0  0.17180  0.67590  0.00550  1.0000
  C   C76       1.0  0.50410  0.67590  0.50550  1.0000
  C   C77       1.0  0.17180  0.49590  0.50550  1.0000
  C   C78       1.0  0.32410  0.82820  0.50550  1.0000
  C   C79       1.0  0.99077  0.82923  0.33883  1.0000
  C   C80       1.0  0.17077  0.16153  0.33883  1.0000
  C   C81       1.0  0.83847  0.00923  0.33883  1.0000
  C   C82       1.0  0.17077  0.00923  0.83883  1.0000
  C   C83       1.0  0.83847  0.82923  0.83883  1.0000
  C   C84       1.0  0.99077  0.16153  0.83883  1.0000
  C   C85       1.0  0.65743  0.16257  0.67217  1.0000
  C   C86       1.0  0.83743  0.49487  0.67217  1.0000
  C   C87       1.0  0.50513  0.34257  0.67217  1.0000
  C   C88       1.0  0.83743  0.34257  0.17217  1.0000
  C   C89       1.0  0.50513  0.16257  0.17217  1.0000
  C   C90       1.0  0.65743  0.49487  0.17217  1.0000
  C   C91       1.0  0.30830  0.52610  0.97530  1.0000
  C   C92       1.0  0.47390  0.78220  0.97530  1.0000
  C   C93       1.0  0.21780  0.69170  0.97530  1.0000
  C   C94       1.0  0.47390  0.69170  0.47530  1.0000
  C   C95       1.0  0.21780  0.52610  0.47530  1.0000
  C   C96       1.0  0.30830  0.78220  0.47530  1.0000
  C   C97       1.0  0.97497  0.85943  0.30863  1.0000
  C   C98       1.0  0.14057  0.11553  0.30863  1.0000
  C   C99       1.0  0.88447  0.02503  0.30863  1.0000
  C   C100      1.0  0.14057  0.02503  0.80863  1.0000
  C   C101      1.0  0.88447  0.85943  0.80863  1.0000
  C   C102      1.0  0.97497  0.11553  0.80863  1.0000
  C   C103      1.0  0.64163  0.19277  0.64197  1.0000
  C   C104      1.0  0.80723  0.44887  0.64197  1.0000
  C   C105      1.0  0.55113  0.35837  0.64197  1.0000
  C   C106      1.0  0.80723  0.35837  0.14197  1.0000
  C   C107      1.0  0.55113  0.19277  0.14197  1.0000
  C   C108      1.0  0.64163  0.44887  0.14197  1.0000
  C   C109      1.0  0.28810  0.36490  0.15810  1.0000
  C   C110      1.0  0.63510  0.92320  0.15810  1.0000
  C   C111      1.0  0.07680  0.71190  0.15810  1.0000
  C   C112      1.0  0.63510  0.71190  0.65810  1.0000
  C   C113      1.0  0.07680  0.36490  0.65810  1.0000
  C   C114      1.0  0.28810  0.92320  0.65810  1.0000
  C   C115      1.0  0.95477  0.69823  0.49143  1.0000
  C   C116      1.0  0.30177  0.25653  0.49143  1.0000
  C   C117      1.0  0.74347  0.04523  0.49143  1.0000
  C   C118      1.0  0.30177  0.04523  0.99143  1.0000
  C   C119      1.0  0.74347  0.69823  0.99143  1.0000
  C   C120      1.0  0.95477  0.25653  0.99143  1.0000
  C   C121      1.0  0.62143  0.03157  0.82477  1.0000
  C   C122      1.0  0.96843  0.58987  0.82477  1.0000
  C   C123      1.0  0.41013  0.37857  0.82477  1.0000
  C   C124      1.0  0.96843  0.37857  0.32477  1.0000
  C   C125      1.0  0.41013  0.03157  0.32477  1.0000
  C   C126      1.0  0.62143  0.58987  0.32477  1.0000
  C   C127      1.0  0.33250  0.35910  0.15740  1.0000
  C   C128      1.0  0.64090  0.97340  0.15740  1.0000
  C   C129      1.0  0.02660  0.66750  0.15740  1.0000
  C   C130      1.0  0.64090  0.66750  0.65740  1.0000
  C   C131      1.0  0.02660  0.35910  0.65740  1.0000
  C   C132      1.0  0.33250  0.97340  0.65740  1.0000
  C   C133      1.0  0.99917  0.69243  0.49073  1.0000
  C   C134      1.0  0.30757  0.30673  0.49073  1.0000
  C   C135      1.0  0.69327  0.00083  0.49073  1.0000
  C   C136      1.0  0.30757  0.00083  0.99073  1.0000
  C   C137      1.0  0.69327  0.69243  0.99073  1.0000
  C   C138      1.0  0.99917  0.30673  0.99073  1.0000
  C   C139      1.0  0.66583  0.02577  0.82407  1.0000
  C   C140      1.0  0.97423  0.64007  0.82407  1.0000
  C   C141      1.0  0.35993  0.33417  0.82407  1.0000
  C   C142      1.0  0.97423  0.33417  0.32407  1.0000
  C   C143      1.0  0.35993  0.02577  0.32407  1.0000
  C   C144      1.0  0.66583  0.64007  0.32407  1.0000
  C   C145      1.0  0.33740  0.33080  0.20670  1.0000
  C   C146      1.0  0.66920  0.00660  0.20670  1.0000
  C   C147      1.0  0.99340  0.66260  0.20670  1.0000
  C   C148      1.0  0.66920  0.66260  0.70670  1.0000
  C   C149      1.0  0.99340  0.33080  0.70670  1.0000
  C   C150      1.0  0.33740  0.00660  0.70670  1.0000
  C   C151      1.0  0.00407  0.66413  0.54003  1.0000
  C   C152      1.0  0.33587  0.33993  0.54003  1.0000
  C   C153      1.0  0.66007  0.99593  0.54003  1.0000
  C   C154      1.0  0.33587  0.99593  0.04003  1.0000
  C   C155      1.0  0.66007  0.66413  0.04003  1.0000
  C   C156      1.0  0.00407  0.33993  0.04003  1.0000
  C   C157      1.0  0.67073  0.99747  0.87337  1.0000
  C   C158      1.0  0.00253  0.67327  0.87337  1.0000
  C   C159      1.0  0.32673  0.32927  0.87337  1.0000
  C   C160      1.0  0.00253  0.32927  0.37337  1.0000
  C   C161      1.0  0.32673  0.99747  0.37337  1.0000
  C   C162      1.0  0.67073  0.67327  0.37337  1.0000
  C   C163      1.0  0.30410  0.30960  0.25910  1.0000
  C   C164      1.0  0.69040  0.99450  0.25910  1.0000
  C   C165      1.0  0.00550  0.69590  0.25910  1.0000
  C   C166      1.0  0.69040  0.69590  0.75910  1.0000
  C   C167      1.0  0.00550  0.30960  0.75910  1.0000
  C   C168      1.0  0.30410  0.99450  0.75910  1.0000
  C   C169      1.0  0.97077  0.64293  0.59243  1.0000
  C   C170      1.0  0.35707  0.32783  0.59243  1.0000
  C   C171      1.0  0.67217  0.02923  0.59243  1.0000
  C   C172      1.0  0.35707  0.02923  0.09243  1.0000
  C   C173      1.0  0.67217  0.64293  0.09243  1.0000
  C   C174      1.0  0.97077  0.32783  0.09243  1.0000
  C   C175      1.0  0.63743  0.97627  0.92577  1.0000
  C   C176      1.0  0.02373  0.66117  0.92577  1.0000
  C   C177      1.0  0.33883  0.36257  0.92577  1.0000
  C   C178      1.0  0.02373  0.36257  0.42577  1.0000
  C   C179      1.0  0.33883  0.97627  0.42577  1.0000
  C   C180      1.0  0.63743  0.66117  0.42577  1.0000
  C   C181      1.0  0.25980  0.31610  0.26100  1.0000
  C   C182      1.0  0.68390  0.94370  0.26100  1.0000
  C   C183      1.0  0.05630  0.74020  0.26100  1.0000
  C   C184      1.0  0.68390  0.74020  0.76100  1.0000
  C   C185      1.0  0.05630  0.31610  0.76100  1.0000
  C   C186      1.0  0.25980  0.94370  0.76100  1.0000
  C   C187      1.0  0.92647  0.64943  0.59433  1.0000
  C   C188      1.0  0.35057  0.27703  0.59433  1.0000
  C   C189      1.0  0.72297  0.07353  0.59433  1.0000
  C   C190      1.0  0.35057  0.07353  0.09433  1.0000
  C   C191      1.0  0.72297  0.64943  0.09433  1.0000
  C   C192      1.0  0.92647  0.27703  0.09433  1.0000
  C   C193      1.0  0.59313  0.98277  0.92767  1.0000
  C   C194      1.0  0.01723  0.61037  0.92767  1.0000
  C   C195      1.0  0.38963  0.40687  0.92767  1.0000
  C   C196      1.0  0.01723  0.40687  0.42767  1.0000
  C   C197      1.0  0.38963  0.98277  0.42767  1.0000
  C   C198      1.0  0.59313  0.61037  0.42767  1.0000
  C   C199      1.0  0.25430  0.34310  0.20980  1.0000
  C   C200      1.0  0.65690  0.91120  0.20980  1.0000
  C   C201      1.0  0.08880  0.74570  0.20980  1.0000
  C   C202      1.0  0.65690  0.74570  0.70980  1.0000
  C   C203      1.0  0.08880  0.34310  0.70980  1.0000
  C   C204      1.0  0.25430  0.91120  0.70980  1.0000
  C   C205      1.0  0.92097  0.67643  0.54313  1.0000
  C   C206      1.0  0.32357  0.24453  0.54313  1.0000
  C   C207      1.0  0.75547  0.07903  0.54313  1.0000
  C   C208      1.0  0.32357  0.07903  0.04313  1.0000
  C   C209      1.0  0.75547  0.67643  0.04313  1.0000
  C   C210      1.0  0.92097  0.24453  0.04313  1.0000
  C   C211      1.0  0.58763  0.00977  0.87647  1.0000
  C   C212      1.0  0.99023  0.57787  0.87647  1.0000
  C   C213      1.0  0.42213  0.41237  0.87647  1.0000
  C   C214      1.0  0.99023  0.41237  0.37647  1.0000
  C   C215      1.0  0.42213  0.00977  0.37647  1.0000
  C   C216      1.0  0.58763  0.57787  0.37647  1.0000
  F   F1        1.0  0.27820  0.50859  0.92030  1.0000
  F   F2        1.0  0.49141  0.76961  0.92030  1.0000
  F   F3        1.0  0.23039  0.72180  0.92030  1.0000
  F   F4        1.0  0.49141  0.72180  0.42030  1.0000
  F   F5        1.0  0.23039  0.50859  0.42030  1.0000
  F   F6        1.0  0.27820  0.76961  0.42030  1.0000
  F   F7        1.0  0.94487  0.84192  0.25363  1.0000
  F   F8        1.0  0.15808  0.10294  0.25363  1.0000
  F   F9        1.0  0.89706  0.05513  0.25363  1.0000
  F   F10       1.0  0.15808  0.05513  0.75363  1.0000
  F   F11       1.0  0.89706  0.84192  0.75363  1.0000
  F   F12       1.0  0.94487  0.10294  0.75363  1.0000
  F   F13       1.0  0.61153  0.17526  0.58697  1.0000
  F   F14       1.0  0.82474  0.43628  0.58697  1.0000
  F   F15       1.0  0.56372  0.38847  0.58697  1.0000
  F   F16       1.0  0.82474  0.38847  0.08697  1.0000
  F   F17       1.0  0.56372  0.17526  0.08697  1.0000
  F   F18       1.0  0.61153  0.43628  0.08697  1.0000
  F   F19       1.0  0.39914  0.57753  0.14810  1.0000
  F   F20       1.0  0.42247  0.82161  0.14810  1.0000
  F   F21       1.0  0.17839  0.60086  0.14810  1.0000
  F   F22       1.0  0.42247  0.60086  0.64810  1.0000
  F   F23       1.0  0.17839  0.57753  0.64810  1.0000
  F   F24       1.0  0.39914  0.82161  0.64810  1.0000
  F   F25       1.0  0.06581  0.91086  0.48143  1.0000
  F   F26       1.0  0.08914  0.15494  0.48143  1.0000
  F   F27       1.0  0.84506  0.93419  0.48143  1.0000
  F   F28       1.0  0.08914  0.93419  0.98143  1.0000
  F   F29       1.0  0.84506  0.91086  0.98143  1.0000
  F   F30       1.0  0.06581  0.15494  0.98143  1.0000
  F   F31       1.0  0.73247  0.24420  0.81477  1.0000
  F   F32       1.0  0.75580  0.48828  0.81477  1.0000
  F   F33       1.0  0.51172  0.26753  0.81477  1.0000
  F   F34       1.0  0.75580  0.26753  0.31477  1.0000
  F   F35       1.0  0.51172  0.24420  0.31477  1.0000
  F   F36       1.0  0.73247  0.48828  0.31477  1.0000
  F   F37       1.0  0.37815  0.32530  0.20690  1.0000
  F   F38       1.0  0.67470  0.05285  0.20690  1.0000
  F   F39       1.0  0.94715  0.62185  0.20690  1.0000
  F   F40       1.0  0.67470  0.62185  0.70690  1.0000
  F   F41       1.0  0.94715  0.32530  0.70690  1.0000
  F   F42       1.0  0.37815  0.05285  0.70690  1.0000
  F   F43       1.0  0.04482  0.65863  0.54023  1.0000
  F   F44       1.0  0.34137  0.38618  0.54023  1.0000
  F   F45       1.0  0.61382  0.95518  0.54023  1.0000
  F   F46       1.0  0.34137  0.95518  0.04023  1.0000
  F   F47       1.0  0.61382  0.65863  0.04023  1.0000
  F   F48       1.0  0.04482  0.38618  0.04023  1.0000
  F   F49       1.0  0.71148  0.99197  0.87357  1.0000
  F   F50       1.0  0.00803  0.71952  0.87357  1.0000
  F   F51       1.0  0.28048  0.28852  0.87357  1.0000
  F   F52       1.0  0.00803  0.28852  0.37357  1.0000
  F   F53       1.0  0.28048  0.99197  0.37357  1.0000
  F   F54       1.0  0.71148  0.71952  0.37357  1.0000
  F   F55       1.0  0.21358  0.34820  0.21010  1.0000
  F   F56       1.0  0.65180  0.86538  0.21010  1.0000
  F   F57       1.0  0.13462  0.78642  0.21010  1.0000
  F   F58       1.0  0.65180  0.78642  0.71010  1.0000
  F   F59       1.0  0.13462  0.34820  0.71010  1.0000
  F   F60       1.0  0.21358  0.86538  0.71010  1.0000
  F   F61       1.0  0.88025  0.68153  0.54343  1.0000
  F   F62       1.0  0.31847  0.19871  0.54343  1.0000
  F   F63       1.0  0.80129  0.11975  0.54343  1.0000
  F   F64       1.0  0.31847  0.11975  0.04343  1.0000
  F   F65       1.0  0.80129  0.68153  0.04343  1.0000
  F   F66       1.0  0.88025  0.19871  0.04343  1.0000
  F   F67       1.0  0.54691  0.01487  0.87677  1.0000
  F   F68       1.0  0.98513  0.53205  0.87677  1.0000
  F   F69       1.0  0.46795  0.45309  0.87677  1.0000
  F   F70       1.0  0.98513  0.45309  0.37677  1.0000
  F   F71       1.0  0.46795  0.01487  0.37677  1.0000
  F   F72       1.0  0.54691  0.53205  0.37677  1.0000
  Fe  Fe1       1.0  0.34156  0.41788  0.04189  1.0000
  Fe  Fe2       1.0  0.58212  0.92368  0.04189  1.0000
  Fe  Fe3       1.0  0.07632  0.65844  0.04189  1.0000
  Fe  Fe4       1.0  0.58212  0.65844  0.54189  1.0000
  Fe  Fe5       1.0  0.07632  0.41788  0.54189  1.0000
  Fe  Fe6       1.0  0.34156  0.92368  0.54189  1.0000
  Fe  Fe7       1.0  0.00823  0.75121  0.37522  1.0000
  Fe  Fe8       1.0  0.24879  0.25701  0.37522  1.0000
  Fe  Fe9       1.0  0.74299  0.99177  0.37522  1.0000
  Fe  Fe10      1.0  0.24879  0.99177  0.87522  1.0000
  Fe  Fe11      1.0  0.74299  0.75121  0.87522  1.0000
  Fe  Fe12      1.0  0.00823  0.25701  0.87522  1.0000
  Fe  Fe13      1.0  0.67489  0.08455  0.70856  1.0000
  Fe  Fe14      1.0  0.91545  0.59035  0.70856  1.0000
  Fe  Fe15      1.0  0.40965  0.32511  0.70856  1.0000
  Fe  Fe16      1.0  0.91545  0.32511  0.20856  1.0000
  Fe  Fe17      1.0  0.40965  0.08455  0.20856  1.0000
  Fe  Fe18      1.0  0.67489  0.59035  0.20856  1.0000
  Fe  Fe19      1.0  0.33330  0.66670  0.02810  1.0000
  Fe  Fe20      1.0  0.33330  0.66670  0.52810  1.0000
  Fe  Fe21      1.0  0.99997  0.00003  0.36143  1.0000
  Fe  Fe22      1.0  0.99997  0.00003  0.86143  1.0000
  Fe  Fe23      1.0  0.66663  0.33337  0.69477  1.0000
  Fe  Fe24      1.0  0.66663  0.33337  0.19477  1.0000
  O   O1        1.0  0.31010  0.60230  0.97330  1.0000
  O   O2        1.0  0.39770  0.70780  0.97330  1.0000
  O   O3        1.0  0.29220  0.68990  0.97330  1.0000
  O   O4        1.0  0.39770  0.68990  0.47330  1.0000
  O   O5        1.0  0.29220  0.60230  0.47330  1.0000
  O   O6        1.0  0.31010  0.70780  0.47330  1.0000
  O   O7        1.0  0.97677  0.93563  0.30663  1.0000
  O   O8        1.0  0.06437  0.04113  0.30663  1.0000
  O   O9        1.0  0.95887  0.02323  0.30663  1.0000
  O   O10       1.0  0.06437  0.02323  0.80663  1.0000
  O   O11       1.0  0.95887  0.93563  0.80663  1.0000
  O   O12       1.0  0.97677  0.04113  0.80663  1.0000
  O   O13       1.0  0.64343  0.26897  0.63997  1.0000
  O   O14       1.0  0.73103  0.37447  0.63997  1.0000
  O   O15       1.0  0.62553  0.35657  0.63997  1.0000
  O   O16       1.0  0.73103  0.35657  0.13997  1.0000
  O   O17       1.0  0.62553  0.26897  0.13997  1.0000
  O   O18       1.0  0.64343  0.37447  0.13997  1.0000
  O   O19       1.0  0.36280  0.63224  0.08490  1.0000
  O   O20       1.0  0.36776  0.73056  0.08490  1.0000
  O   O21       1.0  0.26944  0.63720  0.08490  1.0000
  O   O22       1.0  0.36776  0.63720  0.58490  1.0000
  O   O23       1.0  0.26944  0.63224  0.58490  1.0000
  O   O24       1.0  0.36280  0.73056  0.58490  1.0000
  O   O25       1.0  0.02947  0.96557  0.41823  1.0000
  O   O26       1.0  0.03443  0.06389  0.41823  1.0000
  O   O27       1.0  0.93611  0.97053  0.41823  1.0000
  O   O28       1.0  0.03443  0.97053  0.91823  1.0000
  O   O29       1.0  0.93611  0.96557  0.91823  1.0000
  O   O30       1.0  0.02947  0.06389  0.91823  1.0000
  O   O31       1.0  0.69613  0.29891  0.75157  1.0000
  O   O32       1.0  0.70109  0.39723  0.75157  1.0000
  O   O33       1.0  0.60277  0.30387  0.75157  1.0000
  O   O34       1.0  0.70109  0.30387  0.25157  1.0000
  O   O35       1.0  0.60277  0.29891  0.25157  1.0000
  O   O36       1.0  0.69613  0.39723  0.25157  1.0000
  O   O37       1.0  0.31120  0.45208  0.98640  1.0000
  O   O38       1.0  0.54792  0.85912  0.98640  1.0000
  O   O39       1.0  0.14088  0.68880  0.98640  1.0000
  O   O40       1.0  0.54792  0.68880  0.48640  1.0000
  O   O41       1.0  0.14088  0.45208  0.48640  1.0000
  O   O42       1.0  0.31120  0.85912  0.48640  1.0000
  O   O43       1.0  0.97787  0.78541  0.31973  1.0000
  O   O44       1.0  0.21459  0.19245  0.31973  1.0000
  O   O45       1.0  0.80755  0.02213  0.31973  1.0000
  O   O46       1.0  0.21459  0.02213  0.81973  1.0000
  O   O47       1.0  0.80755  0.78541  0.81973  1.0000
  O   O48       1.0  0.97787  0.19245  0.81973  1.0000
  O   O49       1.0  0.64453  0.11875  0.65307  1.0000
  O   O50       1.0  0.88125  0.52579  0.65307  1.0000
  O   O51       1.0  0.47421  0.35547  0.65307  1.0000
  O   O52       1.0  0.88125  0.35547  0.15307  1.0000
  O   O53       1.0  0.47421  0.11875  0.15307  1.0000
  O   O54       1.0  0.64453  0.52579  0.15307  1.0000
  O   O55       1.0  0.37320  0.48670  0.08830  1.0000
  O   O56       1.0  0.51330  0.88650  0.08830  1.0000
  O   O57       1.0  0.11350  0.62680  0.08830  1.0000
  O   O58       1.0  0.51330  0.62680  0.58830  1.0000
  O   O59       1.0  0.11350  0.48670  0.58830  1.0000
  O   O60       1.0  0.37320  0.88650  0.58830  1.0000
  O   O61       1.0  0.03987  0.82003  0.42163  1.0000
  O   O62       1.0  0.17997  0.21983  0.42163  1.0000
  O   O63       1.0  0.78017  0.96013  0.42163  1.0000
  O   O64       1.0  0.17997  0.96013  0.92163  1.0000
  O   O65       1.0  0.78017  0.82003  0.92163  1.0000
  O   O66       1.0  0.03987  0.21983  0.92163  1.0000
  O   O67       1.0  0.70653  0.15337  0.75497  1.0000
  O   O68       1.0  0.84663  0.55317  0.75497  1.0000
  O   O69       1.0  0.44683  0.29347  0.75497  1.0000
  O   O70       1.0  0.84663  0.29347  0.25497  1.0000
  O   O71       1.0  0.44683  0.15337  0.25497  1.0000
  O   O72       1.0  0.70653  0.55317  0.25497  1.0000
  O   O73       1.0  0.28480  0.38970  0.10890  1.0000
  O   O74       1.0  0.61030  0.89510  0.10890  1.0000
  O   O75       1.0  0.10490  0.71520  0.10890  1.0000
  O   O76       1.0  0.61030  0.71520  0.60890  1.0000
  O   O77       1.0  0.10490  0.38970  0.60890  1.0000
  O   O78       1.0  0.28480  0.89510  0.60890  1.0000
  O   O79       1.0  0.95147  0.72303  0.44223  1.0000
  O   O80       1.0  0.27697  0.22843  0.44223  1.0000
  O   O81       1.0  0.77157  0.04853  0.44223  1.0000
  O   O82       1.0  0.27697  0.04853  0.94223  1.0000
  O   O83       1.0  0.77157  0.72303  0.94223  1.0000
  O   O84       1.0  0.95147  0.22843  0.94223  1.0000
  O   O85       1.0  0.61813  0.05637  0.77557  1.0000
  O   O86       1.0  0.94363  0.56177  0.77557  1.0000
  O   O87       1.0  0.43823  0.38187  0.77557  1.0000
  O   O88       1.0  0.94363  0.38187  0.27557  1.0000
  O   O89       1.0  0.43823  0.05637  0.27557  1.0000
  O   O90       1.0  0.61813  0.56177  0.27557  1.0000
  O   O91       1.0  0.36355  0.38276  0.10950  1.0000
  O   O92       1.0  0.61724  0.98079  0.10950  1.0000
  O   O93       1.0  0.01921  0.63645  0.10950  1.0000
  O   O94       1.0  0.61724  0.63645  0.60950  1.0000
  O   O95       1.0  0.01921  0.38276  0.60950  1.0000
  O   O96       1.0  0.36355  0.98079  0.60950  1.0000
  O   O97       1.0  0.03022  0.71609  0.44283  1.0000
  O   O98       1.0  0.28391  0.31412  0.44283  1.0000
  O   O99       1.0  0.68588  0.96978  0.44283  1.0000
  O   O100      1.0  0.28391  0.96978  0.94283  1.0000
  O   O101      1.0  0.68588  0.71609  0.94283  1.0000
  O   O102      1.0  0.03022  0.31412  0.94283  1.0000
  O   O103      1.0  0.69688  0.04943  0.77617  1.0000
  O   O104      1.0  0.95057  0.64746  0.77617  1.0000
  O   O105      1.0  0.35254  0.30312  0.77617  1.0000
  O   O106      1.0  0.95057  0.30312  0.27617  1.0000
  O   O107      1.0  0.35254  0.04943  0.27617  1.0000
  O   O108      1.0  0.69688  0.64746  0.27617  1.0000
  O   O109      1.0  0.30700  0.28391  0.30880  1.0000
  O   O110      1.0  0.71609  0.02309  0.30880  1.0000
  O   O111      1.0  0.97691  0.69300  0.30880  1.0000
  O   O112      1.0  0.71609  0.69300  0.80880  1.0000
  O   O113      1.0  0.97691  0.28391  0.80880  1.0000
  O   O114      1.0  0.30700  0.02309  0.80880  1.0000
  O   O115      1.0  0.97367  0.61724  0.64213  1.0000
  O   O116      1.0  0.38276  0.35642  0.64213  1.0000
  O   O117      1.0  0.64358  0.02633  0.64213  1.0000
  O   O118      1.0  0.38276  0.02633  0.14213  1.0000
  O   O119      1.0  0.64358  0.61724  0.14213  1.0000
  O   O120      1.0  0.97367  0.35642  0.14213  1.0000
  O   O121      1.0  0.64033  0.95058  0.97547  1.0000
  O   O122      1.0  0.04942  0.68976  0.97547  1.0000
  O   O123      1.0  0.31024  0.35967  0.97547  1.0000
  O   O124      1.0  0.04942  0.35967  0.47547  1.0000
  O   O125      1.0  0.31024  0.95058  0.47547  1.0000
  O   O126      1.0  0.64033  0.68976  0.47547  1.0000
  O   O127      1.0  0.23000  0.29591  0.31210  1.0000
  O   O128      1.0  0.70409  0.93409  0.31210  1.0000
  O   O129      1.0  0.06591  0.77000  0.31210  1.0000
  O   O130      1.0  0.70409  0.77000  0.81210  1.0000
  O   O131      1.0  0.06591  0.29591  0.81210  1.0000
  O   O132      1.0  0.23000  0.93409  0.81210  1.0000
  O   O133      1.0  0.89667  0.62924  0.64543  1.0000
  O   O134      1.0  0.37076  0.26742  0.64543  1.0000
  O   O135      1.0  0.73258  0.10333  0.64543  1.0000
  O   O136      1.0  0.37076  0.10333  0.14543  1.0000
  O   O137      1.0  0.73258  0.62924  0.14543  1.0000
  O   O138      1.0  0.89667  0.26742  0.14543  1.0000
  O   O139      1.0  0.56333  0.96258  0.97877  1.0000
  O   O140      1.0  0.03742  0.60076  0.97877  1.0000
  O   O141      1.0  0.39924  0.43667  0.97877  1.0000
  O   O142      1.0  0.03742  0.43667  0.47877  1.0000
  O   O143      1.0  0.39924  0.96258  0.47877  1.0000
  O   O144      1.0  0.56333  0.60076  0.47877  1.0000
