data_image0
_chemical_formula_structural       C216F72Zn24O144
_chemical_formula_sum              "C216 F72 Zn24 O144"
_cell_length_a       31.272
_cell_length_b       31.272
_cell_length_c       19.711
_cell_angle_alpha    90
_cell_angle_beta     90
_cell_angle_gamma    120

_space_group_name_H-M_alt    "P 1"
_space_group_IT_number       1

loop_
  _space_group_symop_operation_xyz
  'x, y, z'

loop_
  _atom_site_type_symbol
  _atom_site_label
  _atom_site_symmetry_multiplicity
  _atom_site_fract_x
  _atom_site_fract_y
  _atom_site_fract_z
  _atom_site_occupancy
  C   C1        1.0  0.67870  0.42730  0.00210  1.0000
  C   C2        1.0  0.57270  0.25140  0.00210  1.0000
  C   C3        1.0  0.74860  0.32130  0.00210  1.0000
  C   C4        1.0  0.57270  0.32130  0.50210  1.0000
  C   C5        1.0  0.74860  0.42730  0.50210  1.0000
  C   C6        1.0  0.67870  0.25140  0.50210  1.0000
  C   C7        1.0  0.34537  0.76063  0.33543  1.0000
  C   C8        1.0  0.23937  0.58473  0.33543  1.0000
  C   C9        1.0  0.41527  0.65463  0.33543  1.0000
  C   C10       1.0  0.23937  0.65463  0.83543  1.0000
  C   C11       1.0  0.41527  0.76063  0.83543  1.0000
  C   C12       1.0  0.34537  0.58473  0.83543  1.0000
  C   C13       1.0  0.01203  0.09397  0.66877  1.0000
  C   C14       1.0  0.90603  0.91807  0.66877  1.0000
  C   C15       1.0  0.08193  0.98797  0.66877  1.0000
  C   C16       1.0  0.90603  0.98797  0.16877  1.0000
  C   C17       1.0  0.08193  0.09397  0.16877  1.0000
  C   C18       1.0  0.01203  0.91807  0.16877  1.0000
  C   C19       1.0  0.64660  0.40940  0.93850  1.0000
  C   C20       1.0  0.59060  0.23720  0.93850  1.0000
  C   C21       1.0  0.76280  0.35340  0.93850  1.0000
  C   C22       1.0  0.59060  0.35340  0.43850  1.0000
  C   C23       1.0  0.76280  0.40940  0.43850  1.0000
  C   C24       1.0  0.64660  0.23720  0.43850  1.0000
  C   C25       1.0  0.31327  0.74273  0.27183  1.0000
  C   C26       1.0  0.25727  0.57053  0.27183  1.0000
  C   C27       1.0  0.42947  0.68673  0.27183  1.0000
  C   C28       1.0  0.25727  0.68673  0.77183  1.0000
  C   C29       1.0  0.42947  0.74273  0.77183  1.0000
  C   C30       1.0  0.31327  0.57053  0.77183  1.0000
  C   C31       1.0  0.97993  0.07607  0.60517  1.0000
  C   C32       1.0  0.92393  0.90387  0.60517  1.0000
  C   C33       1.0  0.09613  0.02007  0.60517  1.0000
  C   C34       1.0  0.92393  0.02007  0.10517  1.0000
  C   C35       1.0  0.09613  0.07607  0.10517  1.0000
  C   C36       1.0  0.97993  0.90387  0.10517  1.0000
  C   C37       1.0  0.63080  0.43930  0.90780  1.0000
  C   C38       1.0  0.56070  0.19150  0.90780  1.0000
  C   C39       1.0  0.80850  0.36920  0.90780  1.0000
  C   C40       1.0  0.56070  0.36920  0.40780  1.0000
  C   C41       1.0  0.80850  0.43930  0.40780  1.0000
  C   C42       1.0  0.63080  0.19150  0.40780  1.0000
  C   C43       1.0  0.29747  0.77263  0.24113  1.0000
  C   C44       1.0  0.22737  0.52483  0.24113  1.0000
  C   C45       1.0  0.47517  0.70253  0.24113  1.0000
  C   C46       1.0  0.22737  0.70253  0.74113  1.0000
  C   C47       1.0  0.47517  0.77263  0.74113  1.0000
  C   C48       1.0  0.29747  0.52483  0.74113  1.0000
  C   C49       1.0  0.96413  0.10597  0.57447  1.0000
  C   C50       1.0  0.89403  0.85817  0.57447  1.0000
  C   C51       1.0  0.14183  0.03587  0.57447  1.0000
  C   C52       1.0  0.89403  0.03587  0.07447  1.0000
  C   C53       1.0  0.14183  0.10597  0.07447  1.0000
  C   C54       1.0  0.96413  0.85817  0.07447  1.0000
  C   C55       1.0  0.64220  0.48430  0.93290  1.0000
  C   C56       1.0  0.51570  0.15790  0.93290  1.0000
  C   C57       1.0  0.84210  0.35780  0.93290  1.0000
  C   C58       1.0  0.51570  0.35780  0.43290  1.0000
  C   C59       1.0  0.84210  0.48430  0.43290  1.0000
  C   C60       1.0  0.64220  0.15790  0.43290  1.0000
  C   C61       1.0  0.30887  0.81763  0.26623  1.0000
  C   C62       1.0  0.18237  0.49123  0.26623  1.0000
  C   C63       1.0  0.50877  0.69113  0.26623  1.0000
  C   C64       1.0  0.18237  0.69113  0.76623  1.0000
  C   C65       1.0  0.50877  0.81763  0.76623  1.0000
  C   C66       1.0  0.30887  0.49123  0.76623  1.0000
  C   C67       1.0  0.97553  0.15097  0.59957  1.0000
  C   C68       1.0  0.84903  0.82457  0.59957  1.0000
  C   C69       1.0  0.17543  0.02447  0.59957  1.0000
  C   C70       1.0  0.84903  0.02447  0.09957  1.0000
  C   C71       1.0  0.17543  0.15097  0.09957  1.0000
  C   C72       1.0  0.97553  0.82457  0.09957  1.0000
  C   C73       1.0  0.67740  0.50490  0.99460  1.0000
  C   C74       1.0  0.49510  0.17250  0.99460  1.0000
  C   C75       1.0  0.82750  0.32260  0.99460  1.0000
  C   C76       1.0  0.49510  0.32260  0.49460  1.0000
  C   C77       1.0  0.82750  0.50490  0.49460  1.0000
  C   C78       1.0  0.67740  0.17250  0.49460  1.0000
  C   C79       1.0  0.34407  0.83823  0.32793  1.0000
  C   C80       1.0  0.16177  0.50583  0.32793  1.0000
  C   C81       1.0  0.49417  0.65593  0.32793  1.0000
  C   C82       1.0  0.16177  0.65593  0.82793  1.0000
  C   C83       1.0  0.49417  0.83823  0.82793  1.0000
  C   C84       1.0  0.34407  0.50583  0.82793  1.0000
  C   C85       1.0  0.01073  0.17157  0.66127  1.0000
  C   C86       1.0  0.82843  0.83917  0.66127  1.0000
  C   C87       1.0  0.16083  0.98927  0.66127  1.0000
  C   C88       1.0  0.82843  0.98927  0.16127  1.0000
  C   C89       1.0  0.16083  0.17157  0.16127  1.0000
  C   C90       1.0  0.01073  0.83917  0.16127  1.0000
  C   C91       1.0  0.69240  0.47410  0.02610  1.0000
  C   C92       1.0  0.52590  0.21830  0.02610  1.0000
  C   C93       1.0  0.78170  0.30760  0.02610  1.0000
  C   C94       1.0  0.52590  0.30760  0.52610  1.0000
  C   C95       1.0  0.78170  0.47410  0.52610  1.0000
  C   C96       1.0  0.69240  0.21830  0.52610  1.0000
  C   C97       1.0  0.35907  0.80743  0.35943  1.0000
  C   C98       1.0  0.19257  0.55163  0.35943  1.0000
  C   C99       1.0  0.44837  0.64093  0.35943  1.0000
  C   C100      1.0  0.19257  0.64093  0.85943  1.0000
  C   C101      1.0  0.44837  0.80743  0.85943  1.0000
  C   C102      1.0  0.35907  0.55163  0.85943  1.0000
  C   C103      1.0  0.02573  0.14077  0.69277  1.0000
  C   C104      1.0  0.85923  0.88497  0.69277  1.0000
  C   C105      1.0  0.11503  0.97427  0.69277  1.0000
  C   C106      1.0  0.85923  0.97427  0.19277  1.0000
  C   C107      1.0  0.11503  0.14077  0.19277  1.0000
  C   C108      1.0  0.02573  0.88497  0.19277  1.0000
  C   C109      1.0  0.71360  0.63580  0.84170  1.0000
  C   C110      1.0  0.36420  0.07780  0.84170  1.0000
  C   C111      1.0  0.92220  0.28640  0.84170  1.0000
  C   C112      1.0  0.36420  0.28640  0.34170  1.0000
  C   C113      1.0  0.92220  0.63580  0.34170  1.0000
  C   C114      1.0  0.71360  0.07780  0.34170  1.0000
  C   C115      1.0  0.38027  0.96913  0.17503  1.0000
  C   C116      1.0  0.03087  0.41113  0.17503  1.0000
  C   C117      1.0  0.58887  0.61973  0.17503  1.0000
  C   C118      1.0  0.03087  0.61973  0.67503  1.0000
  C   C119      1.0  0.58887  0.96913  0.67503  1.0000
  C   C120      1.0  0.38027  0.41113  0.67503  1.0000
  C   C121      1.0  0.04693  0.30247  0.50837  1.0000
  C   C122      1.0  0.69753  0.74447  0.50837  1.0000
  C   C123      1.0  0.25553  0.95307  0.50837  1.0000
  C   C124      1.0  0.69753  0.95307  0.00837  1.0000
  C   C125      1.0  0.25553  0.30247  0.00837  1.0000
  C   C126      1.0  0.04693  0.74447  0.00837  1.0000
  C   C127      1.0  0.66770  0.64160  0.84300  1.0000
  C   C128      1.0  0.35840  0.02610  0.84300  1.0000
  C   C129      1.0  0.97390  0.33230  0.84300  1.0000
  C   C130      1.0  0.35840  0.33230  0.34300  1.0000
  C   C131      1.0  0.97390  0.64160  0.34300  1.0000
  C   C132      1.0  0.66770  0.02610  0.34300  1.0000
  C   C133      1.0  0.33437  0.97493  0.17633  1.0000
  C   C134      1.0  0.02507  0.35943  0.17633  1.0000
  C   C135      1.0  0.64057  0.66563  0.17633  1.0000
  C   C136      1.0  0.02507  0.66563  0.67633  1.0000
  C   C137      1.0  0.64057  0.97493  0.67633  1.0000
  C   C138      1.0  0.33437  0.35943  0.67633  1.0000
  C   C139      1.0  0.00103  0.30827  0.50967  1.0000
  C   C140      1.0  0.69173  0.69277  0.50967  1.0000
  C   C141      1.0  0.30723  0.99897  0.50967  1.0000
  C   C142      1.0  0.69173  0.99897  0.00967  1.0000
  C   C143      1.0  0.30723  0.30827  0.00967  1.0000
  C   C144      1.0  0.00103  0.69277  0.00967  1.0000
  C   C145      1.0  0.66240  0.66930  0.79300  1.0000
  C   C146      1.0  0.33070  0.99310  0.79300  1.0000
  C   C147      1.0  0.00690  0.33760  0.79300  1.0000
  C   C148      1.0  0.33070  0.33760  0.29300  1.0000
  C   C149      1.0  0.00690  0.66930  0.29300  1.0000
  C   C150      1.0  0.66240  0.99310  0.29300  1.0000
  C   C151      1.0  0.32907  0.00263  0.12633  1.0000
  C   C152      1.0  0.99737  0.32643  0.12633  1.0000
  C   C153      1.0  0.67357  0.67093  0.12633  1.0000
  C   C154      1.0  0.99737  0.67093  0.62633  1.0000
  C   C155      1.0  0.67357  0.00263  0.62633  1.0000
  C   C156      1.0  0.32907  0.32643  0.62633  1.0000
  C   C157      1.0  0.99573  0.33597  0.45967  1.0000
  C   C158      1.0  0.66403  0.65977  0.45967  1.0000
  C   C159      1.0  0.34023  0.00427  0.45967  1.0000
  C   C160      1.0  0.66403  0.00427  0.95967  1.0000
  C   C161      1.0  0.34023  0.33597  0.95967  1.0000
  C   C162      1.0  0.99573  0.65977  0.95967  1.0000
  C   C163      1.0  0.69640  0.69190  0.74070  1.0000
  C   C164      1.0  0.30810  0.00450  0.74070  1.0000
  C   C165      1.0  0.99550  0.30360  0.74070  1.0000
  C   C166      1.0  0.30810  0.30360  0.24070  1.0000
  C   C167      1.0  0.99550  0.69190  0.24070  1.0000
  C   C168      1.0  0.69640  0.00450  0.24070  1.0000
  C   C169      1.0  0.36307  0.02523  0.07403  1.0000
  C   C170      1.0  0.97477  0.33783  0.07403  1.0000
  C   C171      1.0  0.66217  0.63693  0.07403  1.0000
  C   C172      1.0  0.97477  0.63693  0.57403  1.0000
  C   C173      1.0  0.66217  0.02523  0.57403  1.0000
  C   C174      1.0  0.36307  0.33783  0.57403  1.0000
  C   C175      1.0  0.02973  0.35857  0.40737  1.0000
  C   C176      1.0  0.64143  0.67117  0.40737  1.0000
  C   C177      1.0  0.32883  0.97027  0.40737  1.0000
  C   C178      1.0  0.64143  0.97027  0.90737  1.0000
  C   C179      1.0  0.32883  0.35857  0.90737  1.0000
  C   C180      1.0  0.02973  0.67117  0.90737  1.0000
  C   C181      1.0  0.74200  0.68480  0.73830  1.0000
  C   C182      1.0  0.31520  0.05720  0.73830  1.0000
  C   C183      1.0  0.94280  0.25800  0.73830  1.0000
  C   C184      1.0  0.31520  0.25800  0.23830  1.0000
  C   C185      1.0  0.94280  0.68480  0.23830  1.0000
  C   C186      1.0  0.74200  0.05720  0.23830  1.0000
  C   C187      1.0  0.40867  0.01813  0.07163  1.0000
  C   C188      1.0  0.98187  0.39053  0.07163  1.0000
  C   C189      1.0  0.60947  0.59133  0.07163  1.0000
  C   C190      1.0  0.98187  0.59133  0.57163  1.0000
  C   C191      1.0  0.60947  0.01813  0.57163  1.0000
  C   C192      1.0  0.40867  0.39053  0.57163  1.0000
  C   C193      1.0  0.07533  0.35147  0.40497  1.0000
  C   C194      1.0  0.64853  0.72387  0.40497  1.0000
  C   C195      1.0  0.27613  0.92467  0.40497  1.0000
  C   C196      1.0  0.64853  0.92467  0.90497  1.0000
  C   C197      1.0  0.27613  0.35147  0.90497  1.0000
  C   C198      1.0  0.07533  0.72387  0.90497  1.0000
  C   C199      1.0  0.74740  0.65840  0.79100  1.0000
  C   C200      1.0  0.34160  0.08900  0.79100  1.0000
  C   C201      1.0  0.91100  0.25260  0.79100  1.0000
  C   C202      1.0  0.34160  0.25260  0.29100  1.0000
  C   C203      1.0  0.91100  0.65840  0.29100  1.0000
  C   C204      1.0  0.74740  0.08900  0.29100  1.0000
  C   C205      1.0  0.41407  0.99173  0.12433  1.0000
  C   C206      1.0  0.00827  0.42233  0.12433  1.0000
  C   C207      1.0  0.57767  0.58593  0.12433  1.0000
  C   C208      1.0  0.00827  0.58593  0.62433  1.0000
  C   C209      1.0  0.57767  0.99173  0.62433  1.0000
  C   C210      1.0  0.41407  0.42233  0.62433  1.0000
  C   C211      1.0  0.08073  0.32507  0.45767  1.0000
  C   C212      1.0  0.67493  0.75567  0.45767  1.0000
  C   C213      1.0  0.24433  0.91927  0.45767  1.0000
  C   C214      1.0  0.67493  0.91927  0.95767  1.0000
  C   C215      1.0  0.24433  0.32507  0.95767  1.0000
  C   C216      1.0  0.08073  0.75567  0.95767  1.0000
  F   F1        1.0  0.72250  0.49215  0.08120  1.0000
  F   F2        1.0  0.50785  0.23035  0.08120  1.0000
  F   F3        1.0  0.76965  0.27750  0.08120  1.0000
  F   F4        1.0  0.50785  0.27750  0.58120  1.0000
  F   F5        1.0  0.76965  0.49215  0.58120  1.0000
  F   F6        1.0  0.72250  0.23035  0.58120  1.0000
  F   F7        1.0  0.38917  0.82548  0.41453  1.0000
  F   F8        1.0  0.17452  0.56368  0.41453  1.0000
  F   F9        1.0  0.43632  0.61083  0.41453  1.0000
  F   F10       1.0  0.17452  0.61083  0.91453  1.0000
  F   F11       1.0  0.43632  0.82548  0.91453  1.0000
  F   F12       1.0  0.38917  0.56368  0.91453  1.0000
  F   F13       1.0  0.05583  0.15882  0.74787  1.0000
  F   F14       1.0  0.84118  0.89702  0.74787  1.0000
  F   F15       1.0  0.10298  0.94417  0.74787  1.0000
  F   F16       1.0  0.84118  0.94417  0.24787  1.0000
  F   F17       1.0  0.10298  0.15882  0.24787  1.0000
  F   F18       1.0  0.05583  0.89702  0.24787  1.0000
  F   F19       1.0  0.60200  0.42207  0.85160  1.0000
  F   F20       1.0  0.57793  0.17993  0.85160  1.0000
  F   F21       1.0  0.82007  0.39800  0.85160  1.0000
  F   F22       1.0  0.57793  0.39800  0.35160  1.0000
  F   F23       1.0  0.82007  0.42207  0.35160  1.0000
  F   F24       1.0  0.60200  0.17993  0.35160  1.0000
  F   F25       1.0  0.26867  0.75540  0.18493  1.0000
  F   F26       1.0  0.24460  0.51326  0.18493  1.0000
  F   F27       1.0  0.48674  0.73133  0.18493  1.0000
  F   F28       1.0  0.24460  0.73133  0.68493  1.0000
  F   F29       1.0  0.48674  0.75540  0.68493  1.0000
  F   F30       1.0  0.26867  0.51326  0.68493  1.0000
  F   F31       1.0  0.93533  0.08874  0.51827  1.0000
  F   F32       1.0  0.91126  0.84660  0.51827  1.0000
  F   F33       1.0  0.15340  0.06467  0.51827  1.0000
  F   F34       1.0  0.91126  0.06467  0.01827  1.0000
  F   F35       1.0  0.15340  0.08874  0.01827  1.0000
  F   F36       1.0  0.93533  0.84660  0.01827  1.0000
  F   F37       1.0  0.62145  0.67491  0.79250  1.0000
  F   F38       1.0  0.32509  0.94654  0.79250  1.0000
  F   F39       1.0  0.05346  0.37855  0.79250  1.0000
  F   F40       1.0  0.32509  0.37855  0.29250  1.0000
  F   F41       1.0  0.05346  0.67491  0.29250  1.0000
  F   F42       1.0  0.62145  0.94654  0.29250  1.0000
  F   F43       1.0  0.28812  0.00824  0.12583  1.0000
  F   F44       1.0  0.99176  0.27987  0.12583  1.0000
  F   F45       1.0  0.72013  0.71188  0.12583  1.0000
  F   F46       1.0  0.99176  0.71188  0.62583  1.0000
  F   F47       1.0  0.72013  0.00824  0.62583  1.0000
  F   F48       1.0  0.28812  0.27987  0.62583  1.0000
  F   F49       1.0  0.95478  0.34158  0.45917  1.0000
  F   F50       1.0  0.65842  0.61321  0.45917  1.0000
  F   F51       1.0  0.38679  0.04522  0.45917  1.0000
  F   F52       1.0  0.65842  0.04522  0.95917  1.0000
  F   F53       1.0  0.38679  0.34158  0.95917  1.0000
  F   F54       1.0  0.95478  0.61321  0.95917  1.0000
  F   F55       1.0  0.78825  0.65330  0.78980  1.0000
  F   F56       1.0  0.34670  0.13495  0.78980  1.0000
  F   F57       1.0  0.86505  0.21175  0.78980  1.0000
  F   F58       1.0  0.34670  0.21175  0.28980  1.0000
  F   F59       1.0  0.86505  0.65330  0.28980  1.0000
  F   F60       1.0  0.78825  0.13495  0.28980  1.0000
  F   F61       1.0  0.45492  0.98663  0.12313  1.0000
  F   F62       1.0  0.01337  0.46828  0.12313  1.0000
  F   F63       1.0  0.53172  0.54508  0.12313  1.0000
  F   F64       1.0  0.01337  0.54508  0.62313  1.0000
  F   F65       1.0  0.53172  0.98663  0.62313  1.0000
  F   F66       1.0  0.45492  0.46828  0.62313  1.0000
  F   F67       1.0  0.12158  0.31997  0.45647  1.0000
  F   F68       1.0  0.68003  0.80162  0.45647  1.0000
  F   F69       1.0  0.19838  0.87842  0.45647  1.0000
  F   F70       1.0  0.68003  0.87842  0.95647  1.0000
  F   F71       1.0  0.19838  0.31997  0.95647  1.0000
  F   F72       1.0  0.12158  0.80162  0.95647  1.0000
  Zn  Zn1       1.0  0.65832  0.58132  0.95694  1.0000
  Zn  Zn2       1.0  0.41868  0.07700  0.95694  1.0000
  Zn  Zn3       1.0  0.92300  0.34168  0.95694  1.0000
  Zn  Zn4       1.0  0.41868  0.34168  0.45694  1.0000
  Zn  Zn5       1.0  0.92300  0.58132  0.45694  1.0000
  Zn  Zn6       1.0  0.65832  0.07700  0.45694  1.0000
  Zn  Zn7       1.0  0.32499  0.91465  0.29027  1.0000
  Zn  Zn8       1.0  0.08535  0.41033  0.29027  1.0000
  Zn  Zn9       1.0  0.58967  0.67501  0.29027  1.0000
  Zn  Zn10      1.0  0.08535  0.67501  0.79027  1.0000
  Zn  Zn11      1.0  0.58967  0.91465  0.79027  1.0000
  Zn  Zn12      1.0  0.32499  0.41033  0.79027  1.0000
  Zn  Zn13      1.0  0.99165  0.24799  0.62361  1.0000
  Zn  Zn14      1.0  0.75201  0.74367  0.62361  1.0000
  Zn  Zn15      1.0  0.25633  0.00835  0.62361  1.0000
  Zn  Zn16      1.0  0.75201  0.00835  0.12361  1.0000
  Zn  Zn17      1.0  0.25633  0.24799  0.12361  1.0000
  Zn  Zn18      1.0  0.99165  0.74367  0.12361  1.0000
  Zn  Zn19      1.0  0.66670  0.33330  0.97547  1.0000
  Zn  Zn20      1.0  0.66670  0.33330  0.47547  1.0000
  Zn  Zn21      1.0  0.33337  0.66663  0.30880  1.0000
  Zn  Zn22      1.0  0.33337  0.66663  0.80880  1.0000
  Zn  Zn23      1.0  0.00003  0.99997  0.64214  1.0000
  Zn  Zn24      1.0  0.00003  0.99997  0.14214  1.0000
  O   O1        1.0  0.69030  0.39810  0.02950  1.0000
  O   O2        1.0  0.60190  0.29220  0.02950  1.0000
  O   O3        1.0  0.70780  0.30970  0.02950  1.0000
  O   O4        1.0  0.60190  0.30970  0.52950  1.0000
  O   O5        1.0  0.70780  0.39810  0.52950  1.0000
  O   O6        1.0  0.69030  0.29220  0.52950  1.0000
  O   O7        1.0  0.35697  0.73143  0.36283  1.0000
  O   O8        1.0  0.26857  0.62553  0.36283  1.0000
  O   O9        1.0  0.37447  0.64303  0.36283  1.0000
  O   O10       1.0  0.26857  0.64303  0.86283  1.0000
  O   O11       1.0  0.37447  0.73143  0.86283  1.0000
  O   O12       1.0  0.35697  0.62553  0.86283  1.0000
  O   O13       1.0  0.02363  0.06477  0.69617  1.0000
  O   O14       1.0  0.93523  0.95887  0.69617  1.0000
  O   O15       1.0  0.04113  0.97637  0.69617  1.0000
  O   O16       1.0  0.93523  0.97637  0.19617  1.0000
  O   O17       1.0  0.04113  0.06477  0.19617  1.0000
  O   O18       1.0  0.02363  0.95887  0.19617  1.0000
  O   O19       1.0  0.63660  0.36720  0.91550  1.0000
  O   O20       1.0  0.63280  0.26940  0.91550  1.0000
  O   O21       1.0  0.73060  0.36340  0.91550  1.0000
  O   O22       1.0  0.63280  0.36340  0.41550  1.0000
  O   O23       1.0  0.73060  0.36720  0.41550  1.0000
  O   O24       1.0  0.63660  0.26940  0.41550  1.0000
  O   O25       1.0  0.30327  0.70053  0.24883  1.0000
  O   O26       1.0  0.29947  0.60273  0.24883  1.0000
  O   O27       1.0  0.39727  0.69673  0.24883  1.0000
  O   O28       1.0  0.29947  0.69673  0.74883  1.0000
  O   O29       1.0  0.39727  0.70053  0.74883  1.0000
  O   O30       1.0  0.30327  0.60273  0.74883  1.0000
  O   O31       1.0  0.96993  0.03387  0.58217  1.0000
  O   O32       1.0  0.96613  0.93607  0.58217  1.0000
  O   O33       1.0  0.06393  0.03007  0.58217  1.0000
  O   O34       1.0  0.96613  0.03007  0.08217  1.0000
  O   O35       1.0  0.06393  0.03387  0.08217  1.0000
  O   O36       1.0  0.96993  0.93607  0.08217  1.0000
  O   O37       1.0  0.68970  0.54747  0.01410  1.0000
  O   O38       1.0  0.45253  0.14223  0.01410  1.0000
  O   O39       1.0  0.85777  0.31030  0.01410  1.0000
  O   O40       1.0  0.45253  0.31030  0.51410  1.0000
  O   O41       1.0  0.85777  0.54747  0.51410  1.0000
  O   O42       1.0  0.68970  0.14223  0.51410  1.0000
  O   O43       1.0  0.35637  0.88080  0.34743  1.0000
  O   O44       1.0  0.11920  0.47556  0.34743  1.0000
  O   O45       1.0  0.52444  0.64363  0.34743  1.0000
  O   O46       1.0  0.11920  0.64363  0.84743  1.0000
  O   O47       1.0  0.52444  0.88080  0.84743  1.0000
  O   O48       1.0  0.35637  0.47556  0.84743  1.0000
  O   O49       1.0  0.02303  0.21414  0.68077  1.0000
  O   O50       1.0  0.78586  0.80890  0.68077  1.0000
  O   O51       1.0  0.19110  0.97697  0.68077  1.0000
  O   O52       1.0  0.78586  0.97697  0.18077  1.0000
  O   O53       1.0  0.19110  0.21414  0.18077  1.0000
  O   O54       1.0  0.02303  0.80890  0.18077  1.0000
  O   O55       1.0  0.62740  0.51250  0.90930  1.0000
  O   O56       1.0  0.48750  0.11490  0.90930  1.0000
  O   O57       1.0  0.88510  0.37260  0.90930  1.0000
  O   O58       1.0  0.48750  0.37260  0.40930  1.0000
  O   O59       1.0  0.88510  0.51250  0.40930  1.0000
  O   O60       1.0  0.62740  0.11490  0.40930  1.0000
  O   O61       1.0  0.29407  0.84583  0.24263  1.0000
  O   O62       1.0  0.15417  0.44823  0.24263  1.0000
  O   O63       1.0  0.55177  0.70593  0.24263  1.0000
  O   O64       1.0  0.15417  0.70593  0.74263  1.0000
  O   O65       1.0  0.55177  0.84583  0.74263  1.0000
  O   O66       1.0  0.29407  0.44823  0.74263  1.0000
  O   O67       1.0  0.96073  0.17917  0.57597  1.0000
  O   O68       1.0  0.82083  0.78157  0.57597  1.0000
  O   O69       1.0  0.21843  0.03927  0.57597  1.0000
  O   O70       1.0  0.82083  0.03927  0.07597  1.0000
  O   O71       1.0  0.21843  0.17917  0.07597  1.0000
  O   O72       1.0  0.96073  0.78157  0.07597  1.0000
  O   O73       1.0  0.71700  0.61120  0.88940  1.0000
  O   O74       1.0  0.38880  0.10580  0.88940  1.0000
  O   O75       1.0  0.89420  0.28300  0.88940  1.0000
  O   O76       1.0  0.38880  0.28300  0.38940  1.0000
  O   O77       1.0  0.89420  0.61120  0.38940  1.0000
  O   O78       1.0  0.71700  0.10580  0.38940  1.0000
  O   O79       1.0  0.38367  0.94453  0.22273  1.0000
  O   O80       1.0  0.05547  0.43913  0.22273  1.0000
  O   O81       1.0  0.56087  0.61633  0.22273  1.0000
  O   O82       1.0  0.05547  0.61633  0.72273  1.0000
  O   O83       1.0  0.56087  0.94453  0.72273  1.0000
  O   O84       1.0  0.38367  0.43913  0.72273  1.0000
  O   O85       1.0  0.05033  0.27787  0.55607  1.0000
  O   O86       1.0  0.72213  0.77247  0.55607  1.0000
  O   O87       1.0  0.22753  0.94967  0.55607  1.0000
  O   O88       1.0  0.72213  0.94967  0.05607  1.0000
  O   O89       1.0  0.22753  0.27787  0.05607  1.0000
  O   O90       1.0  0.05033  0.77247  0.05607  1.0000
  O   O91       1.0  0.63640  0.61880  0.88930  1.0000
  O   O92       1.0  0.38120  0.01760  0.88930  1.0000
  O   O93       1.0  0.98240  0.36360  0.88930  1.0000
  O   O94       1.0  0.38120  0.36360  0.38930  1.0000
  O   O95       1.0  0.98240  0.61880  0.38930  1.0000
  O   O96       1.0  0.63640  0.01760  0.38930  1.0000
  O   O97       1.0  0.30307  0.95213  0.22263  1.0000
  O   O98       1.0  0.04787  0.35093  0.22263  1.0000
  O   O99       1.0  0.64907  0.69693  0.22263  1.0000
  O   O100      1.0  0.04787  0.69693  0.72263  1.0000
  O   O101      1.0  0.64907  0.95213  0.72263  1.0000
  O   O102      1.0  0.30307  0.35093  0.72263  1.0000
  O   O103      1.0  0.96973  0.28547  0.55597  1.0000
  O   O104      1.0  0.71453  0.68427  0.55597  1.0000
  O   O105      1.0  0.31573  0.03027  0.55597  1.0000
  O   O106      1.0  0.71453  0.03027  0.05597  1.0000
  O   O107      1.0  0.31573  0.28547  0.05597  1.0000
  O   O108      1.0  0.96973  0.68427  0.05597  1.0000
  O   O109      1.0  0.69220  0.71619  0.69170  1.0000
  O   O110      1.0  0.28381  0.97601  0.69170  1.0000
  O   O111      1.0  0.02399  0.30780  0.69170  1.0000
  O   O112      1.0  0.28381  0.30780  0.19170  1.0000
  O   O113      1.0  0.02399  0.71619  0.19170  1.0000
  O   O114      1.0  0.69220  0.97601  0.19170  1.0000
  O   O115      1.0  0.35887  0.04952  0.02503  1.0000
  O   O116      1.0  0.95048  0.30934  0.02503  1.0000
  O   O117      1.0  0.69066  0.64113  0.02503  1.0000
  O   O118      1.0  0.95048  0.64113  0.52503  1.0000
  O   O119      1.0  0.69066  0.04952  0.52503  1.0000
  O   O120      1.0  0.35887  0.30934  0.52503  1.0000
  O   O121      1.0  0.02553  0.38286  0.35837  1.0000
  O   O122      1.0  0.61714  0.64268  0.35837  1.0000
  O   O123      1.0  0.35732  0.97447  0.35837  1.0000
  O   O124      1.0  0.61714  0.97447  0.85837  1.0000
  O   O125      1.0  0.35732  0.38286  0.85837  1.0000
  O   O126      1.0  0.02553  0.64268  0.85837  1.0000
  O   O127      1.0  0.77140  0.70480  0.68890  1.0000
  O   O128      1.0  0.29520  0.06660  0.68890  1.0000
  O   O129      1.0  0.93340  0.22860  0.68890  1.0000
  O   O130      1.0  0.29520  0.22860  0.18890  1.0000
  O   O131      1.0  0.93340  0.70480  0.18890  1.0000
  O   O132      1.0  0.77140  0.06660  0.18890  1.0000
  O   O133      1.0  0.43807  0.03813  0.02223  1.0000
  O   O134      1.0  0.96187  0.39993  0.02223  1.0000
  O   O135      1.0  0.60007  0.56193  0.02223  1.0000
  O   O136      1.0  0.96187  0.56193  0.52223  1.0000
  O   O137      1.0  0.60007  0.03813  0.52223  1.0000
  O   O138      1.0  0.43807  0.39993  0.52223  1.0000
  O   O139      1.0  0.10473  0.37147  0.35557  1.0000
  O   O140      1.0  0.62853  0.73327  0.35557  1.0000
  O   O141      1.0  0.26673  0.89527  0.35557  1.0000
  O   O142      1.0  0.62853  0.89527  0.85557  1.0000
  O   O143      1.0  0.26673  0.37147  0.85557  1.0000
  O   O144      1.0  0.10473  0.73327  0.85557  1.0000
