data_image0
_chemical_formula_structural       Co2C2B8C2B2C2B6C2B20H44
_chemical_formula_sum              "Co2 C8 B36 H44"
_cell_length_a       7.2351
_cell_length_b       11.4767
_cell_length_c       17.6132
_cell_angle_alpha    105.897
_cell_angle_beta     93.141
_cell_angle_gamma    95.617

_space_group_name_H-M_alt    "P 1"
_space_group_IT_number       1

loop_
  _space_group_symop_operation_xyz
  'x, y, z'

loop_
  _atom_site_type_symbol
  _atom_site_label
  _atom_site_symmetry_multiplicity
  _atom_site_fract_x
  _atom_site_fract_y
  _atom_site_fract_z
  _atom_site_occupancy
  Co  Co1       1.0  0.27373  0.00664  0.66466  1.0000
  Co  Co2       1.0  0.72627  0.99336  0.33534  1.0000
  C   C1        1.0  0.41391  0.17614  0.68009  1.0000
  C   C2        1.0  0.58609  0.82386  0.31991  1.0000
  B   B1        1.0  0.03802  0.09518  0.64724  1.0000
  B   B2        1.0  0.96198  0.90482  0.35276  1.0000
  B   B3        1.0  0.18603  0.25619  0.79894  1.0000
  B   B4        1.0  0.81397  0.74381  0.20106  1.0000
  B   B5        1.0  0.99287  0.22334  0.72524  1.0000
  B   B6        1.0  0.00713  0.77666  0.27476  1.0000
  B   B7        1.0  0.07960  0.24786  0.63771  1.0000
  B   B8        1.0  0.92040  0.75214  0.36229  1.0000
  C   C3        1.0  0.23835  0.14551  0.61344  1.0000
  C   C4        1.0  0.76165  0.85449  0.38656  1.0000
  B   B9        1.0  0.32670  0.87896  0.72666  1.0000
  B   B10       1.0  0.67330  0.12104  0.27334  1.0000
  C   C5        1.0  0.20006  0.85468  0.57134  1.0000
  C   C6        1.0  0.79994  0.14532  0.42866  1.0000
  B   B11       1.0  0.13100  0.83842  0.65661  1.0000
  B   B12       1.0  0.86900  0.16158  0.34339  1.0000
  B   B13       1.0  0.34869  0.14931  0.76689  1.0000
  B   B14       1.0  0.65131  0.85069  0.23311  1.0000
  B   B15       1.0  0.16960  0.34790  0.73191  1.0000
  B   B16       1.0  0.83040  0.65210  0.26809  1.0000
  C   C7        1.0  0.42550  0.90497  0.57934  1.0000
  C   C8        1.0  0.57450  0.09503  0.42066  1.0000
  B   B17       1.0  0.38860  0.30136  0.75554  1.0000
  B   B18       1.0  0.61140  0.69864  0.24446  1.0000
  B   B19       1.0  0.10013  0.10015  0.74847  1.0000
  B   B20       1.0  0.89987  0.89985  0.25153  1.0000
  B   B21       1.0  0.48790  0.77261  0.68787  1.0000
  B   B22       1.0  0.51210  0.22739  0.31213  1.0000
  B   B23       1.0  0.32090  0.29750  0.65662  1.0000
  B   B24       1.0  0.67910  0.70250  0.34338  1.0000
  B   B25       1.0  0.34780  0.75188  0.52828  1.0000
  B   B26       1.0  0.65220  0.24812  0.47172  1.0000
  B   B27       1.0  0.15860  0.70821  0.57822  1.0000
  B   B28       1.0  0.84140  0.29179  0.42178  1.0000
  B   B29       1.0  0.51929  0.92238  0.67559  1.0000
  B   B30       1.0  0.48071  0.07762  0.32441  1.0000
  B   B31       1.0  0.24470  0.72159  0.67720  1.0000
  B   B32       1.0  0.75530  0.27841  0.32280  1.0000
  B   B33       1.0  0.55200  0.79131  0.59520  1.0000
  B   B34       1.0  0.44800  0.20869  0.40480  1.0000
  B   B35       1.0  0.38390  0.66671  0.59718  1.0000
  B   B36       1.0  0.61610  0.33329  0.40282  1.0000
  H   H1        1.0  0.39800  0.34500  0.62160  1.0000
  H   H2        1.0  0.60200  0.65500  0.37840  1.0000
  H   H3        1.0  0.01100  0.27240  0.59010  1.0000
  H   H4        1.0  0.98900  0.72760  0.40990  1.0000
  H   H5        1.0  0.27000  0.12180  0.56140  1.0000
  H   H6        1.0  0.73000  0.87820  0.43860  1.0000
  H   H7        1.0  0.34000  0.72310  0.46530  1.0000
  H   H8        1.0  0.66000  0.27690  0.53470  1.0000
  H   H9        1.0  0.85000  0.24480  0.74270  1.0000
  H   H10       1.0  0.15000  0.75520  0.25730  1.0000
  H   H11       1.0  0.53300  0.17400  0.66340  1.0000
  H   H12       1.0  0.46700  0.82600  0.33660  1.0000
  H   H13       1.0  0.40900  0.57200  0.57660  1.0000
  H   H14       1.0  0.59100  0.42800  0.42340  1.0000
  H   H15       1.0  0.92900  0.03370  0.60510  1.0000
  H   H16       1.0  0.07100  0.96630  0.39490  1.0000
  H   H17       1.0  0.03500  0.65100  0.54940  1.0000
  H   H18       1.0  0.96500  0.34900  0.45060  1.0000
  H   H19       1.0  0.68400  0.77900  0.57040  1.0000
  H   H20       1.0  0.31600  0.22100  0.42960  1.0000
  H   H21       1.0  0.02300  0.04390  0.78180  1.0000
  H   H22       1.0  0.97700  0.95610  0.21820  1.0000
  H   H23       1.0  0.58100  0.74270  0.72720  1.0000
  H   H24       1.0  0.41900  0.25730  0.27280  1.0000
  H   H25       1.0  0.14500  0.44340  0.75090  1.0000
  H   H26       1.0  0.85500  0.55660  0.24910  1.0000
  H   H27       1.0  0.50900  0.36620  0.78450  1.0000
  H   H28       1.0  0.49100  0.63380  0.21550  1.0000
  H   H29       1.0  0.01200  0.84300  0.66500  1.0000
  H   H30       1.0  0.98800  0.15700  0.33500  1.0000
  H   H31       1.0  0.11800  0.87240  0.53410  1.0000
  H   H32       1.0  0.88200  0.12760  0.46590  1.0000
  H   H33       1.0  0.17800  0.66600  0.70760  1.0000
  H   H34       1.0  0.82200  0.33400  0.29240  1.0000
  H   H35       1.0  0.44900  0.13220  0.80870  1.0000
  H   H36       1.0  0.55100  0.86780  0.19130  1.0000
  H   H37       1.0  0.47900  0.95800  0.53890  1.0000
  H   H38       1.0  0.52100  0.04200  0.46110  1.0000
  H   H39       1.0  0.64000  0.98260  0.69880  1.0000
  H   H40       1.0  0.36000  0.01740  0.30120  1.0000
  H   H41       1.0  0.32000  0.90800  0.78980  1.0000
  H   H42       1.0  0.68000  0.09200  0.21020  1.0000
  H   H43       1.0  0.16900  0.29150  0.86050  1.0000
  H   H44       1.0  0.83100  0.70850  0.13950  1.0000
