data_image0
_chemical_formula_structural       Co4B4H4B4H4B4H4B4H4B4H4B4H4B4H4B4H4C4H4B4H4C4H4B4H4C4H4B4H4C4H4B4H4B4H4B4H4B4H4B4H4B4H4B4H4
_chemical_formula_sum              "Co4 B72 H88 C16"
_cell_length_a       18.788
_cell_length_b       7.141
_cell_length_c       20.199
_cell_angle_alpha    90
_cell_angle_beta     102.235
_cell_angle_gamma    90

_space_group_name_H-M_alt    "P 1"
_space_group_IT_number       1

loop_
  _space_group_symop_operation_xyz
  'x, y, z'

loop_
  _atom_site_type_symbol
  _atom_site_label
  _atom_site_symmetry_multiplicity
  _atom_site_fract_x
  _atom_site_fract_y
  _atom_site_fract_z
  _atom_site_occupancy
  Co  Co1       1.0  0.21377  0.25251  0.40014  1.0000
  Co  Co2       1.0  0.28623  0.75251  0.09986  1.0000
  Co  Co3       1.0  0.78623  0.74749  0.59986  1.0000
  Co  Co4       1.0  0.71377  0.24749  0.90014  1.0000
  B   B1        1.0  0.21510  0.41060  0.31398  1.0000
  B   B2        1.0  0.28490  0.91060  0.18602  1.0000
  B   B3        1.0  0.78490  0.58940  0.68602  1.0000
  B   B4        1.0  0.71510  0.08940  0.81398  1.0000
  H   H1        1.0  0.27070  0.46920  0.31520  1.0000
  H   H2        1.0  0.22930  0.96920  0.18480  1.0000
  H   H3        1.0  0.72930  0.53080  0.68480  1.0000
  H   H4        1.0  0.77070  0.03080  0.81520  1.0000
  B   B5        1.0  0.15800  0.50300  0.36650  1.0000
  B   B6        1.0  0.34200  0.00300  0.13350  1.0000
  B   B7        1.0  0.84200  0.49700  0.63350  1.0000
  B   B8        1.0  0.65800  0.99700  0.86650  1.0000
  H   H5        1.0  0.17380  0.62470  0.40140  1.0000
  H   H6        1.0  0.32620  0.12470  0.09860  1.0000
  H   H7        1.0  0.82620  0.37530  0.59860  1.0000
  H   H8        1.0  0.67380  0.87530  0.90140  1.0000
  B   B9        1.0  0.10307  0.31050  0.38450  1.0000
  B   B10       1.0  0.39693  0.81050  0.11550  1.0000
  B   B11       1.0  0.89693  0.68950  0.61550  1.0000
  B   B12       1.0  0.60307  0.18950  0.88450  1.0000
  H   H9        1.0  0.08280  0.30200  0.43270  1.0000
  H   H10       1.0  0.41720  0.80200  0.06730  1.0000
  H   H11       1.0  0.91720  0.69800  0.56730  1.0000
  H   H12       1.0  0.58280  0.19800  0.93270  1.0000
  B   B13       1.0  0.06570  0.47270  0.32030  1.0000
  B   B14       1.0  0.43430  0.97270  0.17970  1.0000
  B   B15       1.0  0.93430  0.52730  0.67970  1.0000
  B   B16       1.0  0.56570  0.02730  0.82030  1.0000
  H   H13       1.0  0.02190  0.57260  0.32740  1.0000
  H   H14       1.0  0.47810  0.07260  0.17260  1.0000
  H   H15       1.0  0.97810  0.42740  0.67260  1.0000
  H   H16       1.0  0.52190  0.92740  0.82740  1.0000
  B   B17       1.0  0.13580  0.53600  0.27630  1.0000
  B   B18       1.0  0.36420  0.03600  0.22370  1.0000
  B   B19       1.0  0.86420  0.46400  0.72370  1.0000
  B   B20       1.0  0.63580  0.96400  0.77630  1.0000
  H   H17       1.0  0.13920  0.67820  0.25380  1.0000
  H   H18       1.0  0.36080  0.17820  0.24620  1.0000
  H   H19       1.0  0.86080  0.32180  0.74620  1.0000
  H   H20       1.0  0.63920  0.82180  0.75380  1.0000
  B   B21       1.0  0.10370  0.14730  0.25230  1.0000
  B   B22       1.0  0.39630  0.64730  0.24770  1.0000
  B   B23       1.0  0.89630  0.85270  0.74770  1.0000
  B   B24       1.0  0.60370  0.35270  0.75230  1.0000
  H   H21       1.0  0.08680  0.03020  0.21550  1.0000
  H   H22       1.0  0.41320  0.53020  0.28450  1.0000
  H   H23       1.0  0.91320  0.96980  0.78450  1.0000
  H   H24       1.0  0.58680  0.46980  0.71550  1.0000
  B   B25       1.0  0.04750  0.23160  0.30560  1.0000
  B   B26       1.0  0.45250  0.73160  0.19440  1.0000
  B   B27       1.0  0.95250  0.76840  0.69440  1.0000
  B   B28       1.0  0.54750  0.26840  0.80560  1.0000
  H   H25       1.0  0.99250  0.16840  0.30370  1.0000
  H   H26       1.0  0.50750  0.66840  0.19630  1.0000
  H   H27       1.0  0.00750  0.83160  0.69630  1.0000
  H   H28       1.0  0.49250  0.33160  0.80370  1.0000
  B   B29       1.0  0.15860  0.33370  0.23530  1.0000
  B   B30       1.0  0.34140  0.83370  0.26470  1.0000
  B   B31       1.0  0.84140  0.66630  0.76470  1.0000
  B   B32       1.0  0.65860  0.16630  0.73530  1.0000
  H   H29       1.0  0.17780  0.33990  0.18650  1.0000
  H   H30       1.0  0.32220  0.83990  0.31350  1.0000
  H   H31       1.0  0.82220  0.66010  0.81350  1.0000
  H   H32       1.0  0.67780  0.16010  0.68650  1.0000
  C   C1        1.0  0.12732  0.12480  0.33938  1.0000
  C   C2        1.0  0.37268  0.62480  0.16062  1.0000
  C   C3        1.0  0.87268  0.87520  0.66062  1.0000
  C   C4        1.0  0.62732  0.37520  0.83938  1.0000
  H   H33       1.0  0.12400  0.97950  0.35940  1.0000
  H   H34       1.0  0.37600  0.47950  0.14060  1.0000
  H   H35       1.0  0.87600  0.02050  0.64060  1.0000
  H   H36       1.0  0.62400  0.52050  0.85940  1.0000
  B   B33       1.0  0.06570  0.37440  0.23950  1.0000
  B   B34       1.0  0.43430  0.87440  0.26050  1.0000
  B   B35       1.0  0.93430  0.62560  0.76050  1.0000
  B   B36       1.0  0.56570  0.12560  0.73950  1.0000
  H   H37       1.0  0.02260  0.41070  0.19390  1.0000
  H   H38       1.0  0.47740  0.91070  0.30610  1.0000
  H   H39       1.0  0.97740  0.58930  0.80610  1.0000
  H   H40       1.0  0.52260  0.08930  0.69390  1.0000
  C   C5        1.0  0.19027  0.18250  0.29950  1.0000
  C   C6        1.0  0.30973  0.68250  0.20050  1.0000
  C   C7        1.0  0.80973  0.81750  0.70050  1.0000
  C   C8        1.0  0.69027  0.31750  0.79950  1.0000
  H   H41       1.0  0.23220  0.07940  0.29080  1.0000
  H   H42       1.0  0.26780  0.57940  0.20920  1.0000
  H   H43       1.0  0.76780  0.92060  0.70920  1.0000
  H   H44       1.0  0.73220  0.42060  0.79080  1.0000
  B   B37       1.0  0.21183  0.08960  0.48557  1.0000
  B   B38       1.0  0.28817  0.58960  0.01443  1.0000
  B   B39       1.0  0.78817  0.91040  0.51443  1.0000
  B   B40       1.0  0.71183  0.41040  0.98557  1.0000
  H   H45       1.0  0.15690  0.02560  0.48320  1.0000
  H   H46       1.0  0.34310  0.52560  0.01680  1.0000
  H   H47       1.0  0.84310  0.97440  0.51680  1.0000
  H   H48       1.0  0.65690  0.47440  0.98320  1.0000
  C   C9        1.0  0.27281  0.02110  0.43893  1.0000
  C   C10       1.0  0.22719  0.52110  0.06107  1.0000
  C   C11       1.0  0.72719  0.97890  0.56107  1.0000
  C   C12       1.0  0.77281  0.47890  0.93893  1.0000
  H   H49       1.0  0.25730  0.90410  0.40170  1.0000
  H   H50       1.0  0.24270  0.40410  0.09830  1.0000
  H   H51       1.0  0.74270  0.09590  0.59830  1.0000
  H   H52       1.0  0.75730  0.59590  0.90170  1.0000
  B   B41       1.0  0.22938  0.33600  0.50210  1.0000
  B   B42       1.0  0.27062  0.83600  0.99790  1.0000
  B   B43       1.0  0.77062  0.66400  0.49790  1.0000
  B   B44       1.0  0.72938  0.16400  0.00210  1.0000
  H   H53       1.0  0.18730  0.43730  0.51180  1.0000
  H   H54       1.0  0.31270  0.93730  0.98820  1.0000
  H   H55       1.0  0.81270  0.56270  0.48820  1.0000
  H   H56       1.0  0.68730  0.06270  0.01180  1.0000
  C   C13       1.0  0.32251  0.19500  0.42371  1.0000
  C   C14       1.0  0.17749  0.69500  0.07629  1.0000
  C   C15       1.0  0.67749  0.80500  0.57629  1.0000
  C   C16       1.0  0.82251  0.30500  0.92371  1.0000
  H   H57       1.0  0.34260  0.20260  0.37540  1.0000
  H   H58       1.0  0.15740  0.70260  0.12460  1.0000
  H   H59       1.0  0.65740  0.79740  0.62460  1.0000
  H   H60       1.0  0.84260  0.29740  0.87540  1.0000
  B   B45       1.0  0.30088  0.39980  0.45851  1.0000
  B   B46       1.0  0.19912  0.89980  0.04149  1.0000
  B   B47       1.0  0.69912  0.60020  0.54149  1.0000
  B   B48       1.0  0.80088  0.10020  0.95851  1.0000
  H   H61       1.0  0.30640  0.54380  0.43820  1.0000
  H   H62       1.0  0.19360  0.04380  0.06180  1.0000
  H   H63       1.0  0.69360  0.45620  0.56180  1.0000
  H   H64       1.0  0.80640  0.95620  0.93820  1.0000
  B   B49       1.0  0.26716  0.16170  0.56392  1.0000
  B   B50       1.0  0.23284  0.66170  0.93608  1.0000
  B   B51       1.0  0.73284  0.83830  0.43608  1.0000
  B   B52       1.0  0.76716  0.33830  0.06392  1.0000
  H   H65       1.0  0.24770  0.14930  0.61250  1.0000
  H   H66       1.0  0.25230  0.64930  0.88750  1.0000
  H   H67       1.0  0.75230  0.85070  0.38750  1.0000
  H   H68       1.0  0.74770  0.35070  0.11250  1.0000
  B   B53       1.0  0.38040  0.26610  0.49552  1.0000
  B   B54       1.0  0.11960  0.76610  0.00448  1.0000
  B   B55       1.0  0.61960  0.73390  0.50448  1.0000
  B   B56       1.0  0.88040  0.23390  0.99552  1.0000
  H   H69       1.0  0.43620  0.32410  0.49770  1.0000
  H   H70       1.0  0.06380  0.82410  0.00230  1.0000
  H   H71       1.0  0.56380  0.67590  0.50230  1.0000
  H   H72       1.0  0.93620  0.17590  0.99770  1.0000
  B   B57       1.0  0.32189  0.35180  0.54737  1.0000
  B   B58       1.0  0.17811  0.85180  0.95263  1.0000
  B   B59       1.0  0.67811  0.64820  0.45263  1.0000
  B   B60       1.0  0.82189  0.14820  0.04737  1.0000
  H   H73       1.0  0.33910  0.46660  0.58520  1.0000
  H   H74       1.0  0.16090  0.96660  0.91480  1.0000
  H   H75       1.0  0.66090  0.53340  0.41480  1.0000
  H   H76       1.0  0.83910  0.03340  0.08520  1.0000
  B   B61       1.0  0.36350  0.02560  0.48103  1.0000
  B   B62       1.0  0.13650  0.52560  0.01897  1.0000
  B   B63       1.0  0.63650  0.97440  0.51897  1.0000
  B   B64       1.0  0.86350  0.47440  0.98103  1.0000
  H   H77       1.0  0.40670  0.92510  0.47320  1.0000
  H   H78       1.0  0.09330  0.42510  0.02680  1.0000
  H   H79       1.0  0.59330  0.07490  0.52680  1.0000
  H   H80       1.0  0.90670  0.57490  0.97320  1.0000
  B   B65       1.0  0.29300  0.96120  0.52217  1.0000
  B   B66       1.0  0.20700  0.46120  0.97783  1.0000
  B   B67       1.0  0.70700  0.03880  0.47783  1.0000
  B   B68       1.0  0.79300  0.53880  0.02217  1.0000
  H   H81       1.0  0.29030  0.81560  0.54210  1.0000
  H   H82       1.0  0.20970  0.31560  0.95790  1.0000
  H   H83       1.0  0.70970  0.18440  0.45790  1.0000
  H   H84       1.0  0.79030  0.68440  0.04210  1.0000
  B   B69       1.0  0.36070  0.12290  0.56080  1.0000
  B   B70       1.0  0.13930  0.62290  0.93920  1.0000
  B   B71       1.0  0.63930  0.87710  0.43920  1.0000
  B   B72       1.0  0.86070  0.37710  0.06080  1.0000
  H   H85       1.0  0.40270  0.08720  0.60730  1.0000
  H   H86       1.0  0.09730  0.58720  0.89270  1.0000
  H   H87       1.0  0.59730  0.91280  0.39270  1.0000
  H   H88       1.0  0.90270  0.41280  0.10730  1.0000
