data_image0
_chemical_formula_structural       Cd4O22H4O2H4O2H4O2H4C20
_chemical_formula_sum              "Cd4 O28 H16 C20"
_cell_length_a       8.4341
_cell_length_b       8.457
_cell_length_c       18.0891
_cell_angle_alpha    81.0679
_cell_angle_beta     88.2877
_cell_angle_gamma    87.7564

_space_group_name_H-M_alt    "P 1"
_space_group_IT_number       1

loop_
  _space_group_symop_operation_xyz
  'x, y, z'

loop_
  _atom_site_type_symbol
  _atom_site_label
  _atom_site_symmetry_multiplicity
  _atom_site_fract_x
  _atom_site_fract_y
  _atom_site_fract_z
  _atom_site_occupancy
  Cd  Cd1       1.0  0.47657  0.41032  0.23784  1.0000
  Cd  Cd2       1.0  0.52343  0.58968  0.76216  1.0000
  Cd  Cd3       1.0  0.50000  0.00000  0.00000  1.0000
  Cd  Cd4       1.0  0.00000  0.50000  0.00000  1.0000
  O   O1        1.0  0.48750  0.68010  0.18527  1.0000
  O   O2        1.0  0.51250  0.31990  0.81473  1.0000
  O   O3        1.0  0.48840  0.06020  0.11781  1.0000
  O   O4        1.0  0.51160  0.93980  0.88219  1.0000
  O   O5        1.0  0.44090  0.14560  0.28538  1.0000
  O   O6        1.0  0.55910  0.85440  0.71462  1.0000
  O   O7        1.0  0.42310  0.77110  0.35139  1.0000
  O   O8        1.0  0.57690  0.22890  0.64861  1.0000
  O   O9        1.0  0.22920  0.42460  0.18564  1.0000
  O   O10       1.0  0.77080  0.57540  0.81436  1.0000
  O   O11       1.0  0.87850  0.44500  0.11733  1.0000
  O   O12       1.0  0.12150  0.55500  0.88267  1.0000
  O   O13       1.0  0.72540  0.39840  0.28687  1.0000
  O   O14       1.0  0.27460  0.60160  0.71313  1.0000
  O   O15       1.0  0.07510  0.38120  0.35346  1.0000
  O   O16       1.0  0.92490  0.61880  0.64654  1.0000
  O   O17       1.0  0.25160  0.88840  0.00947  1.0000
  O   O18       1.0  0.74840  0.11160  0.99053  1.0000
  O   O19       1.0  0.10000  0.24380  0.00799  1.0000
  O   O20       1.0  0.90000  0.75620  0.99201  1.0000
  O   O21       1.0  0.37940  0.46610  0.34876  1.0000
  O   O22       1.0  0.62060  0.53390  0.65124  1.0000
  H   H1        1.0  0.39100  0.56900  0.35100  1.0000
  H   H2        1.0  0.60900  0.43100  0.64900  1.0000
  H   H3        1.0  0.27400  0.45600  0.34900  1.0000
  H   H4        1.0  0.72600  0.54400  0.65100  1.0000
  O   O23       1.0  0.56330  0.36900  0.12428  1.0000
  O   O24       1.0  0.43670  0.63100  0.87572  1.0000
  H   H5        1.0  0.66600  0.37500  0.12400  1.0000
  H   H6        1.0  0.33400  0.62500  0.87600  1.0000
  H   H7        1.0  0.55000  0.26600  0.12200  1.0000
  H   H8        1.0  0.45000  0.73400  0.87800  1.0000
  O   O25       1.0  0.57770  0.74550  0.03683  1.0000
  O   O26       1.0  0.42230  0.25450  0.96317  1.0000
  H   H9        1.0  0.56500  0.71000  0.08440  1.0000
  H   H10       1.0  0.43500  0.29000  0.91560  1.0000
  H   H11       1.0  0.66900  0.71800  0.01900  1.0000
  H   H12       1.0  0.33100  0.28200  0.98100  1.0000
  O   O27       1.0  0.23950  0.55370  0.03762  1.0000
  O   O28       1.0  0.76050  0.44630  0.96238  1.0000
  H   H13       1.0  0.25300  0.51800  0.08670  1.0000
  H   H14       1.0  0.74700  0.48200  0.91330  1.0000
  H   H15       1.0  0.26700  0.65200  0.03000  1.0000
  H   H16       1.0  0.73300  0.34800  0.97000  1.0000
  C   C1        1.0  0.46830  0.80870  0.21250  1.0000
  C   C2        1.0  0.53170  0.19130  0.78750  1.0000
  C   C3        1.0  0.47160  0.97790  0.18191  1.0000
  C   C4        1.0  0.52840  0.02210  0.81809  1.0000
  C   C5        1.0  0.44900  0.02040  0.25672  1.0000
  C   C6        1.0  0.55100  0.97960  0.74328  1.0000
  C   C7        1.0  0.44210  0.84910  0.28792  1.0000
  C   C8        1.0  0.55790  0.15090  0.71208  1.0000
  C   C9        1.0  0.09100  0.41840  0.21342  1.0000
  C   C10       1.0  0.90900  0.58160  0.78658  1.0000
  C   C11       1.0  0.93310  0.42680  0.18206  1.0000
  C   C12       1.0  0.06690  0.57320  0.81794  1.0000
  C   C13       1.0  0.86240  0.40460  0.25786  1.0000
  C   C14       1.0  0.13760  0.59540  0.74214  1.0000
  C   C15       1.0  0.02120  0.39680  0.28878  1.0000
  C   C16       1.0  0.97880  0.60320  0.71122  1.0000
  C   C17       1.0  0.11450  0.95010  0.00442  1.0000
  C   C18       1.0  0.88550  0.04990  0.99558  1.0000
  C   C19       1.0  0.04370  0.11090  0.00315  1.0000
  C   C20       1.0  0.95630  0.88910  0.99685  1.0000
