data_image0
_chemical_formula_structural       U4Li4C16O28H8O20H8
_chemical_formula_sum              "U4 Li4 C16 O48 H16"
_cell_length_a       7.1682
_cell_length_b       29.639
_cell_length_c       6.677
_cell_angle_alpha    90
_cell_angle_beta     112.3
_cell_angle_gamma    90

_space_group_name_H-M_alt    "P 1"
_space_group_IT_number       1

loop_
  _space_group_symop_operation_xyz
  'x, y, z'

loop_
  _atom_site_type_symbol
  _atom_site_label
  _atom_site_symmetry_multiplicity
  _atom_site_fract_x
  _atom_site_fract_y
  _atom_site_fract_z
  _atom_site_occupancy
  U   U1        1.0  0.30206  0.15946  0.74178  1.0000
  U   U2        1.0  0.69794  0.65946  0.75822  1.0000
  U   U3        1.0  0.69794  0.84054  0.25822  1.0000
  U   U4        1.0  0.30206  0.34054  0.24178  1.0000
  Li  Li1       1.0  0.81300  0.15950  0.23700  1.0000
  Li  Li2       1.0  0.18700  0.65950  0.26300  1.0000
  Li  Li3       1.0  0.18700  0.84050  0.76300  1.0000
  Li  Li4       1.0  0.81300  0.34050  0.73700  1.0000
  C   C1        1.0  0.01320  0.11530  0.96620  1.0000
  C   C2        1.0  0.98680  0.61530  0.53380  1.0000
  C   C3        1.0  0.98680  0.88470  0.03380  1.0000
  C   C4        1.0  0.01320  0.38470  0.46620  1.0000
  C   C5        1.0  0.10680  0.07460  0.89420  1.0000
  C   C6        1.0  0.89320  0.57460  0.60580  1.0000
  C   C7        1.0  0.89320  0.92540  0.10580  1.0000
  C   C8        1.0  0.10680  0.42540  0.39420  1.0000
  C   C9        1.0  0.60570  0.13300  0.50290  1.0000
  C   C10       1.0  0.39430  0.63300  0.99710  1.0000
  C   C11       1.0  0.39430  0.86700  0.49710  1.0000
  C   C12       1.0  0.60570  0.36700  0.00290  1.0000
  C   C13       1.0  0.60410  0.18530  0.50140  1.0000
  C   C14       1.0  0.39590  0.68530  0.99860  1.0000
  C   C15       1.0  0.39590  0.81470  0.49860  1.0000
  C   C16       1.0  0.60410  0.31470  0.00140  1.0000
  O   O1        1.0  0.50560  0.15960  0.99610  1.0000
  O   O2        1.0  0.49440  0.65960  0.50390  1.0000
  O   O3        1.0  0.49440  0.84040  0.00390  1.0000
  O   O4        1.0  0.50560  0.34040  0.49610  1.0000
  O   O5        1.0  0.10070  0.16140  0.48480  1.0000
  O   O6        1.0  0.89930  0.66140  0.01520  1.0000
  O   O7        1.0  0.89930  0.83860  0.51520  1.0000
  O   O8        1.0  0.10070  0.33860  0.98480  1.0000
  O   O9        1.0  0.06180  0.15340  0.91090  1.0000
  O   O10       1.0  0.93820  0.65340  0.58910  1.0000
  O   O11       1.0  0.93820  0.84660  0.08910  1.0000
  O   O12       1.0  0.06180  0.34660  0.41090  1.0000
  O   O13       1.0  0.22550  0.08410  0.80010  1.0000
  O   O14       1.0  0.77450  0.58410  0.69990  1.0000
  O   O15       1.0  0.77450  0.91590  0.19990  1.0000
  O   O16       1.0  0.22550  0.41590  0.30010  1.0000
  O   O17       1.0  0.49380  0.11520  0.59130  1.0000
  O   O18       1.0  0.50620  0.61520  0.90870  1.0000
  O   O19       1.0  0.50620  0.88480  0.40870  1.0000
  O   O20       1.0  0.49380  0.38480  0.09130  1.0000
  O   O21       1.0  0.49200  0.20360  0.58790  1.0000
  O   O22       1.0  0.50800  0.70360  0.91210  1.0000
  O   O23       1.0  0.50800  0.79640  0.41210  1.0000
  O   O24       1.0  0.49200  0.29640  0.08790  1.0000
  O   O25       1.0  0.23330  0.23500  0.81210  1.0000
  O   O26       1.0  0.76670  0.73500  0.68790  1.0000
  O   O27       1.0  0.76670  0.76500  0.18790  1.0000
  O   O28       1.0  0.23330  0.26500  0.31210  1.0000
  H   H1        1.0  0.32090  0.24300  0.93360  1.0000
  H   H2        1.0  0.67910  0.74300  0.56640  1.0000
  H   H3        1.0  0.67910  0.75700  0.06640  1.0000
  H   H4        1.0  0.32090  0.25700  0.43360  1.0000
  H   H5        1.0  0.14770  0.25530  0.74750  1.0000
  H   H6        1.0  0.85230  0.75530  0.75250  1.0000
  H   H7        1.0  0.85230  0.74470  0.25250  1.0000
  H   H8        1.0  0.14770  0.24470  0.24750  1.0000
  O   O29       1.0  0.90310  0.10930  0.06850  1.0000
  O   O30       1.0  0.09690  0.60930  0.43150  1.0000
  O   O31       1.0  0.09690  0.89070  0.93150  1.0000
  O   O32       1.0  0.90310  0.39070  0.56850  1.0000
  O   O33       1.0  0.05860  0.03700  0.93020  1.0000
  O   O34       1.0  0.94140  0.53700  0.56980  1.0000
  O   O35       1.0  0.94140  0.96300  0.06980  1.0000
  O   O36       1.0  0.05860  0.46300  0.43020  1.0000
  O   O37       1.0  0.71050  0.11310  0.42050  1.0000
  O   O38       1.0  0.28950  0.61310  0.07950  1.0000
  O   O39       1.0  0.28950  0.88690  0.57950  1.0000
  O   O40       1.0  0.71050  0.38690  0.92050  1.0000
  O   O41       1.0  0.70470  0.20500  0.41120  1.0000
  O   O42       1.0  0.29530  0.70500  0.08880  1.0000
  O   O43       1.0  0.29530  0.79500  0.58880  1.0000
  O   O44       1.0  0.70470  0.29500  0.91120  1.0000
  O   O45       1.0  0.90500  0.21650  0.09310  1.0000
  O   O46       1.0  0.09500  0.71650  0.40690  1.0000
  O   O47       1.0  0.09500  0.78350  0.90690  1.0000
  O   O48       1.0  0.90500  0.28350  0.59310  1.0000
  H   H9        1.0  0.80520  0.23030  0.00130  1.0000
  H   H10       1.0  0.19480  0.73030  0.49870  1.0000
  H   H11       1.0  0.19480  0.76970  0.99870  1.0000
  H   H12       1.0  0.80520  0.26970  0.50130  1.0000
  H   H13       1.0  0.95420  0.21840  0.99590  1.0000
  H   H14       1.0  0.04580  0.71840  0.50410  1.0000
  H   H15       1.0  0.04580  0.78160  0.00410  1.0000
  H   H16       1.0  0.95420  0.28160  0.49590  1.0000
