data_image0
_chemical_formula_structural       Mn4Cr4O8C8O16C8O16C8O8
_chemical_formula_sum              "Mn4 Cr4 O48 C24"
_cell_length_a       9.5274
_cell_length_b       15.7802
_cell_length_c       20.4054
_cell_angle_alpha    90
_cell_angle_beta     76.51
_cell_angle_gamma    90

_space_group_name_H-M_alt    "P 1"
_space_group_IT_number       1

loop_
  _space_group_symop_operation_xyz
  'x, y, z'

loop_
  _atom_site_type_symbol
  _atom_site_label
  _atom_site_symmetry_multiplicity
  _atom_site_fract_x
  _atom_site_fract_y
  _atom_site_fract_z
  _atom_site_occupancy
  Mn  Mn1       1.0  0.23032  0.12955  0.23349  1.0000
  Mn  Mn2       1.0  0.23032  0.37045  0.73349  1.0000
  Mn  Mn3       1.0  0.76968  0.87045  0.76651  1.0000
  Mn  Mn4       1.0  0.76968  0.62955  0.26651  1.0000
  Cr  Cr1       1.0  0.72631  0.96858  0.23761  1.0000
  Cr  Cr2       1.0  0.72631  0.53142  0.73761  1.0000
  Cr  Cr3       1.0  0.27369  0.03142  0.76239  1.0000
  Cr  Cr4       1.0  0.27369  0.46858  0.26239  1.0000
  O   O1        1.0  0.79520  0.06488  0.28405  1.0000
  O   O2        1.0  0.79520  0.43512  0.78405  1.0000
  O   O3        1.0  0.20480  0.93512  0.71595  1.0000
  O   O4        1.0  0.20480  0.56488  0.21595  1.0000
  O   O5        1.0  0.92570  0.97094  0.18159  1.0000
  O   O6        1.0  0.92570  0.52906  0.68159  1.0000
  O   O7        1.0  0.07430  0.02906  0.81841  1.0000
  O   O8        1.0  0.07430  0.47094  0.31841  1.0000
  C   C1        1.0  0.92880  0.07910  0.26250  1.0000
  C   C2        1.0  0.92880  0.42090  0.76250  1.0000
  C   C3        1.0  0.07120  0.92090  0.73750  1.0000
  C   C4        1.0  0.07120  0.57910  0.23750  1.0000
  C   C5        1.0  0.00480  0.02520  0.20130  1.0000
  C   C6        1.0  0.00480  0.47480  0.70130  1.0000
  C   C7        1.0  0.99520  0.97480  0.79870  1.0000
  C   C8        1.0  0.99520  0.52520  0.29870  1.0000
  O   O9        1.0  0.00200  0.13050  0.28533  1.0000
  O   O10       1.0  0.00200  0.36950  0.78533  1.0000
  O   O11       1.0  0.99800  0.86950  0.71467  1.0000
  O   O12       1.0  0.99800  0.63050  0.21467  1.0000
  O   O13       1.0  0.13400  0.03770  0.17693  1.0000
  O   O14       1.0  0.13400  0.46230  0.67693  1.0000
  O   O15       1.0  0.86600  0.96230  0.82307  1.0000
  O   O16       1.0  0.86600  0.53770  0.32307  1.0000
  O   O17       1.0  0.64970  0.04247  0.17631  1.0000
  O   O18       1.0  0.64970  0.45753  0.67631  1.0000
  O   O19       1.0  0.35030  0.95753  0.82369  1.0000
  O   O20       1.0  0.35030  0.54247  0.32369  1.0000
  O   O21       1.0  0.52860  0.97747  0.29385  1.0000
  O   O22       1.0  0.52860  0.52253  0.79385  1.0000
  O   O23       1.0  0.47140  0.02253  0.70615  1.0000
  O   O24       1.0  0.47140  0.47747  0.20615  1.0000
  C   C9        1.0  0.51780  0.06090  0.19800  1.0000
  C   C10       1.0  0.51780  0.43910  0.69800  1.0000
  C   C11       1.0  0.48220  0.93910  0.80200  1.0000
  C   C12       1.0  0.48220  0.56090  0.30200  1.0000
  C   C13       1.0  0.44670  0.02210  0.26750  1.0000
  C   C14       1.0  0.44670  0.47790  0.76750  1.0000
  C   C15       1.0  0.55330  0.97790  0.73250  1.0000
  C   C16       1.0  0.55330  0.52210  0.23250  1.0000
  O   O25       1.0  0.44410  0.10480  0.16922  1.0000
  O   O26       1.0  0.44410  0.39520  0.66922  1.0000
  O   O27       1.0  0.55590  0.89520  0.83078  1.0000
  O   O28       1.0  0.55590  0.60480  0.33078  1.0000
  O   O29       1.0  0.31700  0.03560  0.29116  1.0000
  O   O30       1.0  0.31700  0.46440  0.79116  1.0000
  O   O31       1.0  0.68300  0.96440  0.70884  1.0000
  O   O32       1.0  0.68300  0.53560  0.20884  1.0000
  O   O33       1.0  0.31630  0.36442  0.30776  1.0000
  O   O34       1.0  0.31630  0.13558  0.80776  1.0000
  O   O35       1.0  0.68370  0.63558  0.69224  1.0000
  O   O36       1.0  0.68370  0.86442  0.19224  1.0000
  O   O37       1.0  0.21920  0.38710  0.19927  1.0000
  O   O38       1.0  0.21920  0.11290  0.69927  1.0000
  O   O39       1.0  0.78080  0.61290  0.80073  1.0000
  O   O40       1.0  0.78080  0.88710  0.30073  1.0000
  C   C17       1.0  0.28710  0.29770  0.27980  1.0000
  C   C18       1.0  0.28710  0.20230  0.77980  1.0000
  C   C19       1.0  0.71290  0.70230  0.72020  1.0000
  C   C20       1.0  0.71290  0.79770  0.22020  1.0000
  C   C21       1.0  0.23330  0.31130  0.21470  1.0000
  C   C22       1.0  0.23330  0.18870  0.71470  1.0000
  C   C23       1.0  0.76670  0.68870  0.78530  1.0000
  C   C24       1.0  0.76670  0.81130  0.28530  1.0000
  O   O41       1.0  0.29340  0.22437  0.30027  1.0000
  O   O42       1.0  0.29340  0.27563  0.80027  1.0000
  O   O43       1.0  0.70660  0.77563  0.69973  1.0000
  O   O44       1.0  0.70660  0.72437  0.19973  1.0000
  O   O45       1.0  0.20750  0.24810  0.18359  1.0000
  O   O46       1.0  0.20750  0.25190  0.68359  1.0000
  O   O47       1.0  0.79250  0.75190  0.81641  1.0000
  O   O48       1.0  0.79250  0.74810  0.31641  1.0000
