data_image0
_chemical_formula_structural       Cr4Mn4O48C24
_chemical_formula_sum              "Cr4 Mn4 O48 C24"
_cell_length_a       9.535
_cell_length_b       15.89
_cell_length_c       18.229
_cell_angle_alpha    90
_cell_angle_beta     83.81
_cell_angle_gamma    90

_space_group_name_H-M_alt    "P 1"
_space_group_IT_number       1

loop_
  _space_group_symop_operation_xyz
  'x, y, z'

loop_
  _atom_site_type_symbol
  _atom_site_label
  _atom_site_symmetry_multiplicity
  _atom_site_fract_x
  _atom_site_fract_y
  _atom_site_fract_z
  _atom_site_occupancy
  Cr  Cr1       1.0  0.26199  0.08415  0.22367  1.0000
  Cr  Cr2       1.0  0.26199  0.41585  0.72367  1.0000
  Cr  Cr3       1.0  0.73801  0.91585  0.77633  1.0000
  Cr  Cr4       1.0  0.73801  0.58415  0.27633  1.0000
  Mn  Mn1       1.0  0.75801  0.24547  0.24488  1.0000
  Mn  Mn2       1.0  0.75801  0.25453  0.74488  1.0000
  Mn  Mn3       1.0  0.24199  0.75453  0.75512  1.0000
  Mn  Mn4       1.0  0.24199  0.74547  0.25512  1.0000
  O   O1        1.0  0.15670  0.17220  0.16740  1.0000
  O   O2        1.0  0.15670  0.32780  0.66740  1.0000
  O   O3        1.0  0.84330  0.82780  0.83260  1.0000
  O   O4        1.0  0.84330  0.67220  0.33260  1.0000
  O   O5        1.0  0.07150  0.08730  0.28960  1.0000
  O   O6        1.0  0.07150  0.41270  0.78960  1.0000
  O   O7        1.0  0.92850  0.91270  0.71040  1.0000
  O   O8        1.0  0.92850  0.58730  0.21040  1.0000
  O   O9        1.0  0.34750  0.17380  0.28770  1.0000
  O   O10       1.0  0.34750  0.32620  0.78770  1.0000
  O   O11       1.0  0.65250  0.82620  0.71230  1.0000
  O   O12       1.0  0.65250  0.67380  0.21230  1.0000
  O   O13       1.0  0.45710  0.09960  0.16460  1.0000
  O   O14       1.0  0.45710  0.40040  0.66460  1.0000
  O   O15       1.0  0.54290  0.90040  0.83540  1.0000
  O   O16       1.0  0.54290  0.59960  0.33540  1.0000
  O   O17       1.0  0.33600  0.99070  0.28700  1.0000
  O   O18       1.0  0.33600  0.50930  0.78700  1.0000
  O   O19       1.0  0.66400  0.00930  0.71300  1.0000
  O   O20       1.0  0.66400  0.49070  0.21300  1.0000
  O   O21       1.0  0.19690  0.97960  0.16860  1.0000
  O   O22       1.0  0.19690  0.52040  0.66860  1.0000
  O   O23       1.0  0.80310  0.02040  0.83140  1.0000
  O   O24       1.0  0.80310  0.47960  0.33140  1.0000
  O   O25       1.0  0.95020  0.24250  0.17820  1.0000
  O   O26       1.0  0.95020  0.25750  0.67820  1.0000
  O   O27       1.0  0.04980  0.75750  0.82180  1.0000
  O   O28       1.0  0.04980  0.74250  0.32180  1.0000
  O   O29       1.0  0.86050  0.14920  0.29580  1.0000
  O   O30       1.0  0.86050  0.35080  0.79580  1.0000
  O   O31       1.0  0.13950  0.85080  0.70420  1.0000
  O   O32       1.0  0.13950  0.64920  0.20420  1.0000
  O   O33       1.0  0.55770  0.23150  0.30200  1.0000
  O   O34       1.0  0.55770  0.26850  0.80200  1.0000
  O   O35       1.0  0.44230  0.76850  0.69800  1.0000
  O   O36       1.0  0.44230  0.73150  0.19800  1.0000
  O   O37       1.0  0.66390  0.16170  0.17400  1.0000
  O   O38       1.0  0.66390  0.33830  0.67400  1.0000
  O   O39       1.0  0.33610  0.83830  0.82600  1.0000
  O   O40       1.0  0.33610  0.66170  0.32600  1.0000
  O   O41       1.0  0.31430  0.85150  0.30460  1.0000
  O   O42       1.0  0.31430  0.64850  0.80460  1.0000
  O   O43       1.0  0.68570  0.14850  0.69540  1.0000
  O   O44       1.0  0.68570  0.35150  0.19540  1.0000
  O   O45       1.0  0.18000  0.83990  0.18420  1.0000
  O   O46       1.0  0.18000  0.66010  0.68420  1.0000
  O   O47       1.0  0.82000  0.16010  0.81580  1.0000
  O   O48       1.0  0.82000  0.33990  0.31580  1.0000
  C   C1        1.0  0.98430  0.13770  0.26700  1.0000
  C   C2        1.0  0.98430  0.36230  0.76700  1.0000
  C   C3        1.0  0.01570  0.86230  0.73300  1.0000
  C   C4        1.0  0.01570  0.63770  0.23300  1.0000
  C   C5        1.0  0.03480  0.18940  0.19810  1.0000
  C   C6        1.0  0.03480  0.31060  0.69810  1.0000
  C   C7        1.0  0.96520  0.81060  0.80190  1.0000
  C   C8        1.0  0.96520  0.68940  0.30190  1.0000
  C   C9        1.0  0.47660  0.18730  0.26850  1.0000
  C   C10       1.0  0.47660  0.31270  0.76850  1.0000
  C   C11       1.0  0.52340  0.81270  0.73150  1.0000
  C   C12       1.0  0.52340  0.68730  0.23150  1.0000
  C   C13       1.0  0.53800  0.14540  0.19610  1.0000
  C   C14       1.0  0.53800  0.35460  0.69610  1.0000
  C   C15       1.0  0.46200  0.85460  0.80390  1.0000
  C   C16       1.0  0.46200  0.64540  0.30390  1.0000
  C   C17       1.0  0.29580  0.91850  0.27030  1.0000
  C   C18       1.0  0.29580  0.58150  0.77030  1.0000
  C   C19       1.0  0.70420  0.08150  0.72970  1.0000
  C   C20       1.0  0.70420  0.41850  0.22970  1.0000
  C   C21       1.0  0.21720  0.91190  0.20170  1.0000
  C   C22       1.0  0.21720  0.58810  0.70170  1.0000
  C   C23       1.0  0.78280  0.08810  0.79830  1.0000
  C   C24       1.0  0.78280  0.41190  0.29830  1.0000
