data_image0
_chemical_formula_structural       Fe4P2H2O26C10
_chemical_formula_sum              "Fe4 P2 H2 O26 C10"
_cell_length_a       8.719
_cell_length_b       8.827
_cell_length_c       15.908
_cell_angle_alpha    78.617
_cell_angle_beta     84.047
_cell_angle_gamma    68.241

_space_group_name_H-M_alt    "P 1"
_space_group_IT_number       1

loop_
  _space_group_symop_operation_xyz
  'x, y, z'

loop_
  _atom_site_type_symbol
  _atom_site_label
  _atom_site_symmetry_multiplicity
  _atom_site_fract_x
  _atom_site_fract_y
  _atom_site_fract_z
  _atom_site_occupancy
  Fe  Fe1       1.0  0.27329  0.74673  0.57743  1.0000
  Fe  Fe2       1.0  0.72671  0.25327  0.42257  1.0000
  Fe  Fe3       1.0  0.22794  0.77370  0.92897  1.0000
  Fe  Fe4       1.0  0.77206  0.22630  0.07103  1.0000
  P   P1        1.0  0.15147  0.14868  0.97774  1.0000
  P   P2        1.0  0.84853  0.85132  0.02226  1.0000
  H   H1        1.0  0.24190  0.18290  0.98780  1.0000
  H   H2        1.0  0.75810  0.81710  0.01220  1.0000
  O   O1        1.0  0.28820  0.54790  0.51891  1.0000
  O   O2        1.0  0.71180  0.45210  0.48109  1.0000
  O   O3        1.0  0.29850  0.88890  0.66423  1.0000
  O   O4        1.0  0.70150  0.11110  0.33577  1.0000
  O   O5        1.0  0.47310  0.34360  0.45808  1.0000
  O   O6        1.0  0.52690  0.65640  0.54192  1.0000
  O   O7        1.0  0.20800  0.93710  0.46764  1.0000
  O   O8        1.0  0.79200  0.06290  0.53236  1.0000
  O   O9        1.0  0.99090  0.14460  0.40697  1.0000
  O   O10       1.0  0.00910  0.85540  0.59303  1.0000
  O   O11       1.0  0.28390  0.58600  0.70079  1.0000
  O   O12       1.0  0.71610  0.41400  0.29921  1.0000
  O   O13       1.0  0.22660  0.96250  0.98304  1.0000
  O   O14       1.0  0.77340  0.03750  0.01696  1.0000
  O   O15       1.0  0.02580  0.19200  0.05229  1.0000
  O   O16       1.0  0.97420  0.80800  0.94771  1.0000
  O   O17       1.0  0.29060  0.56160  0.02870  1.0000
  O   O18       1.0  0.70940  0.43840  0.97130  1.0000
  O   O19       1.0  0.23650  0.91840  0.80137  1.0000
  O   O20       1.0  0.76350  0.08160  0.19863  1.0000
  O   O21       1.0  0.24110  0.60590  0.83981  1.0000
  O   O22       1.0  0.75890  0.39410  0.16019  1.0000
  O   O23       1.0  0.49990  0.33700  0.08190  1.0000
  O   O24       1.0  0.50010  0.66300  0.91810  1.0000
  O   O25       1.0  0.08910  0.24220  0.89044  1.0000
  O   O26       1.0  0.91090  0.75780  0.10956  1.0000
  C   C1        1.0  0.26690  0.83810  0.74100  1.0000
  C   C2        1.0  0.73310  0.16190  0.25900  1.0000
  C   C3        1.0  0.26400  0.66120  0.76320  1.0000
  C   C4        1.0  0.73600  0.33880  0.23680  1.0000
  C   C5        1.0  0.05720  0.02450  0.46330  1.0000
  C   C6        1.0  0.94280  0.97550  0.53670  1.0000
  C   C7        1.0  0.43110  0.46850  0.49315  1.0000
  C   C8        1.0  0.56890  0.53150  0.50685  1.0000
  C   C9        1.0  0.44160  0.46950  0.03241  1.0000
  C   C10       1.0  0.55840  0.53050  0.96759  1.0000
