data_image0
_chemical_formula_structural       Fe4P4H4O24C4H8
_chemical_formula_sum              "Fe4 P4 H12 O24 C4"
_cell_length_a       7.684
_cell_length_b       8.651
_cell_length_c       10.053
_cell_angle_alpha    90
_cell_angle_beta     100.821
_cell_angle_gamma    90

_space_group_name_H-M_alt    "P 1"
_space_group_IT_number       1

loop_
  _space_group_symop_operation_xyz
  'x, y, z'

loop_
  _atom_site_type_symbol
  _atom_site_label
  _atom_site_symmetry_multiplicity
  _atom_site_fract_x
  _atom_site_fract_y
  _atom_site_fract_z
  _atom_site_occupancy
  Fe  Fe1       1.0  0.32917  0.49056  0.17880  1.0000
  Fe  Fe2       1.0  0.67083  0.99056  0.32120  1.0000
  Fe  Fe3       1.0  0.67083  0.50944  0.82120  1.0000
  Fe  Fe4       1.0  0.32917  0.00944  0.67880  1.0000
  P   P1        1.0  0.34452  0.20753  0.39732  1.0000
  P   P2        1.0  0.65548  0.70753  0.10268  1.0000
  P   P3        1.0  0.65548  0.79247  0.60268  1.0000
  P   P4        1.0  0.34452  0.29247  0.89732  1.0000
  H   H1        1.0  0.21590  0.19450  0.37190  1.0000
  H   H2        1.0  0.78410  0.69450  0.12810  1.0000
  H   H3        1.0  0.78410  0.80550  0.62810  1.0000
  H   H4        1.0  0.21590  0.30550  0.87190  1.0000
  O   O1        1.0  0.38200  0.37320  0.36030  1.0000
  O   O2        1.0  0.61800  0.87320  0.13970  1.0000
  O   O3        1.0  0.61800  0.62680  0.63970  1.0000
  O   O4        1.0  0.38200  0.12680  0.86030  1.0000
  O   O5        1.0  0.42450  0.08730  0.31760  1.0000
  O   O6        1.0  0.57550  0.58730  0.18240  1.0000
  O   O7        1.0  0.57550  0.91270  0.68240  1.0000
  O   O8        1.0  0.42450  0.41270  0.81760  1.0000
  O   O9        1.0  0.38840  0.18750  0.54960  1.0000
  O   O10       1.0  0.61160  0.68750  0.95040  1.0000
  O   O11       1.0  0.61160  0.81250  0.45040  1.0000
  O   O12       1.0  0.38840  0.31250  0.04960  1.0000
  O   O13       1.0  0.18180  0.62280  0.01110  1.0000
  O   O14       1.0  0.81820  0.12280  0.48890  1.0000
  O   O15       1.0  0.81820  0.37720  0.98890  1.0000
  O   O16       1.0  0.18180  0.87720  0.51110  1.0000
  O   O17       1.0  0.94310  0.60130  0.84860  1.0000
  O   O18       1.0  0.05690  0.10130  0.65140  1.0000
  O   O19       1.0  0.05690  0.39870  0.15140  1.0000
  O   O20       1.0  0.94310  0.89870  0.34860  1.0000
  O   O21       1.0  0.29570  0.70320  0.29680  1.0000
  O   O22       1.0  0.70430  0.20320  0.20320  1.0000
  O   O23       1.0  0.70430  0.29680  0.70320  1.0000
  O   O24       1.0  0.29570  0.79680  0.79680  1.0000
  C   C1        1.0  0.03600  0.56470  0.95860  1.0000
  C   C2        1.0  0.96400  0.06470  0.54140  1.0000
  C   C3        1.0  0.96400  0.43530  0.04140  1.0000
  C   C4        1.0  0.03600  0.93530  0.45860  1.0000
  H   H5        1.0  0.22500  0.75900  0.33000  1.0000
  H   H6        1.0  0.77500  0.25900  0.17000  1.0000
  H   H7        1.0  0.77500  0.24100  0.67000  1.0000
  H   H8        1.0  0.22500  0.74100  0.83000  1.0000
  H   H9        1.0  0.38900  0.74900  0.33500  1.0000
  H   H10       1.0  0.61100  0.24900  0.16500  1.0000
  H   H11       1.0  0.61100  0.25100  0.66500  1.0000
  H   H12       1.0  0.38900  0.75100  0.83500  1.0000
