data_image0
_chemical_formula_structural       Fe2N10H2N8C4N10H2N8C4N10H2N8C4O2N2C2H2C2H6C2H6Na2O2H4O2N2C2H2C2H6C2H6Na2O2H4O2N2C2H2C2H6C2H6
_chemical_formula_sum              "Fe2 N60 H56 C30 O10 Na4"
_cell_length_a       10.9071
_cell_length_b       12.8656
_cell_length_c       13.8554
_cell_angle_alpha    77.327
_cell_angle_beta     71.974
_cell_angle_gamma    78.734

_space_group_name_H-M_alt    "P 1"
_space_group_IT_number       1

loop_
  _space_group_symop_operation_xyz
  'x, y, z'

loop_
  _atom_site_type_symbol
  _atom_site_label
  _atom_site_symmetry_multiplicity
  _atom_site_fract_x
  _atom_site_fract_y
  _atom_site_fract_z
  _atom_site_occupancy
  Fe  Fe1       1.0  0.84313  0.29897  0.25377  1.0000
  Fe  Fe2       1.0  0.15687  0.70103  0.74623  1.0000
  N   N1        1.0  0.85990  0.44490  0.26190  1.0000
  N   N2        1.0  0.14010  0.55510  0.73810  1.0000
  N   N3        1.0  0.96470  0.49730  0.21210  1.0000
  N   N4        1.0  0.03530  0.50270  0.78790  1.0000
  N   N5        1.0  0.94480  0.58960  0.24170  1.0000
  N   N6        1.0  0.05520  0.41040  0.75830  1.0000
  N   N7        1.0  0.82720  0.60300  0.31070  1.0000
  N   N8        1.0  0.17280  0.39700  0.68930  1.0000
  N   N9        1.0  0.66130  0.49080  0.38550  1.0000
  N   N10       1.0  0.33870  0.50920  0.61450  1.0000
  H   H1        1.0  0.61020  0.54360  0.41530  1.0000
  H   H2        1.0  0.38980  0.45640  0.58470  1.0000
  N   N11       1.0  0.50630  0.37210  0.47460  1.0000
  N   N12       1.0  0.49370  0.62790  0.52540  1.0000
  N   N13       1.0  0.50280  0.26930  0.47260  1.0000
  N   N14       1.0  0.49720  0.73070  0.52740  1.0000
  N   N15       1.0  0.60650  0.22960  0.40950  1.0000
  N   N16       1.0  0.39350  0.77040  0.59050  1.0000
  N   N17       1.0  0.68400  0.30830  0.36430  1.0000
  N   N18       1.0  0.31600  0.69170  0.63570  1.0000
  C   C1        1.0  0.77890  0.51050  0.32140  1.0000
  C   C2        1.0  0.22110  0.48950  0.67860  1.0000
  C   C3        1.0  0.61780  0.39480  0.40670  1.0000
  C   C4        1.0  0.38220  0.60520  0.59330  1.0000
  N   N19       1.0  0.99930  0.29470  0.13890  1.0000
  N   N20       1.0  0.00070  0.70530  0.86110  1.0000
  N   N21       1.0  0.11850  0.23730  0.14150  1.0000
  N   N22       1.0  0.88150  0.76270  0.85850  1.0000
  N   N23       1.0  0.19680  0.25450  0.05100  1.0000
  N   N24       1.0  0.80320  0.74550  0.94900  1.0000
  N   N25       1.0  0.13650  0.32320  0.98340  1.0000
  N   N26       1.0  0.86350  0.67680  0.01660  1.0000
  N   N27       1.0  0.91980  0.41170  0.00670  1.0000
  N   N28       1.0  0.08020  0.58830  0.99330  1.0000
  H   H3        1.0  0.94080  0.45940  0.95030  1.0000
  H   H4        1.0  0.05920  0.54060  0.04970  1.0000
  N   N29       1.0  0.69400  0.44590  0.01420  1.0000
  N   N30       1.0  0.30600  0.55410  0.98580  1.0000
  N   N31       1.0  0.58620  0.41690  0.08910  1.0000
  N   N32       1.0  0.41380  0.58310  0.91090  1.0000
  N   N33       1.0  0.61470  0.36470  0.17070  1.0000
  N   N34       1.0  0.38530  0.63530  0.82930  1.0000
  N   N35       1.0  0.74860  0.35740  0.15250  1.0000
  N   N36       1.0  0.25140  0.64260  0.84750  1.0000
  C   C5        1.0  0.01520  0.34460  0.04240  1.0000
  C   C6        1.0  0.98480  0.65540  0.95760  1.0000
  C   C7        1.0  0.79040  0.40540  0.05830  1.0000
  C   C8        1.0  0.20960  0.59460  0.94170  1.0000
  N   N37       1.0  0.94370  0.23880  0.35220  1.0000
  N   N38       1.0  0.05630  0.76120  0.64780  1.0000
  N   N39       1.0  0.01950  0.29510  0.37820  1.0000
  N   N40       1.0  0.98050  0.70490  0.62180  1.0000
  N   N41       1.0  0.06860  0.23140  0.44850  1.0000
  N   N42       1.0  0.93140  0.76860  0.55150  1.0000
  N   N43       1.0  0.02830  0.13240  0.46990  1.0000
  N   N44       1.0  0.97170  0.86760  0.53010  1.0000
  N   N45       1.0  0.89170  0.05880  0.40470  1.0000
  N   N46       1.0  0.10830  0.94120  0.59530  1.0000
  H   H5        1.0  0.88550  0.00220  0.45410  1.0000
  H   H6        1.0  0.11450  0.99780  0.54590  1.0000
  N   N47       1.0  0.80180  0.98000  0.30740  1.0000
  N   N48       1.0  0.19820  0.02000  0.69260  1.0000
  N   N49       1.0  0.76050  0.01720  0.22210  1.0000
  N   N50       1.0  0.23950  0.98280  0.77790  1.0000
  N   N51       1.0  0.77220  0.11900  0.19070  1.0000
  N   N52       1.0  0.22780  0.88100  0.80930  1.0000
  N   N53       1.0  0.82310  0.14970  0.25510  1.0000
  N   N54       1.0  0.17690  0.85030  0.74490  1.0000
  C   C9        1.0  0.95240  0.14130  0.40880  1.0000
  C   C10       1.0  0.04760  0.85870  0.59120  1.0000
  C   C11       1.0  0.84040  0.06350  0.32410  1.0000
  C   C12       1.0  0.15960  0.93650  0.67590  1.0000
  O   O1        1.0  0.43170  0.18320  0.14370  1.0000
  O   O2        1.0  0.56830  0.81680  0.85630  1.0000
  N   N55       1.0  0.40440  0.07090  0.29800  1.0000
  N   N56       1.0  0.59560  0.92910  0.70200  1.0000
  C   C13       1.0  0.45110  0.15120  0.22870  1.0000
  C   C14       1.0  0.54890  0.84880  0.77130  1.0000
  H   H7        1.0  0.50610  0.18860  0.24600  1.0000
  H   H8        1.0  0.49390  0.81140  0.75400  1.0000
  C   C15       1.0  0.43810  0.03090  0.39020  1.0000
  C   C16       1.0  0.56190  0.96910  0.60980  1.0000
  H   H9        1.0  0.49550  0.07640  0.39810  1.0000
  H   H10       1.0  0.50450  0.92360  0.60190  1.0000
  H   H11       1.0  0.48320  0.95720  0.38890  1.0000
  H   H12       1.0  0.51680  0.04280  0.61110  1.0000
  H   H13       1.0  0.35900  0.03090  0.44830  1.0000
  H   H14       1.0  0.64100  0.96910  0.55170  1.0000
  C   C17       1.0  0.30670  0.01940  0.28110  1.0000
  C   C18       1.0  0.69330  0.98060  0.71890  1.0000
  H   H15       1.0  0.25460  0.07250  0.24190  1.0000
  H   H16       1.0  0.74540  0.92750  0.75810  1.0000
  H   H17       1.0  0.24990  0.99040  0.34770  1.0000
  H   H18       1.0  0.75010  0.00960  0.65230  1.0000
  H   H19       1.0  0.35000  0.96090  0.24240  1.0000
  H   H20       1.0  0.65000  0.03910  0.75760  1.0000
  Na  Na1       1.0  0.39040  0.36680  0.06630  1.0000
  Na  Na2       1.0  0.60960  0.63320  0.93370  1.0000
  O   O3        1.0  0.25180  0.39897  0.21230  1.0000
  O   O4        1.0  0.74820  0.60103  0.78770  1.0000
  H   H21       1.0  0.18770  0.45850  0.22540  1.0000
  H   H22       1.0  0.81230  0.54150  0.77460  1.0000
  H   H23       1.0  0.19330  0.34860  0.24350  1.0000
  H   H24       1.0  0.80670  0.65140  0.75650  1.0000
  O   O5        1.0  0.62980  0.04950  0.96450  1.0000
  O   O6        1.0  0.37020  0.95050  0.03550  1.0000
  N   N57       1.0  0.82780  0.10670  0.92130  1.0000
  N   N58       1.0  0.17220  0.89330  0.07870  1.0000
  C   C19       1.0  0.70420  0.10820  0.96780  1.0000
  C   C20       1.0  0.29580  0.89180  0.03220  1.0000
  H   H25       1.0  0.66640  0.16190  0.00990  1.0000
  H   H26       1.0  0.33360  0.83810  0.99010  1.0000
  C   C21       1.0  0.90890  0.17600  0.93030  1.0000
  C   C22       1.0  0.09110  0.82400  0.06970  1.0000
  H   H27       1.0  0.94740  0.21610  0.86210  1.0000
  H   H28       1.0  0.05260  0.78390  0.13790  1.0000
  H   H29       1.0  0.97830  0.13330  0.95890  1.0000
  H   H30       1.0  0.02170  0.86670  0.04110  1.0000
  H   H31       1.0  0.85680  0.22660  0.97600  1.0000
  H   H32       1.0  0.14320  0.77340  0.02400  1.0000
  C   C23       1.0  0.89530  0.01670  0.86970  1.0000
  C   C24       1.0  0.10470  0.98330  0.13030  1.0000
  H   H33       1.0  0.94110  0.96450  0.91430  1.0000
  H   H34       1.0  0.05890  0.03550  0.08570  1.0000
  H   H35       1.0  0.95830  0.04250  0.80510  1.0000
  H   H36       1.0  0.04170  0.95750  0.19490  1.0000
  H   H37       1.0  0.83220  0.98230  0.85470  1.0000
  H   H38       1.0  0.16780  0.01770  0.14530  1.0000
  Na  Na3       1.0  0.40840  0.13260  0.99230  1.0000
  Na  Na4       1.0  0.59160  0.86740  0.00770  1.0000
  O   O7        1.0  0.31750  0.14902  0.84890  1.0000
  O   O8        1.0  0.68250  0.85098  0.15110  1.0000
  H   H39       1.0  0.29560  0.08200  0.84850  1.0000
  H   H40       1.0  0.70440  0.91800  0.15150  1.0000
  H   H41       1.0  0.24600  0.20390  0.85470  1.0000
  H   H42       1.0  0.75400  0.79610  0.14530  1.0000
  O   O9        1.0  0.49730  0.30430  0.90600  1.0000
  O   O10       1.0  0.50270  0.69570  0.09400  1.0000
  N   N59       1.0  0.63330  0.33960  0.74360  1.0000
  N   N60       1.0  0.36670  0.66040  0.25640  1.0000
  C   C25       1.0  0.58200  0.35360  0.83660  1.0000
  C   C26       1.0  0.41800  0.64640  0.16340  1.0000
  H   H43       1.0  0.61140  0.40840  0.85640  1.0000
  H   H44       1.0  0.38860  0.59160  0.14360  1.0000
  C   C27       1.0  0.60900  0.25500  0.70300  1.0000
  C   C28       1.0  0.39100  0.74500  0.29700  1.0000
  H   H45       1.0  0.69040  0.20740  0.68100  1.0000
  H   H46       1.0  0.30960  0.79260  0.31900  1.0000
  H   H47       1.0  0.54520  0.21440  0.75590  1.0000
  H   H48       1.0  0.45480  0.78560  0.24410  1.0000
  H   H49       1.0  0.57490  0.28640  0.64350  1.0000
  H   H50       1.0  0.42510  0.71360  0.35650  1.0000
  C   C29       1.0  0.73100  0.40220  0.66470  1.0000
  C   C30       1.0  0.26900  0.59780  0.33530  1.0000
  H   H51       1.0  0.79880  0.35310  0.62550  1.0000
  H   H52       1.0  0.20120  0.64690  0.37450  1.0000
  H   H53       1.0  0.68820  0.45410  0.61790  1.0000
  H   H54       1.0  0.31180  0.54590  0.38210  1.0000
  H   H55       1.0  0.77030  0.44060  0.69870  1.0000
  H   H56       1.0  0.22970  0.55940  0.30130  1.0000
