data_image0
_chemical_formula_structural       Sn8O48C24
_chemical_formula_sum              "Sn8 O48 C24"
_cell_length_a       16.567
_cell_length_b       10.851
_cell_length_c       11.625
_cell_angle_alpha    90
_cell_angle_beta     102.62
_cell_angle_gamma    90

_space_group_name_H-M_alt    "P 1"
_space_group_IT_number       1

loop_
  _space_group_symop_operation_xyz
  'x, y, z'

loop_
  _atom_site_type_symbol
  _atom_site_label
  _atom_site_symmetry_multiplicity
  _atom_site_fract_x
  _atom_site_fract_y
  _atom_site_fract_z
  _atom_site_occupancy
  Sn  Sn1       1.0  0.59410  0.39240  0.99850  1.0000
  Sn  Sn2       1.0  0.40590  0.39240  0.50150  1.0000
  Sn  Sn3       1.0  0.09410  0.89240  0.99850  1.0000
  Sn  Sn4       1.0  0.90590  0.89240  0.50150  1.0000
  Sn  Sn5       1.0  0.40590  0.60760  0.00150  1.0000
  Sn  Sn6       1.0  0.59410  0.60760  0.49850  1.0000
  Sn  Sn7       1.0  0.90590  0.10760  0.00150  1.0000
  Sn  Sn8       1.0  0.09410  0.10760  0.49850  1.0000
  O   O1        1.0  0.62050  0.34410  0.79100  1.0000
  O   O2        1.0  0.37950  0.34410  0.70900  1.0000
  O   O3        1.0  0.12050  0.84410  0.79100  1.0000
  O   O4        1.0  0.87950  0.84410  0.70900  1.0000
  O   O5        1.0  0.37950  0.65590  0.20900  1.0000
  O   O6        1.0  0.62050  0.65590  0.29100  1.0000
  O   O7        1.0  0.87950  0.15590  0.20900  1.0000
  O   O8        1.0  0.12050  0.15590  0.29100  1.0000
  O   O9        1.0  0.65510  0.18030  0.99950  1.0000
  O   O10       1.0  0.34490  0.18030  0.50050  1.0000
  O   O11       1.0  0.15510  0.68030  0.99950  1.0000
  O   O12       1.0  0.84490  0.68030  0.50050  1.0000
  O   O13       1.0  0.34490  0.81970  0.00050  1.0000
  O   O14       1.0  0.65510  0.81970  0.49950  1.0000
  O   O15       1.0  0.84490  0.31970  0.00050  1.0000
  O   O16       1.0  0.15510  0.31970  0.49950  1.0000
  O   O17       1.0  0.62240  0.42760  0.61670  1.0000
  O   O18       1.0  0.37760  0.42760  0.88330  1.0000
  O   O19       1.0  0.12240  0.92760  0.61670  1.0000
  O   O20       1.0  0.87760  0.92760  0.88330  1.0000
  O   O21       1.0  0.37760  0.57240  0.38330  1.0000
  O   O22       1.0  0.62240  0.57240  0.11670  1.0000
  O   O23       1.0  0.87760  0.07240  0.38330  1.0000
  O   O24       1.0  0.12240  0.07240  0.11670  1.0000
  O   O25       1.0  0.77150  0.09470  0.97240  1.0000
  O   O26       1.0  0.22850  0.09470  0.52760  1.0000
  O   O27       1.0  0.27150  0.59470  0.97240  1.0000
  O   O28       1.0  0.72850  0.59470  0.52760  1.0000
  O   O29       1.0  0.22850  0.90530  0.02760  1.0000
  O   O30       1.0  0.77150  0.90530  0.47240  1.0000
  O   O31       1.0  0.72850  0.40530  0.02760  1.0000
  O   O32       1.0  0.27150  0.40530  0.47240  1.0000
  O   O33       1.0  0.61870  0.65330  0.70970  1.0000
  O   O34       1.0  0.38130  0.65330  0.79030  1.0000
  O   O35       1.0  0.11870  0.15330  0.70970  1.0000
  O   O36       1.0  0.88130  0.15330  0.79030  1.0000
  O   O37       1.0  0.38130  0.34670  0.29030  1.0000
  O   O38       1.0  0.61870  0.34670  0.20970  1.0000
  O   O39       1.0  0.88130  0.84670  0.29030  1.0000
  O   O40       1.0  0.11870  0.84670  0.20970  1.0000
  O   O41       1.0  0.60620  0.57270  0.87970  1.0000
  O   O42       1.0  0.39380  0.57270  0.62030  1.0000
  O   O43       1.0  0.10620  0.07270  0.87970  1.0000
  O   O44       1.0  0.89380  0.07270  0.62030  1.0000
  O   O45       1.0  0.39380  0.42730  0.12030  1.0000
  O   O46       1.0  0.60620  0.42730  0.37970  1.0000
  O   O47       1.0  0.89380  0.92730  0.12030  1.0000
  O   O48       1.0  0.10620  0.92730  0.37970  1.0000
  C   C1        1.0  0.61990  0.43360  0.72590  1.0000
  C   C2        1.0  0.38010  0.43360  0.77410  1.0000
  C   C3        1.0  0.11990  0.93360  0.72590  1.0000
  C   C4        1.0  0.88010  0.93360  0.77410  1.0000
  C   C5        1.0  0.38010  0.56640  0.27410  1.0000
  C   C6        1.0  0.61990  0.56640  0.22590  1.0000
  C   C7        1.0  0.88010  0.06640  0.27410  1.0000
  C   C8        1.0  0.11990  0.06640  0.22590  1.0000
  C   C9        1.0  0.61390  0.56470  0.77490  1.0000
  C   C10       1.0  0.38610  0.56470  0.72510  1.0000
  C   C11       1.0  0.11390  0.06470  0.77490  1.0000
  C   C12       1.0  0.88610  0.06470  0.72510  1.0000
  C   C13       1.0  0.38610  0.43530  0.22510  1.0000
  C   C14       1.0  0.61390  0.43530  0.27490  1.0000
  C   C15       1.0  0.88610  0.93530  0.22510  1.0000
  C   C16       1.0  0.11390  0.93530  0.27490  1.0000
  C   C17       1.0  0.72840  0.18670  0.99210  1.0000
  C   C18       1.0  0.27160  0.18670  0.50790  1.0000
  C   C19       1.0  0.22840  0.68670  0.99210  1.0000
  C   C20       1.0  0.77160  0.68670  0.50790  1.0000
  C   C21       1.0  0.27160  0.81330  0.00790  1.0000
  C   C22       1.0  0.72840  0.81330  0.49210  1.0000
  C   C23       1.0  0.77160  0.31330  0.00790  1.0000
  C   C24       1.0  0.22840  0.31330  0.49210  1.0000
