data_image0
_chemical_formula_structural       Sn16O80C40
_chemical_formula_sum              "Sn16 O80 C40"
_cell_length_a       11.39
_cell_length_b       14.742
_cell_length_c       16.755
_cell_angle_alpha    90
_cell_angle_beta     90
_cell_angle_gamma    90

_space_group_name_H-M_alt    "P 1"
_space_group_IT_number       1

loop_
  _space_group_symop_operation_xyz
  'x, y, z'

loop_
  _atom_site_type_symbol
  _atom_site_label
  _atom_site_symmetry_multiplicity
  _atom_site_fract_x
  _atom_site_fract_y
  _atom_site_fract_z
  _atom_site_occupancy
  Sn  Sn1       1.0  0.63070  0.17850  0.68050  1.0000
  Sn  Sn2       1.0  0.86930  0.82150  0.18050  1.0000
  Sn  Sn3       1.0  0.13070  0.32150  0.31950  1.0000
  Sn  Sn4       1.0  0.36930  0.67850  0.81950  1.0000
  Sn  Sn5       1.0  0.36930  0.82150  0.31950  1.0000
  Sn  Sn6       1.0  0.13070  0.17850  0.81950  1.0000
  Sn  Sn7       1.0  0.86930  0.67850  0.68050  1.0000
  Sn  Sn8       1.0  0.63070  0.32150  0.18050  1.0000
  Sn  Sn9       1.0  0.09060  0.38840  0.63350  1.0000
  Sn  Sn10      1.0  0.40940  0.61160  0.13350  1.0000
  Sn  Sn11      1.0  0.59060  0.11160  0.36650  1.0000
  Sn  Sn12      1.0  0.90940  0.88840  0.86650  1.0000
  Sn  Sn13      1.0  0.90940  0.61160  0.36650  1.0000
  Sn  Sn14      1.0  0.59060  0.38840  0.86650  1.0000
  Sn  Sn15      1.0  0.40940  0.88840  0.63350  1.0000
  Sn  Sn16      1.0  0.09060  0.11160  0.13350  1.0000
  O   O1        1.0  0.75660  0.26960  0.74190  1.0000
  O   O2        1.0  0.74340  0.73040  0.24190  1.0000
  O   O3        1.0  0.25660  0.23040  0.25810  1.0000
  O   O4        1.0  0.24340  0.76960  0.75810  1.0000
  O   O5        1.0  0.24340  0.73040  0.25810  1.0000
  O   O6        1.0  0.25660  0.26960  0.75810  1.0000
  O   O7        1.0  0.74340  0.76960  0.74190  1.0000
  O   O8        1.0  0.75660  0.23040  0.24190  1.0000
  O   O9        1.0  0.75060  0.23830  0.58500  1.0000
  O   O10       1.0  0.74940  0.76170  0.08500  1.0000
  O   O11       1.0  0.25060  0.26170  0.41500  1.0000
  O   O12       1.0  0.24940  0.73830  0.91500  1.0000
  O   O13       1.0  0.24940  0.76170  0.41500  1.0000
  O   O14       1.0  0.25060  0.23830  0.91500  1.0000
  O   O15       1.0  0.74940  0.73830  0.58500  1.0000
  O   O16       1.0  0.75060  0.26170  0.08500  1.0000
  O   O17       1.0  0.77510  0.07940  0.67820  1.0000
  O   O18       1.0  0.72490  0.92060  0.17820  1.0000
  O   O19       1.0  0.27510  0.42060  0.32180  1.0000
  O   O20       1.0  0.22490  0.57940  0.82180  1.0000
  O   O21       1.0  0.22490  0.92060  0.32180  1.0000
  O   O22       1.0  0.27510  0.07940  0.82180  1.0000
  O   O23       1.0  0.72490  0.57940  0.67820  1.0000
  O   O24       1.0  0.77510  0.42060  0.17820  1.0000
  O   O25       1.0  0.65480  0.11390  0.81420  1.0000
  O   O26       1.0  0.84520  0.88610  0.31420  1.0000
  O   O27       1.0  0.15480  0.38610  0.18580  1.0000
  O   O28       1.0  0.34520  0.61390  0.68580  1.0000
  O   O29       1.0  0.34520  0.88610  0.18580  1.0000
  O   O30       1.0  0.15480  0.11390  0.68580  1.0000
  O   O31       1.0  0.84520  0.61390  0.81420  1.0000
  O   O32       1.0  0.65480  0.38610  0.31420  1.0000
  O   O33       1.0  0.23920  0.50880  0.62230  1.0000
  O   O34       1.0  0.26080  0.49120  0.12230  1.0000
  O   O35       1.0  0.73920  0.99120  0.37770  1.0000
  O   O36       1.0  0.76080  0.00880  0.87770  1.0000
  O   O37       1.0  0.76080  0.49120  0.37770  1.0000
  O   O38       1.0  0.73920  0.50880  0.87770  1.0000
  O   O39       1.0  0.26080  0.00880  0.62230  1.0000
  O   O40       1.0  0.23920  0.99120  0.12230  1.0000
  O   O41       1.0  0.11340  0.48360  0.75410  1.0000
  O   O42       1.0  0.38660  0.51640  0.25410  1.0000
  O   O43       1.0  0.61340  0.01640  0.24590  1.0000
  O   O44       1.0  0.88660  0.98360  0.74590  1.0000
  O   O45       1.0  0.88660  0.51640  0.24590  1.0000
  O   O46       1.0  0.61340  0.48360  0.74590  1.0000
  O   O47       1.0  0.38660  0.98360  0.75410  1.0000
  O   O48       1.0  0.11340  0.01640  0.25410  1.0000
  O   O49       1.0  0.91560  0.31580  0.56680  1.0000
  O   O50       1.0  0.58440  0.68420  0.06680  1.0000
  O   O51       1.0  0.41560  0.18420  0.43320  1.0000
  O   O52       1.0  0.08440  0.81580  0.93320  1.0000
  O   O53       1.0  0.08440  0.68420  0.43320  1.0000
  O   O54       1.0  0.41560  0.31580  0.93320  1.0000
  O   O55       1.0  0.58440  0.81580  0.56680  1.0000
  O   O56       1.0  0.91560  0.18420  0.06680  1.0000
  O   O57       1.0  0.91340  0.36050  0.71500  1.0000
  O   O58       1.0  0.58660  0.63950  0.21500  1.0000
  O   O59       1.0  0.41340  0.13950  0.28500  1.0000
  O   O60       1.0  0.08660  0.86050  0.78500  1.0000
  O   O61       1.0  0.08660  0.63950  0.28500  1.0000
  O   O62       1.0  0.41340  0.36050  0.78500  1.0000
  O   O63       1.0  0.58660  0.86050  0.71500  1.0000
  O   O64       1.0  0.91340  0.13950  0.21500  1.0000
  O   O65       1.0  0.10820  0.41720  0.49230  1.0000
  O   O66       1.0  0.39180  0.58280  0.99230  1.0000
  O   O67       1.0  0.60820  0.08280  0.50770  1.0000
  O   O68       1.0  0.89180  0.91720  0.00770  1.0000
  O   O69       1.0  0.89180  0.58280  0.50770  1.0000
  O   O70       1.0  0.60820  0.41720  0.00770  1.0000
  O   O71       1.0  0.39180  0.91720  0.49230  1.0000
  O   O72       1.0  0.10820  0.08280  0.99230  1.0000
  O   O73       1.0  0.97800  0.50440  0.60320  1.0000
  O   O74       1.0  0.52200  0.49560  0.10320  1.0000
  O   O75       1.0  0.47800  0.99560  0.39680  1.0000
  O   O76       1.0  0.02200  0.00440  0.89680  1.0000
  O   O77       1.0  0.02200  0.49560  0.39680  1.0000
  O   O78       1.0  0.47800  0.50440  0.89680  1.0000
  O   O79       1.0  0.52200  0.00440  0.60320  1.0000
  O   O80       1.0  0.97800  0.99560  0.10320  1.0000
  C   C1        1.0  0.83460  0.28610  0.60990  1.0000
  C   C2        1.0  0.66540  0.71390  0.10990  1.0000
  C   C3        1.0  0.33460  0.21390  0.39010  1.0000
  C   C4        1.0  0.16540  0.78610  0.89010  1.0000
  C   C5        1.0  0.16540  0.71390  0.39010  1.0000
  C   C6        1.0  0.33460  0.28610  0.89010  1.0000
  C   C7        1.0  0.66540  0.78610  0.60990  1.0000
  C   C8        1.0  0.83460  0.21390  0.10990  1.0000
  C   C9        1.0  0.83510  0.30940  0.70030  1.0000
  C   C10       1.0  0.66490  0.69060  0.20030  1.0000
  C   C11       1.0  0.33510  0.19060  0.29970  1.0000
  C   C12       1.0  0.16490  0.80940  0.79970  1.0000
  C   C13       1.0  0.16490  0.69060  0.29970  1.0000
  C   C14       1.0  0.33510  0.30940  0.79970  1.0000
  C   C15       1.0  0.66490  0.80940  0.70030  1.0000
  C   C16       1.0  0.83510  0.19060  0.20030  1.0000
  C   C17       1.0  0.80400  0.03960  0.74210  1.0000
  C   C18       1.0  0.69600  0.96040  0.24210  1.0000
  C   C19       1.0  0.30400  0.46040  0.25790  1.0000
  C   C20       1.0  0.19600  0.53960  0.75790  1.0000
  C   C21       1.0  0.19600  0.96040  0.25790  1.0000
  C   C22       1.0  0.30400  0.03960  0.75790  1.0000
  C   C23       1.0  0.69600  0.53960  0.74210  1.0000
  C   C24       1.0  0.80400  0.46040  0.24210  1.0000
  C   C25       1.0  0.73160  0.05720  0.81860  1.0000
  C   C26       1.0  0.76840  0.94280  0.31860  1.0000
  C   C27       1.0  0.23160  0.44280  0.18140  1.0000
  C   C28       1.0  0.26840  0.55720  0.68140  1.0000
  C   C29       1.0  0.26840  0.94280  0.18140  1.0000
  C   C30       1.0  0.23160  0.05720  0.68140  1.0000
  C   C31       1.0  0.76840  0.55720  0.81860  1.0000
  C   C32       1.0  0.73160  0.44280  0.31860  1.0000
  C   C33       1.0  0.03760  0.47300  0.46890  1.0000
  C   C34       1.0  0.46240  0.52700  0.96890  1.0000
  C   C35       1.0  0.53760  0.02700  0.53110  1.0000
  C   C36       1.0  0.96240  0.97300  0.03110  1.0000
  C   C37       1.0  0.96240  0.52700  0.53110  1.0000
  C   C38       1.0  0.53760  0.47300  0.03110  1.0000
  C   C39       1.0  0.46240  0.97300  0.46890  1.0000
  C   C40       1.0  0.03760  0.02700  0.96890  1.0000
