data_image0
_chemical_formula_structural       Cu8S32C8
_chemical_formula_sum              "Cu8 S32 C8"
_cell_length_a       11.406
_cell_length_b       16.68
_cell_length_c       10.922
_cell_angle_alpha    90
_cell_angle_beta     90
_cell_angle_gamma    90

_space_group_name_H-M_alt    "P 1"
_space_group_IT_number       1

loop_
  _space_group_symop_operation_xyz
  'x, y, z'

loop_
  _atom_site_type_symbol
  _atom_site_label
  _atom_site_symmetry_multiplicity
  _atom_site_fract_x
  _atom_site_fract_y
  _atom_site_fract_z
  _atom_site_occupancy
  Cu  Cu1       1.0  0.60741  0.49193  0.06494  1.0000
  Cu  Cu2       1.0  0.89259  0.50807  0.56494  1.0000
  Cu  Cu3       1.0  0.39259  0.99193  0.43506  1.0000
  Cu  Cu4       1.0  0.10741  0.00807  0.93506  1.0000
  Cu  Cu5       1.0  0.39259  0.50807  0.93506  1.0000
  Cu  Cu6       1.0  0.10741  0.49193  0.43506  1.0000
  Cu  Cu7       1.0  0.60741  0.00807  0.56494  1.0000
  Cu  Cu8       1.0  0.89259  0.99193  0.06494  1.0000
  S   S1        1.0  0.55636  0.42289  0.88258  1.0000
  S   S2        1.0  0.94364  0.57711  0.38258  1.0000
  S   S3        1.0  0.44364  0.92289  0.61742  1.0000
  S   S4        1.0  0.05636  0.07711  0.11742  1.0000
  S   S5        1.0  0.44364  0.57711  0.11742  1.0000
  S   S6        1.0  0.05636  0.42289  0.61742  1.0000
  S   S7        1.0  0.55636  0.07711  0.38258  1.0000
  S   S8        1.0  0.94364  0.92289  0.88258  1.0000
  S   S9        1.0  0.72783  0.58073  0.96624  1.0000
  S   S10       1.0  0.77217  0.41927  0.46624  1.0000
  S   S11       1.0  0.27217  0.08073  0.53376  1.0000
  S   S12       1.0  0.22783  0.91927  0.03376  1.0000
  S   S13       1.0  0.27217  0.41927  0.03376  1.0000
  S   S14       1.0  0.22783  0.58073  0.53376  1.0000
  S   S15       1.0  0.72783  0.91927  0.46624  1.0000
  S   S16       1.0  0.77217  0.08073  0.96624  1.0000
  S   S17       1.0  0.84880  0.59178  0.72610  1.0000
  S   S18       1.0  0.65120  0.40822  0.22610  1.0000
  S   S19       1.0  0.15120  0.09178  0.77390  1.0000
  S   S20       1.0  0.34880  0.90822  0.27390  1.0000
  S   S21       1.0  0.15120  0.40822  0.27390  1.0000
  S   S22       1.0  0.34880  0.59178  0.77390  1.0000
  S   S23       1.0  0.84880  0.90822  0.22610  1.0000
  S   S24       1.0  0.65120  0.09178  0.72610  1.0000
  S   S25       1.0  0.67005  0.47013  0.75766  1.0000
  S   S26       1.0  0.82995  0.52987  0.25766  1.0000
  S   S27       1.0  0.32995  0.97013  0.74234  1.0000
  S   S28       1.0  0.17005  0.02987  0.24234  1.0000
  S   S29       1.0  0.32995  0.52987  0.24234  1.0000
  S   S30       1.0  0.17005  0.47013  0.74234  1.0000
  S   S31       1.0  0.67005  0.02987  0.25766  1.0000
  S   S32       1.0  0.82995  0.97013  0.75766  1.0000
  C   C1        1.0  0.74450  0.55190  0.82300  1.0000
  C   C2        1.0  0.75550  0.44810  0.32300  1.0000
  C   C3        1.0  0.25550  0.05190  0.67700  1.0000
  C   C4        1.0  0.24450  0.94810  0.17700  1.0000
  C   C5        1.0  0.25550  0.44810  0.17700  1.0000
  C   C6        1.0  0.24450  0.55190  0.67700  1.0000
  C   C7        1.0  0.74450  0.94810  0.32300  1.0000
  C   C8        1.0  0.75550  0.05190  0.82300  1.0000
