data_image0
_chemical_formula_structural       U4O8C4O8C8O16
_chemical_formula_sum              "U4 O32 C12"
_cell_length_a       8.958
_cell_length_b       19.601
_cell_length_c       11.007
_cell_angle_alpha    90
_cell_angle_beta     112.928
_cell_angle_gamma    90

_space_group_name_H-M_alt    "P 1"
_space_group_IT_number       1

loop_
  _space_group_symop_operation_xyz
  'x, y, z'

loop_
  _atom_site_type_symbol
  _atom_site_label
  _atom_site_symmetry_multiplicity
  _atom_site_fract_x
  _atom_site_fract_y
  _atom_site_fract_z
  _atom_site_occupancy
  U   U1        1.0  0.48980  0.16440  0.99190  1.0000
  U   U2        1.0  0.01020  0.66440  0.50810  1.0000
  U   U3        1.0  0.51020  0.83560  0.00810  1.0000
  U   U4        1.0  0.98980  0.33560  0.49190  1.0000
  O   O1        1.0  0.36340  0.16180  0.08080  1.0000
  O   O2        1.0  0.13660  0.66180  0.41920  1.0000
  O   O3        1.0  0.63660  0.83820  0.91920  1.0000
  O   O4        1.0  0.86340  0.33820  0.58080  1.0000
  O   O5        1.0  0.62360  0.16390  0.90700  1.0000
  O   O6        1.0  0.87640  0.66390  0.59300  1.0000
  O   O7        1.0  0.37640  0.83610  0.09300  1.0000
  O   O8        1.0  0.12360  0.33610  0.40700  1.0000
  C   C1        1.0  0.42640  0.99940  0.93500  1.0000
  C   C2        1.0  0.07360  0.49940  0.56500  1.0000
  C   C3        1.0  0.57360  0.00060  0.06500  1.0000
  C   C4        1.0  0.92640  0.50060  0.43500  1.0000
  O   O9        1.0  0.37640  0.05290  0.87510  1.0000
  O   O10       1.0  0.12360  0.55290  0.62490  1.0000
  O   O11       1.0  0.62360  0.94710  0.12490  1.0000
  O   O12       1.0  0.87640  0.44710  0.37510  1.0000
  O   O13       1.0  0.37810  0.94300  0.88050  1.0000
  O   O14       1.0  0.12190  0.44300  0.61950  1.0000
  O   O15       1.0  0.62190  0.05700  0.11950  1.0000
  O   O16       1.0  0.87810  0.55700  0.38050  1.0000
  C   C5        1.0  0.28940  0.27520  0.75670  1.0000
  C   C6        1.0  0.21060  0.77520  0.74330  1.0000
  C   C7        1.0  0.71060  0.72480  0.24330  1.0000
  C   C8        1.0  0.78940  0.22480  0.25670  1.0000
  C   C9        1.0  0.17700  0.21470  0.71750  1.0000
  C   C10       1.0  0.32300  0.71470  0.78250  1.0000
  C   C11       1.0  0.82300  0.78530  0.28250  1.0000
  C   C12       1.0  0.67700  0.28530  0.21750  1.0000
  O   O17       1.0  0.41460  0.27310  0.86150  1.0000
  O   O18       1.0  0.08540  0.77310  0.63850  1.0000
  O   O19       1.0  0.58540  0.72690  0.13850  1.0000
  O   O20       1.0  0.91460  0.22690  0.36150  1.0000
  O   O21       1.0  0.26000  0.32750  0.61840  1.0000
  O   O22       1.0  0.24000  0.82750  0.88160  1.0000
  O   O23       1.0  0.74000  0.67250  0.38160  1.0000
  O   O24       1.0  0.76000  0.17250  0.11840  1.0000
  O   O25       1.0  0.05550  0.22040  0.61210  1.0000
  O   O26       1.0  0.44450  0.72040  0.88790  1.0000
  O   O27       1.0  0.94450  0.77960  0.38790  1.0000
  O   O28       1.0  0.55550  0.27960  0.11210  1.0000
  O   O29       1.0  0.22110  0.16700  0.79420  1.0000
  O   O30       1.0  0.27890  0.66700  0.70580  1.0000
  O   O31       1.0  0.77890  0.83300  0.20580  1.0000
  O   O32       1.0  0.72110  0.33300  0.29420  1.0000
