data_image0
_chemical_formula_structural       U4O32C12
_chemical_formula_sum              "U4 O32 C12"
_cell_length_a       8.705
_cell_length_b       19.454
_cell_length_c       5.5105
_cell_angle_alpha    90
_cell_angle_beta     101.741
_cell_angle_gamma    90

_space_group_name_H-M_alt    "P 1"
_space_group_IT_number       1

loop_
  _space_group_symop_operation_xyz
  'x, y, z'

loop_
  _atom_site_type_symbol
  _atom_site_label
  _atom_site_symmetry_multiplicity
  _atom_site_fract_x
  _atom_site_fract_y
  _atom_site_fract_z
  _atom_site_occupancy
  U   U1        1.0  0.00010  0.16630  0.01920  1.0000
  U   U2        1.0  0.49990  0.66630  0.48080  1.0000
  U   U3        1.0  0.99990  0.83370  0.98080  1.0000
  U   U4        1.0  0.50010  0.33370  0.51920  1.0000
  O   O1        1.0  0.87690  0.16540  0.72250  1.0000
  O   O2        1.0  0.62310  0.66540  0.77750  1.0000
  O   O3        1.0  0.12310  0.83460  0.27750  1.0000
  O   O4        1.0  0.37690  0.33460  0.22250  1.0000
  O   O5        1.0  0.12000  0.16080  0.31640  1.0000
  O   O6        1.0  0.38000  0.66080  0.18360  1.0000
  O   O7        1.0  0.88000  0.83920  0.68360  1.0000
  O   O8        1.0  0.62000  0.33920  0.81640  1.0000
  O   O9        1.0  0.07490  0.27730  0.84080  1.0000
  O   O10       1.0  0.42510  0.77730  0.65920  1.0000
  O   O11       1.0  0.92510  0.72270  0.15920  1.0000
  O   O12       1.0  0.57490  0.22270  0.34080  1.0000
  O   O13       1.0  0.24020  0.33270  0.64610  1.0000
  O   O14       1.0  0.25980  0.83270  0.85390  1.0000
  O   O15       1.0  0.75980  0.66730  0.35390  1.0000
  O   O16       1.0  0.74020  0.16730  0.14610  1.0000
  O   O17       1.0  0.42660  0.22490  0.70560  1.0000
  O   O18       1.0  0.07340  0.72490  0.79440  1.0000
  O   O19       1.0  0.57340  0.77510  0.29440  1.0000
  O   O20       1.0  0.92660  0.27510  0.20560  1.0000
  O   O21       1.0  0.26290  0.17040  0.90280  1.0000
  O   O22       1.0  0.23710  0.67040  0.59720  1.0000
  O   O23       1.0  0.73710  0.82960  0.09720  1.0000
  O   O24       1.0  0.76290  0.32960  0.40280  1.0000
  O   O25       1.0  0.11400  0.05880  0.88200  1.0000
  O   O26       1.0  0.38600  0.55880  0.61800  1.0000
  O   O27       1.0  0.88600  0.94120  0.11800  1.0000
  O   O28       1.0  0.61400  0.44120  0.38200  1.0000
  O   O29       1.0  0.11390  0.94410  0.87000  1.0000
  O   O30       1.0  0.38610  0.44410  0.63000  1.0000
  O   O31       1.0  0.88610  0.05590  0.13000  1.0000
  O   O32       1.0  0.61390  0.55590  0.37000  1.0000
  C   C1        1.0  0.19740  0.28210  0.75560  1.0000
  C   C2        1.0  0.30260  0.78210  0.74440  1.0000
  C   C3        1.0  0.80260  0.71790  0.24440  1.0000
  C   C4        1.0  0.69740  0.21790  0.25560  1.0000
  C   C5        1.0  0.30630  0.22080  0.79200  1.0000
  C   C6        1.0  0.19370  0.72080  0.70800  1.0000
  C   C7        1.0  0.69370  0.77920  0.20800  1.0000
  C   C8        1.0  0.80630  0.27920  0.29200  1.0000
  C   C9        1.0  0.06560  0.00090  0.92840  1.0000
  C   C10       1.0  0.43440  0.50090  0.57160  1.0000
  C   C11       1.0  0.93440  0.99910  0.07160  1.0000
  C   C12       1.0  0.56560  0.49910  0.42840  1.0000
