data_image0
_chemical_formula_structural       Cd2N2H2N2H2N2H2N2H2N2H2N2H2N2H2N2H2C6H2C2H2C6H2C4H2C2H2C4H2C10H2C6H2C2H2C6H2C4H2C2H2C8H2C2H2C6H2C4H2C4H2C2H2C10H2C6H2C2H2C6H2C4H2C2H2C6H2C4H2C6H2C6H2C2H2C4H2C8H2C6H2C2H2C6H2C4H2C2H2C8H2C6H2C6H2C4H2C2H2C8H2C2H2C6H2C6H2C4H2C2H2C4H2O64Cd10
_chemical_formula_sum              "Cd12 N16 H112 C224 O64"
_cell_length_a       22.115
_cell_length_b       22.212
_cell_length_c       22.5
_cell_angle_alpha    107.732
_cell_angle_beta     107.417
_cell_angle_gamma    101.832

_space_group_name_H-M_alt    "P 1"
_space_group_IT_number       1

loop_
  _space_group_symop_operation_xyz
  'x, y, z'

loop_
  _atom_site_type_symbol
  _atom_site_label
  _atom_site_symmetry_multiplicity
  _atom_site_fract_x
  _atom_site_fract_y
  _atom_site_fract_z
  _atom_site_occupancy
  Cd  Cd1       1.0  0.04029  0.83146  0.36670  1.0000
  Cd  Cd2       1.0  0.95971  0.16854  0.63330  1.0000
  N   N1        1.0  0.39400  0.94560  0.62940  1.0000
  N   N2        1.0  0.60600  0.05440  0.37060  1.0000
  H   H1        1.0  0.38960  0.91190  0.64090  1.0000
  H   H2        1.0  0.61040  0.08810  0.35910  1.0000
  N   N3        1.0  0.13710  0.74680  0.52790  1.0000
  N   N4        1.0  0.86290  0.25320  0.47210  1.0000
  H   H3        1.0  0.14080  0.78090  0.51710  1.0000
  H   H4        1.0  0.85920  0.21910  0.48290  1.0000
  N   N5        1.0  0.62730  0.71110  0.51280  1.0000
  N   N6        1.0  0.37270  0.28890  0.48720  1.0000
  H   H5        1.0  0.60870  0.66990  0.50490  1.0000
  H   H6        1.0  0.39130  0.33010  0.49510  1.0000
  N   N7        1.0  0.66130  0.21910  0.01740  1.0000
  N   N8        1.0  0.33870  0.78090  0.98260  1.0000
  H   H7        1.0  0.69200  0.22470  0.00160  1.0000
  H   H8        1.0  0.30800  0.77530  0.99840  1.0000
  N   N9        1.0  0.63480  0.70930  0.01920  1.0000
  N   N10       1.0  0.36520  0.29070  0.98080  1.0000
  H   H9        1.0  0.59410  0.69480  0.01550  1.0000
  H   H10       1.0  0.40590  0.30520  0.98450  1.0000
  N   N11       1.0  0.90050  0.98410  0.13670  1.0000
  N   N12       1.0  0.09950  0.01590  0.86330  1.0000
  H   H11       1.0  0.94130  0.99990  0.14150  1.0000
  H   H12       1.0  0.05870  0.00010  0.85850  1.0000
  N   N13       1.0  0.90210  0.98170  0.63080  1.0000
  N   N14       1.0  0.09790  0.01830  0.36920  1.0000
  H   H13       1.0  0.91470  0.02200  0.63330  1.0000
  H   H14       1.0  0.08530  0.97800  0.36670  1.0000
  N   N15       1.0  0.87110  0.47300  0.12790  1.0000
  N   N16       1.0  0.12890  0.52700  0.87210  1.0000
  H   H15       1.0  0.83910  0.46820  0.14210  1.0000
  H   H16       1.0  0.16090  0.53180  0.85790  1.0000
  C   C1        1.0  0.17100  0.88940  0.44960  1.0000
  C   C2        1.0  0.82900  0.11060  0.55040  1.0000
  C   C3        1.0  0.24210  0.93190  0.49360  1.0000
  C   C4        1.0  0.75790  0.06810  0.50640  1.0000
  C   C5        1.0  0.26800  0.99140  0.48890  1.0000
  C   C6        1.0  0.73200  0.00860  0.51110  1.0000
  H   H17       1.0  0.24150  0.00370  0.45710  1.0000
  H   H18       1.0  0.75850  0.99630  0.54290  1.0000
  C   C7        1.0  0.33170  0.03250  0.53030  1.0000
  C   C8        1.0  0.66830  0.96750  0.46970  1.0000
  H   H19       1.0  0.34850  0.07280  0.52700  1.0000
  H   H20       1.0  0.65150  0.92720  0.47300  1.0000
  C   C9        1.0  0.37080  0.01400  0.57660  1.0000
  C   C10       1.0  0.62920  0.98600  0.42340  1.0000
  C   C11       1.0  0.34510  0.95390  0.58100  1.0000
  C   C12       1.0  0.65490  0.04610  0.41900  1.0000
  C   C13       1.0  0.28060  0.91310  0.54000  1.0000
  C   C14       1.0  0.71940  0.08690  0.46000  1.0000
  H   H21       1.0  0.26330  0.87310  0.54370  1.0000
  H   H22       1.0  0.73670  0.12690  0.45630  1.0000
  C   C15       1.0  0.43930  0.04380  0.62540  1.0000
  C   C16       1.0  0.56070  0.95620  0.37460  1.0000
  C   C17       1.0  0.48870  0.10280  0.64420  1.0000
  C   C18       1.0  0.51130  0.89720  0.35580  1.0000
  H   H23       1.0  0.48120  0.13300  0.62420  1.0000
  H   H24       1.0  0.51880  0.86700  0.37580  1.0000
  C   C19       1.0  0.54860  0.11520  0.69260  1.0000
  C   C20       1.0  0.45140  0.88480  0.30740  1.0000
  H   H25       1.0  0.58200  0.15540  0.70630  1.0000
  H   H26       1.0  0.41800  0.84460  0.29370  1.0000
  C   C21       1.0  0.56290  0.07150  0.72300  1.0000
  C   C22       1.0  0.43710  0.92850  0.27700  1.0000
  C   C23       1.0  0.51260  0.01210  0.70380  1.0000
  C   C24       1.0  0.48740  0.98790  0.29620  1.0000
  H   H27       1.0  0.52050  0.98120  0.72260  1.0000
  H   H28       1.0  0.47950  0.01880  0.27740  1.0000
  C   C25       1.0  0.45150  0.00040  0.65680  1.0000
  C   C26       1.0  0.54850  0.99960  0.34320  1.0000
  C   C27       1.0  0.63090  0.08740  0.77460  1.0000
  C   C28       1.0  0.36910  0.91260  0.22540  1.0000
  C   C29       1.0  0.90340  0.60290  0.37940  1.0000
  C   C30       1.0  0.09660  0.39710  0.62060  1.0000
  C   C31       1.0  0.96980  0.62050  0.43270  1.0000
  C   C32       1.0  0.03020  0.37950  0.56730  1.0000
  C   C33       1.0  0.01890  0.67910  0.45120  1.0000
  C   C34       1.0  0.98110  0.32090  0.54880  1.0000
  H   H29       1.0  0.01100  0.70910  0.43110  1.0000
  H   H30       1.0  0.98900  0.29090  0.56890  1.0000
  C   C35       1.0  0.08030  0.69230  0.50040  1.0000
  C   C36       1.0  0.91970  0.30770  0.49960  1.0000
  C   C37       1.0  0.09400  0.64960  0.53200  1.0000
  C   C38       1.0  0.90600  0.35040  0.46800  1.0000
  C   C39       1.0  0.04240  0.59110  0.51540  1.0000
  C   C40       1.0  0.95760  0.40890  0.48460  1.0000
  H   H31       1.0  0.04930  0.56250  0.53760  1.0000
  H   H32       1.0  0.95070  0.43750  0.46240  1.0000
  C   C41       1.0  0.97980  0.57710  0.46400  1.0000
  C   C42       1.0  0.02020  0.42290  0.53600  1.0000
  H   H33       1.0  0.94510  0.53810  0.45140  1.0000
  H   H34       1.0  0.05490  0.46190  0.54860  1.0000
  C   C43       1.0  0.16050  0.67900  0.57980  1.0000
  C   C44       1.0  0.83950  0.32100  0.42020  1.0000
  C   C45       1.0  0.18700  0.73880  0.57490  1.0000
  C   C46       1.0  0.81300  0.26120  0.42510  1.0000
  C   C47       1.0  0.25260  0.77890  0.61440  1.0000
  C   C48       1.0  0.74740  0.22110  0.38560  1.0000
  H   H35       1.0  0.26920  0.81910  0.61070  1.0000
  H   H36       1.0  0.73080  0.18090  0.38930  1.0000
  C   C49       1.0  0.29310  0.76000  0.65890  1.0000
  C   C50       1.0  0.70690  0.24000  0.34110  1.0000
  C   C51       1.0  0.26700  0.70130  0.66640  1.0000
  C   C52       1.0  0.73300  0.29870  0.33360  1.0000
  H   H37       1.0  0.29380  0.68970  0.69870  1.0000
  H   H38       1.0  0.70620  0.31030  0.30130  1.0000
  C   C53       1.0  0.20060  0.65940  0.62560  1.0000
  C   C54       1.0  0.79940  0.34060  0.37440  1.0000
  H   H39       1.0  0.18390  0.61930  0.62920  1.0000
  H   H40       1.0  0.81610  0.38070  0.37080  1.0000
  C   C55       1.0  0.36410  0.80020  0.70070  1.0000
  C   C56       1.0  0.63590  0.19980  0.29930  1.0000
  C   C57       1.0  0.76050  0.69390  0.36870  1.0000
  C   C58       1.0  0.23950  0.30610  0.63130  1.0000
  C   C59       1.0  0.73320  0.73070  0.41640  1.0000
  C   C60       1.0  0.26680  0.26930  0.58360  1.0000
  C   C61       1.0  0.75300  0.79870  0.44210  1.0000
  C   C62       1.0  0.24700  0.20130  0.55790  1.0000
  H   H41       1.0  0.78200  0.82150  0.42770  1.0000
  H   H42       1.0  0.21800  0.17850  0.57230  1.0000
  C   C63       1.0  0.73220  0.83490  0.48840  1.0000
  C   C64       1.0  0.26780  0.16510  0.51160  1.0000
  H   H43       1.0  0.74720  0.88140  0.50510  1.0000
  H   H44       1.0  0.25280  0.11860  0.49490  1.0000
  C   C65       1.0  0.68940  0.80250  0.50970  1.0000
  C   C66       1.0  0.31060  0.19750  0.49030  1.0000
  C   C67       1.0  0.66920  0.73460  0.48310  1.0000
  C   C68       1.0  0.33080  0.26540  0.51690  1.0000
  C   C69       1.0  0.68960  0.69730  0.43740  1.0000
  C   C70       1.0  0.31040  0.30270  0.56260  1.0000
  H   H45       1.0  0.67460  0.65080  0.42100  1.0000
  H   H46       1.0  0.32540  0.34920  0.57900  1.0000
  C   C71       1.0  0.62100  0.76680  0.55760  1.0000
  C   C72       1.0  0.37900  0.23320  0.44240  1.0000
  C   C73       1.0  0.58690  0.76940  0.60000  1.0000
  C   C74       1.0  0.41310  0.23060  0.40000  1.0000
  H   H47       1.0  0.56260  0.73040  0.60070  1.0000
  H   H48       1.0  0.43740  0.26960  0.39930  1.0000
  C   C75       1.0  0.58940  0.83080  0.64120  1.0000
  C   C76       1.0  0.41060  0.16920  0.35880  1.0000
  C   C77       1.0  0.62640  0.88850  0.63950  1.0000
  C   C78       1.0  0.37360  0.11150  0.36050  1.0000
  H   H49       1.0  0.62820  0.93010  0.66740  1.0000
  H   H50       1.0  0.37180  0.06990  0.33260  1.0000
  C   C79       1.0  0.65980  0.88500  0.59740  1.0000
  C   C80       1.0  0.34020  0.11500  0.40260  1.0000
  H   H51       1.0  0.68420  0.92420  0.59700  1.0000
  H   H52       1.0  0.31580  0.07580  0.40300  1.0000
  C   C81       1.0  0.65830  0.82520  0.55610  1.0000
  C   C82       1.0  0.34170  0.17480  0.44390  1.0000
  C   C83       1.0  0.55390  0.83500  0.68860  1.0000
  C   C84       1.0  0.44610  0.16500  0.31140  1.0000
  C   C85       1.0  0.72320  0.44100  0.20040  1.0000
  C   C86       1.0  0.27680  0.55900  0.79960  1.0000
  C   C87       1.0  0.68220  0.37050  0.15870  1.0000
  C   C88       1.0  0.31780  0.62950  0.84130  1.0000
  C   C89       1.0  0.69670  0.33270  0.10760  1.0000
  C   C90       1.0  0.30330  0.66730  0.89240  1.0000
  H   H53       1.0  0.73320  0.35090  0.09880  1.0000
  H   H54       1.0  0.26680  0.64910  0.90120  1.0000
  C   C91       1.0  0.65570  0.26680  0.06910  1.0000
  C   C92       1.0  0.34430  0.73320  0.93090  1.0000
  C   C93       1.0  0.59900  0.24000  0.08020  1.0000
  C   C94       1.0  0.40100  0.76000  0.91980  1.0000
  C   C95       1.0  0.58520  0.27840  0.13140  1.0000
  C   C96       1.0  0.41480  0.72160  0.86860  1.0000
  H   H55       1.0  0.54810  0.26080  0.13970  1.0000
  H   H56       1.0  0.45190  0.73920  0.86030  1.0000
  C   C97       1.0  0.62610  0.34260  0.17020  1.0000
  C   C98       1.0  0.37390  0.65740  0.82980  1.0000
  H   H57       1.0  0.61660  0.36850  0.20510  1.0000
  H   H58       1.0  0.38340  0.63150  0.79490  1.0000
  C   C99       1.0  0.56880  0.17190  0.03140  1.0000
  C   C100      1.0  0.43120  0.82810  0.96860  1.0000
  C   C101      1.0  0.60940  0.16060  0.99480  1.0000
  C   C102      1.0  0.39060  0.83940  0.00520  1.0000
  C   C103      1.0  0.59460  0.09860  0.94470  1.0000
  C   C104      1.0  0.40540  0.90140  0.05530  1.0000
  H   H59       1.0  0.62210  0.09130  0.92080  1.0000
  H   H60       1.0  0.37790  0.90870  0.07920  1.0000
  C   C105      1.0  0.53930  0.04900  0.93140  1.0000
  C   C106      1.0  0.46070  0.95100  0.06860  1.0000
  C   C107      1.0  0.49950  0.06060  0.96800  1.0000
  C   C108      1.0  0.50050  0.93940  0.03200  1.0000
  H   H61       1.0  0.46150  0.02570  0.95750  1.0000
  H   H62       1.0  0.53850  0.97430  0.04250  1.0000
  C   C109      1.0  0.51290  0.11960  0.01790  1.0000
  C   C110      1.0  0.48710  0.88040  0.98210  1.0000
  H   H63       1.0  0.48580  0.12520  0.04250  1.0000
  H   H64       1.0  0.51420  0.87480  0.95750  1.0000
  C   C111      1.0  0.52430  0.98320  0.87950  1.0000
  C   C112      1.0  0.47570  0.01680  0.12050  1.0000
  C   C113      1.0  0.61850  0.83920  0.87320  1.0000
  C   C114      1.0  0.38150  0.16080  0.12680  1.0000
  C   C115      1.0  0.72310  0.82520  0.93830  1.0000
  C   C116      1.0  0.27690  0.17480  0.06170  1.0000
  H   H65       1.0  0.74560  0.85210  0.92190  1.0000
  H   H66       1.0  0.25440  0.14790  0.07810  1.0000
  C   C117      1.0  0.65420  0.81080  0.91920  1.0000
  C   C118      1.0  0.34580  0.18920  0.08080  1.0000
  C   C119      1.0  0.62120  0.77120  0.94350  1.0000
  C   C120      1.0  0.37880  0.22880  0.05650  1.0000
  H   H67       1.0  0.57500  0.76050  0.93050  1.0000
  H   H68       1.0  0.42500  0.23950  0.06950  1.0000
  C   C121      1.0  0.65660  0.74720  0.98740  1.0000
  C   C122      1.0  0.34340  0.25280  0.01260  1.0000
  C   C123      1.0  0.72540  0.76200  0.00670  1.0000
  C   C124      1.0  0.27460  0.23800  0.99330  1.0000
  C   C125      1.0  0.75810  0.80080  0.98090  1.0000
  C   C126      1.0  0.24190  0.19920  0.01910  1.0000
  H   H69       1.0  0.80400  0.81020  0.99250  1.0000
  H   H70       1.0  0.19600  0.18980  0.00750  1.0000
  C   C127      1.0  0.68850  0.69840  0.05790  1.0000
  C   C128      1.0  0.31150  0.30160  0.94210  1.0000
  C   C129      1.0  0.74650  0.73090  0.05370  1.0000
  C   C130      1.0  0.25350  0.26910  0.94630  1.0000
  C   C131      1.0  0.80800  0.72910  0.09050  1.0000
  C   C132      1.0  0.19200  0.27090  0.90950  1.0000
  H   H71       1.0  0.84700  0.75040  0.08730  1.0000
  H   H72       1.0  0.15300  0.24960  0.91270  1.0000
  C   C133      1.0  0.80940  0.69520  0.13170  1.0000
  C   C134      1.0  0.19060  0.30480  0.86830  1.0000
  H   H73       1.0  0.85030  0.69270  0.15640  1.0000
  H   H74       1.0  0.14970  0.30730  0.84360  1.0000
  C   C135      1.0  0.75310  0.66460  0.13800  1.0000
  C   C136      1.0  0.24690  0.33540  0.86200  1.0000
  C   C137      1.0  0.69160  0.66580  0.10150  1.0000
  C   C138      1.0  0.30840  0.33420  0.89850  1.0000
  H   H75       1.0  0.65310  0.64520  0.10610  1.0000
  H   H76       1.0  0.34690  0.35480  0.89390  1.0000
  C   C139      1.0  0.75680  0.62980  0.18630  1.0000
  C   C140      1.0  0.24320  0.37020  0.81370  1.0000
  C   C141      1.0  0.77850  0.06010  0.96720  1.0000
  C   C142      1.0  0.22150  0.93990  0.03280  1.0000
  C   C143      1.0  0.78110  0.02630  0.01490  1.0000
  C   C144      1.0  0.21890  0.97370  0.98510  1.0000
  C   C145      1.0  0.84360  0.02680  0.05330  1.0000
  C   C146      1.0  0.15640  0.97320  0.94670  1.0000
  H   H77       1.0  0.88240  0.04900  0.05040  1.0000
  H   H78       1.0  0.11760  0.95100  0.94960  1.0000
  C   C147      1.0  0.84610  0.99330  0.09600  1.0000
  C   C148      1.0  0.15390  0.00670  0.90400  1.0000
  C   C149      1.0  0.78750  0.96050  0.10160  1.0000
  C   C150      1.0  0.21250  0.03950  0.89840  1.0000
  C   C151      1.0  0.72690  0.96270  0.06270  1.0000
  C   C152      1.0  0.27310  0.03730  0.93730  1.0000
  H   H79       1.0  0.68770  0.94230  0.06630  1.0000
  H   H80       1.0  0.31230  0.05770  0.93370  1.0000
  C   C153      1.0  0.72410  0.99410  0.01960  1.0000
  C   C154      1.0  0.27590  0.00590  0.98040  1.0000
  H   H81       1.0  0.68280  0.99390  0.99280  1.0000
  H   H82       1.0  0.31720  0.00610  0.00720  1.0000
  C   C155      1.0  0.80980  0.92980  0.14860  1.0000
  C   C156      1.0  0.19020  0.07020  0.85140  1.0000
  C   C157      1.0  0.87850  0.94470  0.16900  1.0000
  C   C158      1.0  0.12150  0.05530  0.83100  1.0000
  C   C159      1.0  0.91620  0.92220  0.21190  1.0000
  C   C160      1.0  0.08380  0.07780  0.78810  1.0000
  H   H83       1.0  0.96240  0.93300  0.22450  1.0000
  H   H84       1.0  0.03760  0.06700  0.77550  1.0000
  C   C161      1.0  0.88130  0.88230  0.23540  1.0000
  C   C162      1.0  0.11870  0.11770  0.76460  1.0000
  C   C163      1.0  0.81370  0.86610  0.21400  1.0000
  C   C164      1.0  0.18630  0.13390  0.78600  1.0000
  H   H85       1.0  0.79120  0.83770  0.22910  1.0000
  H   H86       1.0  0.20880  0.16230  0.77090  1.0000
  C   C165      1.0  0.77760  0.88930  0.17190  1.0000
  C   C166      1.0  0.22240  0.11070  0.82810  1.0000
  H   H87       1.0  0.73140  0.87780  0.15900  1.0000
  H   H88       1.0  0.26860  0.12220  0.84100  1.0000
  C   C167      1.0  0.91790  0.85230  0.27950  1.0000
  C   C168      1.0  0.08210  0.14770  0.72050  1.0000
  C   C169      1.0  0.77800  0.99570  0.78310  1.0000
  C   C170      1.0  0.22200  0.00430  0.21690  1.0000
  C   C171      1.0  0.80800  0.96200  0.73880  1.0000
  C   C172      1.0  0.19200  0.03800  0.26120  1.0000
  C   C173      1.0  0.84260  0.99560  0.71110  1.0000
  C   C174      1.0  0.15740  0.00440  0.28890  1.0000
  H   H89       1.0  0.84930  0.04100  0.72190  1.0000
  H   H90       1.0  0.15070  0.95900  0.27810  1.0000
  C   C175      1.0  0.86740  0.96150  0.66680  1.0000
  C   C176      1.0  0.13260  0.03850  0.33320  1.0000
  C   C177      1.0  0.85830  0.89410  0.65160  1.0000
  C   C178      1.0  0.14170  0.10590  0.34840  1.0000
  C   C179      1.0  0.82230  0.86090  0.68040  1.0000
  C   C180      1.0  0.17770  0.13910  0.31960  1.0000
  H   H91       1.0  0.81500  0.81550  0.67010  1.0000
  H   H92       1.0  0.18500  0.18450  0.32990  1.0000
  C   C181      1.0  0.88860  0.87280  0.60300  1.0000
  C   C182      1.0  0.11140  0.12720  0.39700  1.0000
  C   C183      1.0  0.91370  0.92890  0.59030  1.0000
  C   C184      1.0  0.08630  0.07110  0.40970  1.0000
  C   C185      1.0  0.94450  0.92580  0.54560  1.0000
  C   C186      1.0  0.05550  0.07420  0.45440  1.0000
  H   H93       1.0  0.96200  0.96400  0.53910  1.0000
  H   H94       1.0  0.03800  0.03600  0.46090  1.0000
  C   C187      1.0  0.94940  0.86540  0.51050  1.0000
  C   C188      1.0  0.05060  0.13460  0.48950  1.0000
  C   C189      1.0  0.92250  0.80920  0.52070  1.0000
  C   C190      1.0  0.07750  0.19080  0.47930  1.0000
  H   H95       1.0  0.92510  0.76840  0.49620  1.0000
  H   H96       1.0  0.07490  0.23160  0.50380  1.0000
  C   C191      1.0  0.89280  0.81180  0.56520  1.0000
  C   C192      1.0  0.10720  0.18820  0.43480  1.0000
  H   H97       1.0  0.87500  0.77320  0.57080  1.0000
  H   H98       1.0  0.12500  0.22680  0.42920  1.0000
  C   C193      1.0  0.98140  0.86130  0.46230  1.0000
  C   C194      1.0  0.01860  0.13870  0.53770  1.0000
  C   C195      1.0  0.81460  0.24950  0.95000  1.0000
  C   C196      1.0  0.18540  0.75050  0.05000  1.0000
  C   C197      1.0  0.85537  0.32056  0.99030  1.0000
  C   C198      1.0  0.14463  0.67944  0.00970  1.0000
  C   C199      1.0  0.91310  0.34704  0.98140  1.0000
  C   C200      1.0  0.08690  0.65296  0.01860  1.0000
  H   H99       1.0  0.92480  0.32070  0.94870  1.0000
  H   H100      1.0  0.07520  0.67930  0.05130  1.0000
  C   C201      1.0  0.95352  0.41294  0.02160  1.0000
  C   C202      1.0  0.04648  0.58706  0.97840  1.0000
  H   H101      1.0  0.99220  0.43070  0.01570  1.0000
  H   H102      1.0  0.00780  0.56930  0.98430  1.0000
  C   C203      1.0  0.93615  0.45238  0.07050  1.0000
  C   C204      1.0  0.06385  0.54762  0.92950  1.0000
  C   C205      1.0  0.87840  0.42590  0.07935  1.0000
  C   C206      1.0  0.12160  0.57410  0.92065  1.0000
  C   C207      1.0  0.83799  0.35999  0.03920  1.0000
  C   C208      1.0  0.16201  0.64001  0.96080  1.0000
  H   H103      1.0  0.79930  0.34230  0.04510  1.0000
  H   H104      1.0  0.20070  0.65770  0.95490  1.0000
  C   C209      1.0  0.96440  0.51940  0.11600  1.0000
  C   C210      1.0  0.03560  0.48060  0.88400  1.0000
  C   C211      1.0  0.92450  0.53100  0.15130  1.0000
  C   C212      1.0  0.07550  0.46900  0.84870  1.0000
  C   C213      1.0  0.93810  0.59080  0.20080  1.0000
  C   C214      1.0  0.06190  0.40920  0.79920  1.0000
  H   H105      1.0  0.91050  0.59770  0.22450  1.0000
  H   H106      1.0  0.08950  0.40230  0.77550  1.0000
  C   C215      1.0  0.99520  0.64140  0.21450  1.0000
  C   C216      1.0  0.00480  0.35860  0.78550  1.0000
  C   C217      1.0  0.03670  0.63090  0.18090  1.0000
  C   C218      1.0  0.96330  0.36910  0.81910  1.0000
  H   H107      1.0  0.07430  0.66600  0.19080  1.0000
  H   H108      1.0  0.92570  0.33400  0.80920  1.0000
  C   C219      1.0  0.02370  0.57000  0.13320  1.0000
  C   C220      1.0  0.97630  0.43000  0.86680  1.0000
  H   H109      1.0  0.05340  0.56200  0.11250  1.0000
  H   H110      1.0  0.94660  0.43800  0.88750  1.0000
  C   C221      1.0  0.01300  0.70850  0.26820  1.0000
  C   C222      1.0  0.98700  0.29150  0.73180  1.0000
  C   C223      1.0  0.79810  0.89560  0.72370  1.0000
  C   C224      1.0  0.20190  0.10440  0.27630  1.0000
  H   H111      1.0  0.77450  0.87370  0.74330  1.0000
  H   H112      1.0  0.22550  0.12630  0.25670  1.0000
  O   O1        1.0  0.14335  0.84095  0.45892  1.0000
  O   O2        1.0  0.85665  0.15905  0.54108  1.0000
  O   O3        1.0  0.14007  0.90626  0.40421  1.0000
  O   O4        1.0  0.85993  0.09374  0.59579  1.0000
  O   O5        1.0  0.64280  0.04820  0.79870  1.0000
  O   O6        1.0  0.35720  0.95180  0.20130  1.0000
  O   O7        1.0  0.67547  0.14150  0.79270  1.0000
  O   O8        1.0  0.32453  0.85850  0.20730  1.0000
  O   O9        1.0  0.38938  0.85097  0.69215  1.0000
  O   O10       1.0  0.61062  0.14903  0.30785  1.0000
  O   O11       1.0  0.39635  0.78138  0.74261  1.0000
  O   O12       1.0  0.60365  0.21862  0.25739  1.0000
  O   O13       1.0  0.86120  0.55000  0.36010  1.0000
  O   O14       1.0  0.13880  0.45000  0.63990  1.0000
  O   O15       1.0  0.89240  0.64260  0.35550  1.0000
  O   O16       1.0  0.10760  0.35740  0.64450  1.0000
  O   O17       1.0  0.74270  0.63160  0.34870  1.0000
  O   O18       1.0  0.25730  0.36840  0.65130  1.0000
  O   O19       1.0  0.79760  0.72880  0.35110  1.0000
  O   O20       1.0  0.20240  0.27120  0.64890  1.0000
  O   O21       1.0  0.51710  0.78410  0.68620  1.0000
  O   O22       1.0  0.48290  0.21590  0.31380  1.0000
  O   O23       1.0  0.56323  0.89140  0.73059  1.0000
  O   O24       1.0  0.43677  0.10860  0.26941  1.0000
  O   O25       1.0  0.70583  0.47256  0.24445  1.0000
  O   O26       1.0  0.29417  0.52744  0.75555  1.0000
  O   O27       1.0  0.77129  0.46654  0.18800  1.0000
  O   O28       1.0  0.22871  0.53346  0.81200  1.0000
  O   O29       1.0  0.46870  0.94020  0.85730  1.0000
  O   O30       1.0  0.53130  0.05980  0.14270  1.0000
  O   O31       1.0  0.56510  0.96920  0.85760  1.0000
  O   O32       1.0  0.43490  0.03080  0.14240  1.0000
  O   O33       1.0  0.65401  0.87510  0.85547  1.0000
  O   O34       1.0  0.34599  0.12490  0.14453  1.0000
  O   O35       1.0  0.55599  0.82329  0.85505  1.0000
  O   O36       1.0  0.44401  0.17671  0.14495  1.0000
  O   O37       1.0  0.81524  0.63888  0.22661  1.0000
  O   O38       1.0  0.18476  0.36112  0.77339  1.0000
  O   O39       1.0  0.70500  0.59360  0.18420  1.0000
  O   O40       1.0  0.29500  0.40640  0.81580  1.0000
  O   O41       1.0  0.82980  0.09660  0.96740  1.0000
  O   O42       1.0  0.17020  0.90340  0.03260  1.0000
  O   O43       1.0  0.72179  0.05156  0.92533  1.0000
  O   O44       1.0  0.27821  0.94844  0.07467  1.0000
  O   O45       1.0  0.98040  0.86840  0.29640  1.0000
  O   O46       1.0  0.01960  0.13160  0.70360  1.0000
  O   O47       1.0  0.88310  0.81340  0.29520  1.0000
  O   O48       1.0  0.11690  0.18660  0.70480  1.0000
  O   O49       1.0  0.79200  0.05810  0.80149  1.0000
  O   O50       1.0  0.20800  0.94190  0.19851  1.0000
  O   O51       1.0  0.74184  0.96140  0.80180  1.0000
  O   O52       1.0  0.25816  0.03860  0.19820  1.0000
  O   O53       1.0  0.01550  0.91098  0.45916  1.0000
  O   O54       1.0  0.98450  0.08902  0.54084  1.0000
  O   O55       1.0  0.97434  0.80254  0.42178  1.0000
  O   O56       1.0  0.02566  0.19746  0.57822  1.0000
  O   O57       1.0  0.83268  0.21684  0.90680  1.0000
  O   O58       1.0  0.16732  0.78316  0.09320  1.0000
  O   O59       1.0  0.76505  0.22357  0.96020  1.0000
  O   O60       1.0  0.23495  0.77643  0.03980  1.0000
  O   O61       1.0  0.06420  0.75320  0.28210  1.0000
  O   O62       1.0  0.93580  0.24680  0.71790  1.0000
  O   O63       1.0  0.97540  0.71860  0.29810  1.0000
  O   O64       1.0  0.02460  0.28140  0.70190  1.0000
  Cd  Cd3       1.0  0.88494  0.72852  0.32419  1.0000
  Cd  Cd4       1.0  0.11506  0.27148  0.67581  1.0000
  Cd  Cd5       1.0  0.77996  0.57206  0.27922  1.0000
  Cd  Cd6       1.0  0.22004  0.42794  0.72078  1.0000
  Cd  Cd7       1.0  0.49525  0.85805  0.78337  1.0000
  Cd  Cd8       1.0  0.50475  0.14195  0.21663  1.0000
  Cd  Cd9       1.0  0.65297  0.96132  0.82856  1.0000
  Cd  Cd10      1.0  0.34703  0.03868  0.17144  1.0000
  Cd  Cd11      1.0  0.75614  0.11819  0.87307  1.0000
  Cd  Cd12      1.0  0.24386  0.88181  0.12693  1.0000
