data_image0
_chemical_formula_structural       Zn4O36H8N8C8H4C4H4C8H4C16H4C4H4C8H4C8
_chemical_formula_sum              "Zn4 O36 H32 N8 C56"
_cell_length_a       13.1752
_cell_length_b       11.9066
_cell_length_c       13.6902
_cell_angle_alpha    90
_cell_angle_beta     100.567
_cell_angle_gamma    90

_space_group_name_H-M_alt    "P 1"
_space_group_IT_number       1

loop_
  _space_group_symop_operation_xyz
  'x, y, z'

loop_
  _atom_site_type_symbol
  _atom_site_label
  _atom_site_symmetry_multiplicity
  _atom_site_fract_x
  _atom_site_fract_y
  _atom_site_fract_z
  _atom_site_occupancy
  Zn  Zn1       1.0  0.15789  0.58629  0.16275  1.0000
  Zn  Zn2       1.0  0.84211  0.08629  0.33725  1.0000
  Zn  Zn3       1.0  0.84211  0.41371  0.83725  1.0000
  Zn  Zn4       1.0  0.15789  0.91371  0.66275  1.0000
  O   O1        1.0  0.22982  0.74123  0.17492  1.0000
  O   O2        1.0  0.77018  0.24123  0.32508  1.0000
  O   O3        1.0  0.77018  0.25877  0.82508  1.0000
  O   O4        1.0  0.22982  0.75877  0.67492  1.0000
  O   O5        1.0  0.20008  0.92537  0.15203  1.0000
  O   O6        1.0  0.79992  0.42537  0.34797  1.0000
  O   O7        1.0  0.79992  0.07463  0.84797  1.0000
  O   O8        1.0  0.20008  0.57463  0.65203  1.0000
  O   O9        1.0  0.67948  0.80255  0.00316  1.0000
  O   O10       1.0  0.32052  0.30255  0.49684  1.0000
  O   O11       1.0  0.32052  0.19745  0.99684  1.0000
  O   O12       1.0  0.67948  0.69745  0.50316  1.0000
  O   O13       1.0  0.71595  0.62020  0.01990  1.0000
  O   O14       1.0  0.28405  0.12020  0.48010  1.0000
  O   O15       1.0  0.28405  0.37980  0.98010  1.0000
  O   O16       1.0  0.71595  0.87980  0.51990  1.0000
  O   O17       1.0  0.30053  0.51675  0.22242  1.0000
  O   O18       1.0  0.69947  0.01675  0.27758  1.0000
  O   O19       1.0  0.69947  0.48325  0.77758  1.0000
  O   O20       1.0  0.30053  0.98325  0.72242  1.0000
  O   O21       1.0  0.38201  0.35363  0.26384  1.0000
  O   O22       1.0  0.61799  0.85363  0.23616  1.0000
  O   O23       1.0  0.61799  0.64637  0.73616  1.0000
  O   O24       1.0  0.38201  0.14637  0.76384  1.0000
  O   O25       1.0  0.88984  0.11020  0.19126  1.0000
  O   O26       1.0  0.11016  0.61020  0.30874  1.0000
  O   O27       1.0  0.11016  0.88980  0.80874  1.0000
  O   O28       1.0  0.88984  0.38980  0.69126  1.0000
  O   O29       1.0  0.82935  0.26098  0.10247  1.0000
  O   O30       1.0  0.17065  0.76098  0.39753  1.0000
  O   O31       1.0  0.17065  0.73902  0.89753  1.0000
  O   O32       1.0  0.82935  0.23902  0.60247  1.0000
  O   O33       1.0  0.18192  0.56059  0.01814  1.0000
  O   O34       1.0  0.81808  0.06059  0.48186  1.0000
  O   O35       1.0  0.81808  0.43941  0.98186  1.0000
  O   O36       1.0  0.18192  0.93941  0.51814  1.0000
  H   H1        1.0  0.18260  0.61330  0.97970  1.0000
  H   H2        1.0  0.81740  0.11330  0.52030  1.0000
  H   H3        1.0  0.81740  0.38670  0.02030  1.0000
  H   H4        1.0  0.18260  0.88670  0.47970  1.0000
  H   H5        1.0  0.21710  0.50830  0.00410  1.0000
  H   H6        1.0  0.78290  0.00830  0.49590  1.0000
  H   H7        1.0  0.78290  0.49170  0.99590  1.0000
  H   H8        1.0  0.21710  0.99170  0.50410  1.0000
  N   N1        1.0  0.03069  0.69358  0.10358  1.0000
  N   N2        1.0  0.96931  0.19358  0.39642  1.0000
  N   N3        1.0  0.96931  0.30642  0.89642  1.0000
  N   N4        1.0  0.03069  0.80642  0.60358  1.0000
  N   N5        1.0  0.11783  0.41503  0.17585  1.0000
  N   N6        1.0  0.88217  0.91503  0.32415  1.0000
  N   N7        1.0  0.88217  0.58497  0.82415  1.0000
  N   N8        1.0  0.11783  0.08497  0.67585  1.0000
  C   C1        1.0  0.05938  0.80224  0.10974  1.0000
  C   C2        1.0  0.94062  0.30224  0.39026  1.0000
  C   C3        1.0  0.94062  0.19776  0.89026  1.0000
  C   C4        1.0  0.05938  0.69776  0.60974  1.0000
  C   C5        1.0  0.98952  0.88922  0.08528  1.0000
  C   C6        1.0  0.01048  0.38922  0.41472  1.0000
  C   C7        1.0  0.01048  0.11078  0.91472  1.0000
  C   C8        1.0  0.98952  0.61078  0.58528  1.0000
  H   H9        1.0  0.01230  0.96510  0.08950  1.0000
  H   H10       1.0  0.98770  0.46510  0.41050  1.0000
  H   H11       1.0  0.98770  0.03490  0.91050  1.0000
  H   H12       1.0  0.01230  0.53490  0.58950  1.0000
  C   C9        1.0  0.88561  0.86390  0.05445  1.0000
  C   C10       1.0  0.11439  0.36390  0.44555  1.0000
  C   C11       1.0  0.11439  0.13610  0.94555  1.0000
  C   C12       1.0  0.88561  0.63610  0.55445  1.0000
  H   H13       1.0  0.83630  0.92230  0.03800  1.0000
  H   H14       1.0  0.16370  0.42230  0.46200  1.0000
  H   H15       1.0  0.16370  0.07770  0.96200  1.0000
  H   H16       1.0  0.83630  0.57770  0.53800  1.0000
  C   C13       1.0  0.85484  0.75203  0.04793  1.0000
  C   C14       1.0  0.14516  0.25203  0.45207  1.0000
  C   C15       1.0  0.14516  0.24797  0.95207  1.0000
  C   C16       1.0  0.85484  0.74797  0.54793  1.0000
  C   C17       1.0  0.93058  0.66978  0.07249  1.0000
  C   C18       1.0  0.06942  0.16978  0.42751  1.0000
  C   C19       1.0  0.06942  0.33022  0.92751  1.0000
  C   C20       1.0  0.93058  0.83022  0.57249  1.0000
  H   H17       1.0  0.91020  0.59320  0.06690  1.0000
  H   H18       1.0  0.08980  0.09320  0.43310  1.0000
  H   H19       1.0  0.08980  0.40680  0.93310  1.0000
  H   H20       1.0  0.91020  0.90680  0.56690  1.0000
  C   C21       1.0  0.17291  0.82577  0.14852  1.0000
  C   C22       1.0  0.82709  0.32577  0.35148  1.0000
  C   C23       1.0  0.82709  0.17423  0.85148  1.0000
  C   C24       1.0  0.17291  0.67423  0.64852  1.0000
  C   C25       1.0  0.74175  0.72120  0.02066  1.0000
  C   C26       1.0  0.25825  0.22120  0.47934  1.0000
  C   C27       1.0  0.25825  0.27880  0.97934  1.0000
  C   C28       1.0  0.74175  0.77880  0.52066  1.0000
  C   C29       1.0  0.20087  0.34965  0.20725  1.0000
  C   C30       1.0  0.79913  0.84965  0.29275  1.0000
  C   C31       1.0  0.79913  0.65035  0.79275  1.0000
  C   C32       1.0  0.20087  0.15035  0.70725  1.0000
  C   C33       1.0  0.19325  0.23434  0.21772  1.0000
  C   C34       1.0  0.80675  0.73434  0.28228  1.0000
  C   C35       1.0  0.80675  0.76566  0.78228  1.0000
  C   C36       1.0  0.19325  0.26566  0.71772  1.0000
  H   H21       1.0  0.25340  0.18990  0.23770  1.0000
  H   H22       1.0  0.74660  0.68990  0.26230  1.0000
  H   H23       1.0  0.74660  0.81010  0.76230  1.0000
  H   H24       1.0  0.25340  0.31010  0.73770  1.0000
  C   C37       1.0  0.09628  0.18490  0.19858  1.0000
  C   C38       1.0  0.90372  0.68490  0.30142  1.0000
  C   C39       1.0  0.90372  0.81510  0.80142  1.0000
  C   C40       1.0  0.09628  0.31510  0.69858  1.0000
  H   H25       1.0  0.08920  0.10620  0.20640  1.0000
  H   H26       1.0  0.91080  0.60620  0.29360  1.0000
  H   H27       1.0  0.91080  0.89380  0.79360  1.0000
  H   H28       1.0  0.08920  0.39380  0.70640  1.0000
  C   C41       1.0  0.00939  0.25161  0.16771  1.0000
  C   C42       1.0  0.99061  0.75161  0.33229  1.0000
  C   C43       1.0  0.99061  0.74839  0.83229  1.0000
  C   C44       1.0  0.00939  0.24839  0.66771  1.0000
  C   C45       1.0  0.02468  0.36669  0.15639  1.0000
  C   C46       1.0  0.97532  0.86669  0.34361  1.0000
  C   C47       1.0  0.97532  0.63331  0.84361  1.0000
  C   C48       1.0  0.02468  0.13331  0.65639  1.0000
  H   H29       1.0  0.96620  0.41270  0.13380  1.0000
  H   H30       1.0  0.03380  0.91270  0.36620  1.0000
  H   H31       1.0  0.03380  0.58730  0.86620  1.0000
  H   H32       1.0  0.96620  0.08730  0.63380  1.0000
  C   C49       1.0  0.30435  0.40920  0.23404  1.0000
  C   C50       1.0  0.69565  0.90920  0.26596  1.0000
  C   C51       1.0  0.69565  0.59080  0.76596  1.0000
  C   C52       1.0  0.30435  0.09080  0.73404  1.0000
  C   C53       1.0  0.90148  0.20336  0.15208  1.0000
  C   C54       1.0  0.09852  0.70336  0.34792  1.0000
  C   C55       1.0  0.09852  0.79664  0.84792  1.0000
  C   C56       1.0  0.90148  0.29664  0.65208  1.0000
