data_image0
_chemical_formula_structural       Cd8Cl16O16N24H16C8H8C16H8C16
_chemical_formula_sum              "Cd8 Cl16 O16 N24 H32 C40"
_cell_length_a       7.2637
_cell_length_b       17.7011
_cell_length_c       24.3144
_cell_angle_alpha    90
_cell_angle_beta     90
_cell_angle_gamma    90

_space_group_name_H-M_alt    "P 1"
_space_group_IT_number       1

loop_
  _space_group_symop_operation_xyz
  'x, y, z'

loop_
  _atom_site_type_symbol
  _atom_site_label
  _atom_site_symmetry_multiplicity
  _atom_site_fract_x
  _atom_site_fract_y
  _atom_site_fract_z
  _atom_site_occupancy
  Cd  Cd1       1.0  0.59301  0.70721  0.09566  1.0000
  Cd  Cd2       1.0  0.40699  0.79279  0.59566  1.0000
  Cd  Cd3       1.0  0.09301  0.29279  0.40434  1.0000
  Cd  Cd4       1.0  0.90699  0.20721  0.90434  1.0000
  Cd  Cd5       1.0  0.40699  0.29279  0.90434  1.0000
  Cd  Cd6       1.0  0.59301  0.20721  0.40434  1.0000
  Cd  Cd7       1.0  0.90699  0.70721  0.59566  1.0000
  Cd  Cd8       1.0  0.09301  0.79279  0.09566  1.0000
  Cl  Cl1       1.0  0.78224  0.79847  0.03572  1.0000
  Cl  Cl2       1.0  0.21776  0.70153  0.53572  1.0000
  Cl  Cl3       1.0  0.28224  0.20153  0.46428  1.0000
  Cl  Cl4       1.0  0.71776  0.29847  0.96428  1.0000
  Cl  Cl5       1.0  0.21776  0.20153  0.96428  1.0000
  Cl  Cl6       1.0  0.78224  0.29847  0.46428  1.0000
  Cl  Cl7       1.0  0.71776  0.79847  0.53572  1.0000
  Cl  Cl8       1.0  0.28224  0.70153  0.03572  1.0000
  Cl  Cl9       1.0  0.39472  0.78584  0.16052  1.0000
  Cl  Cl10      1.0  0.60528  0.71416  0.66052  1.0000
  Cl  Cl11      1.0  0.89472  0.21416  0.33948  1.0000
  Cl  Cl12      1.0  0.10528  0.28584  0.83948  1.0000
  Cl  Cl13      1.0  0.60528  0.21416  0.83948  1.0000
  Cl  Cl14      1.0  0.39472  0.28584  0.33948  1.0000
  Cl  Cl15      1.0  0.10528  0.78584  0.66052  1.0000
  Cl  Cl16      1.0  0.89472  0.71416  0.16052  1.0000
  O   O1        1.0  0.69690  0.61123  0.04216  1.0000
  O   O2        1.0  0.30310  0.88877  0.54216  1.0000
  O   O3        1.0  0.19690  0.38877  0.45784  1.0000
  O   O4        1.0  0.80310  0.11123  0.95784  1.0000
  O   O5        1.0  0.30310  0.38877  0.95784  1.0000
  O   O6        1.0  0.69690  0.11123  0.45784  1.0000
  O   O7        1.0  0.80310  0.61123  0.54216  1.0000
  O   O8        1.0  0.19690  0.88877  0.04216  1.0000
  O   O9        1.0  0.70250  0.48846  0.02306  1.0000
  O   O10       1.0  0.29750  0.01154  0.52306  1.0000
  O   O11       1.0  0.20250  0.51154  0.47694  1.0000
  O   O12       1.0  0.79750  0.98846  0.97694  1.0000
  O   O13       1.0  0.29750  0.51154  0.97694  1.0000
  O   O14       1.0  0.70250  0.98846  0.47694  1.0000
  O   O15       1.0  0.79750  0.48846  0.52306  1.0000
  O   O16       1.0  0.20250  0.01154  0.02306  1.0000
  N   N1        1.0  0.51930  0.58806  0.13710  1.0000
  N   N2        1.0  0.48070  0.91194  0.63710  1.0000
  N   N3        1.0  0.01930  0.41194  0.36290  1.0000
  N   N4        1.0  0.98070  0.08806  0.86290  1.0000
  N   N5        1.0  0.48070  0.41194  0.86290  1.0000
  N   N6        1.0  0.51930  0.08806  0.36290  1.0000
  N   N7        1.0  0.98070  0.58806  0.63710  1.0000
  N   N8        1.0  0.01930  0.91194  0.13710  1.0000
  N   N9        1.0  0.40760  0.44513  0.17066  1.0000
  N   N10       1.0  0.59240  0.05487  0.67066  1.0000
  N   N11       1.0  0.90760  0.55487  0.32934  1.0000
  N   N12       1.0  0.09240  0.94513  0.82934  1.0000
  N   N13       1.0  0.59240  0.55487  0.82934  1.0000
  N   N14       1.0  0.40760  0.94513  0.32934  1.0000
  N   N15       1.0  0.09240  0.44513  0.67066  1.0000
  N   N16       1.0  0.90760  0.05487  0.17066  1.0000
  N   N17       1.0  0.51870  0.39278  0.09042  1.0000
  N   N18       1.0  0.48130  0.10722  0.59042  1.0000
  N   N19       1.0  0.01870  0.60722  0.40958  1.0000
  N   N20       1.0  0.98130  0.89278  0.90958  1.0000
  N   N21       1.0  0.48130  0.60722  0.90958  1.0000
  N   N22       1.0  0.51870  0.89278  0.40958  1.0000
  N   N23       1.0  0.98130  0.39278  0.59042  1.0000
  N   N24       1.0  0.01870  0.10722  0.09042  1.0000
  H   H1        1.0  0.48030  0.34960  0.10180  1.0000
  H   H2        1.0  0.51970  0.15040  0.60180  1.0000
  H   H3        1.0  0.98030  0.65040  0.39820  1.0000
  H   H4        1.0  0.01970  0.84960  0.89820  1.0000
  H   H5        1.0  0.51970  0.65040  0.89820  1.0000
  H   H6        1.0  0.48030  0.84960  0.39820  1.0000
  H   H7        1.0  0.01970  0.34960  0.60180  1.0000
  H   H8        1.0  0.98030  0.15040  0.10180  1.0000
  H   H9        1.0  0.57290  0.39640  0.05910  1.0000
  H   H10       1.0  0.42710  0.10360  0.55910  1.0000
  H   H11       1.0  0.07290  0.60360  0.44090  1.0000
  H   H12       1.0  0.92710  0.89640  0.94090  1.0000
  H   H13       1.0  0.42710  0.60360  0.94090  1.0000
  H   H14       1.0  0.57290  0.89640  0.44090  1.0000
  H   H15       1.0  0.92710  0.39640  0.55910  1.0000
  H   H16       1.0  0.07290  0.10360  0.05910  1.0000
  C   C1        1.0  0.43670  0.57804  0.18563  1.0000
  C   C2        1.0  0.56330  0.92196  0.68563  1.0000
  C   C3        1.0  0.93670  0.42196  0.31437  1.0000
  C   C4        1.0  0.06330  0.07804  0.81437  1.0000
  C   C5        1.0  0.56330  0.42196  0.81437  1.0000
  C   C6        1.0  0.43670  0.07804  0.31437  1.0000
  C   C7        1.0  0.06330  0.57804  0.68563  1.0000
  C   C8        1.0  0.93670  0.92196  0.18563  1.0000
  H   H17       1.0  0.41580  0.61910  0.20870  1.0000
  H   H18       1.0  0.58420  0.88090  0.70870  1.0000
  H   H19       1.0  0.91580  0.38090  0.29130  1.0000
  H   H20       1.0  0.08420  0.11910  0.79130  1.0000
  H   H21       1.0  0.58420  0.38090  0.79130  1.0000
  H   H22       1.0  0.41580  0.11910  0.29130  1.0000
  H   H23       1.0  0.08420  0.61910  0.70870  1.0000
  H   H24       1.0  0.91580  0.88090  0.20870  1.0000
  C   C9        1.0  0.65600  0.54351  0.05262  1.0000
  C   C10       1.0  0.34400  0.95649  0.55262  1.0000
  C   C11       1.0  0.15600  0.45649  0.44738  1.0000
  C   C12       1.0  0.84400  0.04351  0.94738  1.0000
  C   C13       1.0  0.34400  0.45649  0.94738  1.0000
  C   C14       1.0  0.65600  0.04351  0.44738  1.0000
  C   C15       1.0  0.84400  0.54351  0.55262  1.0000
  C   C16       1.0  0.15600  0.95649  0.05262  1.0000
  C   C17       1.0  0.38210  0.50600  0.20151  1.0000
  C   C18       1.0  0.61790  0.99400  0.70151  1.0000
  C   C19       1.0  0.88210  0.49400  0.29849  1.0000
  C   C20       1.0  0.11790  0.00600  0.79849  1.0000
  C   C21       1.0  0.61790  0.49400  0.79849  1.0000
  C   C22       1.0  0.38210  0.00600  0.29849  1.0000
  C   C23       1.0  0.11790  0.50600  0.70151  1.0000
  C   C24       1.0  0.88210  0.99400  0.20151  1.0000
  H   H25       1.0  0.32480  0.50020  0.23550  1.0000
  H   H26       1.0  0.67520  0.99980  0.73550  1.0000
  H   H27       1.0  0.82480  0.49980  0.26450  1.0000
  H   H28       1.0  0.17520  0.00020  0.76450  1.0000
  H   H29       1.0  0.67520  0.49980  0.76450  1.0000
  H   H30       1.0  0.32480  0.00020  0.26450  1.0000
  H   H31       1.0  0.17520  0.50020  0.73550  1.0000
  H   H32       1.0  0.82480  0.99980  0.23550  1.0000
  C   C25       1.0  0.49420  0.45445  0.12153  1.0000
  C   C26       1.0  0.50580  0.04555  0.62153  1.0000
  C   C27       1.0  0.99420  0.54555  0.37847  1.0000
  C   C28       1.0  0.00580  0.95445  0.87847  1.0000
  C   C29       1.0  0.50580  0.54555  0.87847  1.0000
  C   C30       1.0  0.49420  0.95445  0.37847  1.0000
  C   C31       1.0  0.00580  0.45445  0.62153  1.0000
  C   C32       1.0  0.99420  0.04555  0.12153  1.0000
  C   C33       1.0  0.55190  0.52824  0.10494  1.0000
  C   C34       1.0  0.44810  0.97176  0.60494  1.0000
  C   C35       1.0  0.05190  0.47176  0.39506  1.0000
  C   C36       1.0  0.94810  0.02824  0.89506  1.0000
  C   C37       1.0  0.44810  0.47176  0.89506  1.0000
  C   C38       1.0  0.55190  0.02824  0.39506  1.0000
  C   C39       1.0  0.94810  0.52824  0.60494  1.0000
  C   C40       1.0  0.05190  0.97176  0.10494  1.0000
