data_image0
_chemical_formula_structural       In2C16O8C8H8O8C8H8C16H8C8H8
_chemical_formula_sum              "In2 C56 O16 H32"
_cell_length_a       10.7454
_cell_length_b       10.7454
_cell_length_c       14.4927
_cell_angle_alpha    90
_cell_angle_beta     90
_cell_angle_gamma    90

_space_group_name_H-M_alt    "P 1"
_space_group_IT_number       1

loop_
  _space_group_symop_operation_xyz
  'x, y, z'

loop_
  _atom_site_type_symbol
  _atom_site_label
  _atom_site_symmetry_multiplicity
  _atom_site_fract_x
  _atom_site_fract_y
  _atom_site_fract_z
  _atom_site_occupancy
  In  In1       1.0  0.00000  0.00000  0.00000  1.0000
  In  In2       1.0  0.00000  0.00000  0.50000  1.0000
  C   C1        1.0  0.08190  0.78890  0.04850  1.0000
  C   C2        1.0  0.78890  0.91810  0.95150  1.0000
  C   C3        1.0  0.91810  0.21110  0.04850  1.0000
  C   C4        1.0  0.21110  0.08190  0.95150  1.0000
  C   C5        1.0  0.08190  0.21110  0.45150  1.0000
  C   C6        1.0  0.91810  0.78890  0.45150  1.0000
  C   C7        1.0  0.21110  0.91810  0.54850  1.0000
  C   C8        1.0  0.78890  0.08190  0.54850  1.0000
  C   C9        1.0  0.12630  0.65700  0.07770  1.0000
  C   C10       1.0  0.65700  0.87370  0.92230  1.0000
  C   C11       1.0  0.87370  0.34300  0.07770  1.0000
  C   C12       1.0  0.34300  0.12630  0.92230  1.0000
  C   C13       1.0  0.12630  0.34300  0.42230  1.0000
  C   C14       1.0  0.87370  0.65700  0.42230  1.0000
  C   C15       1.0  0.34300  0.87370  0.57770  1.0000
  C   C16       1.0  0.65700  0.12630  0.57770  1.0000
  O   O1        1.0  0.07750  0.80400  0.96480  1.0000
  O   O2        1.0  0.80400  0.92250  0.03520  1.0000
  O   O3        1.0  0.92250  0.19600  0.96480  1.0000
  O   O4        1.0  0.19600  0.07750  0.03520  1.0000
  O   O5        1.0  0.07750  0.19600  0.53520  1.0000
  O   O6        1.0  0.92250  0.80400  0.53520  1.0000
  O   O7        1.0  0.19600  0.92250  0.46480  1.0000
  O   O8        1.0  0.80400  0.07750  0.46480  1.0000
  C   C17       1.0  0.20310  0.41890  0.12670  1.0000
  C   C18       1.0  0.41890  0.79690  0.87330  1.0000
  C   C19       1.0  0.79690  0.58110  0.12670  1.0000
  C   C20       1.0  0.58110  0.20310  0.87330  1.0000
  C   C21       1.0  0.20310  0.58110  0.37330  1.0000
  C   C22       1.0  0.79690  0.41890  0.37330  1.0000
  C   C23       1.0  0.58110  0.79690  0.62670  1.0000
  C   C24       1.0  0.41890  0.20310  0.62670  1.0000
  H   H1        1.0  0.23060  0.33840  0.14450  1.0000
  H   H2        1.0  0.33840  0.76940  0.85550  1.0000
  H   H3        1.0  0.76940  0.66160  0.14450  1.0000
  H   H4        1.0  0.66160  0.23060  0.85550  1.0000
  H   H5        1.0  0.23060  0.66160  0.35550  1.0000
  H   H6        1.0  0.76940  0.33840  0.35550  1.0000
  H   H7        1.0  0.66160  0.76940  0.64450  1.0000
  H   H8        1.0  0.33840  0.23060  0.64450  1.0000
  O   O9        1.0  0.05160  0.85930  0.11200  1.0000
  O   O10       1.0  0.85930  0.94840  0.88800  1.0000
  O   O11       1.0  0.94840  0.14070  0.11200  1.0000
  O   O12       1.0  0.14070  0.05160  0.88800  1.0000
  O   O13       1.0  0.05160  0.14070  0.38800  1.0000
  O   O14       1.0  0.94840  0.85930  0.38800  1.0000
  O   O15       1.0  0.14070  0.94840  0.61200  1.0000
  O   O16       1.0  0.85930  0.05160  0.61200  1.0000
  C   C25       1.0  0.13480  0.62910  0.16870  1.0000
  C   C26       1.0  0.62910  0.86520  0.83130  1.0000
  C   C27       1.0  0.86520  0.37090  0.16870  1.0000
  C   C28       1.0  0.37090  0.13480  0.83130  1.0000
  C   C29       1.0  0.13480  0.37090  0.33130  1.0000
  C   C30       1.0  0.86520  0.62910  0.33130  1.0000
  C   C31       1.0  0.37090  0.86520  0.66870  1.0000
  C   C32       1.0  0.62910  0.13480  0.66870  1.0000
  H   H9        1.0  0.11680  0.69150  0.21320  1.0000
  H   H10       1.0  0.69150  0.88320  0.78680  1.0000
  H   H11       1.0  0.88320  0.30850  0.21320  1.0000
  H   H12       1.0  0.30850  0.11680  0.78680  1.0000
  H   H13       1.0  0.11680  0.30850  0.28680  1.0000
  H   H14       1.0  0.88320  0.69150  0.28680  1.0000
  H   H15       1.0  0.30850  0.88320  0.71320  1.0000
  H   H16       1.0  0.69150  0.11680  0.71320  1.0000
  C   C33       1.0  0.16960  0.51040  0.19820  1.0000
  C   C34       1.0  0.51040  0.83040  0.80180  1.0000
  C   C35       1.0  0.83040  0.48960  0.19820  1.0000
  C   C36       1.0  0.48960  0.16960  0.80180  1.0000
  C   C37       1.0  0.16960  0.48960  0.30180  1.0000
  C   C38       1.0  0.83040  0.51040  0.30180  1.0000
  C   C39       1.0  0.48960  0.83040  0.69820  1.0000
  C   C40       1.0  0.51040  0.16960  0.69820  1.0000
  C   C41       1.0  0.15860  0.57010  0.01400  1.0000
  C   C42       1.0  0.57010  0.84140  0.98600  1.0000
  C   C43       1.0  0.84140  0.42990  0.01400  1.0000
  C   C44       1.0  0.42990  0.15860  0.98600  1.0000
  C   C45       1.0  0.15860  0.42990  0.48600  1.0000
  C   C46       1.0  0.84140  0.57010  0.48600  1.0000
  C   C47       1.0  0.42990  0.84140  0.51400  1.0000
  C   C48       1.0  0.57010  0.15860  0.51400  1.0000
  H   H17       1.0  0.15670  0.59200  0.95050  1.0000
  H   H18       1.0  0.59200  0.84330  0.04950  1.0000
  H   H19       1.0  0.84330  0.40800  0.95050  1.0000
  H   H20       1.0  0.40800  0.15670  0.04950  1.0000
  H   H21       1.0  0.15670  0.40800  0.54950  1.0000
  H   H22       1.0  0.84330  0.59200  0.54950  1.0000
  H   H23       1.0  0.40800  0.84330  0.45050  1.0000
  H   H24       1.0  0.59200  0.15670  0.45050  1.0000
  C   C49       1.0  0.19540  0.44690  0.03900  1.0000
  C   C50       1.0  0.44690  0.80460  0.96100  1.0000
  C   C51       1.0  0.80460  0.55310  0.03900  1.0000
  C   C52       1.0  0.55310  0.19540  0.96100  1.0000
  C   C53       1.0  0.19540  0.55310  0.46100  1.0000
  C   C54       1.0  0.80460  0.44690  0.46100  1.0000
  C   C55       1.0  0.55310  0.80460  0.53900  1.0000
  C   C56       1.0  0.44690  0.19540  0.53900  1.0000
  H   H25       1.0  0.21380  0.38670  0.99300  1.0000
  H   H26       1.0  0.38670  0.78620  0.00700  1.0000
  H   H27       1.0  0.78620  0.61330  0.99300  1.0000
  H   H28       1.0  0.61330  0.21380  0.00700  1.0000
  H   H29       1.0  0.21380  0.61330  0.50700  1.0000
  H   H30       1.0  0.78620  0.38670  0.50700  1.0000
  H   H31       1.0  0.61330  0.78620  0.49300  1.0000
  H   H32       1.0  0.38670  0.21380  0.49300  1.0000
