data_image0
_chemical_formula_structural       Pb8Br12C8N8H16O8C8H8O8C8H8O16C16H8C24
_chemical_formula_sum              "Pb8 Br12 C64 N8 H40 O32"
_cell_length_a       13.8876
_cell_length_b       13.8876
_cell_length_c       16.5575
_cell_angle_alpha    90
_cell_angle_beta     90
_cell_angle_gamma    90

_space_group_name_H-M_alt    "P 1"
_space_group_IT_number       1

loop_
  _space_group_symop_operation_xyz
  'x, y, z'

loop_
  _atom_site_type_symbol
  _atom_site_label
  _atom_site_symmetry_multiplicity
  _atom_site_fract_x
  _atom_site_fract_y
  _atom_site_fract_z
  _atom_site_occupancy
  Pb  Pb1       1.0  0.08172  0.12929  0.32431  1.0000
  Pb  Pb2       1.0  0.91828  0.87071  0.82431  1.0000
  Pb  Pb3       1.0  0.37071  0.58172  0.07431  1.0000
  Pb  Pb4       1.0  0.62929  0.41828  0.57431  1.0000
  Pb  Pb5       1.0  0.41828  0.62929  0.42569  1.0000
  Pb  Pb6       1.0  0.58172  0.37071  0.92569  1.0000
  Pb  Pb7       1.0  0.12929  0.08172  0.67569  1.0000
  Pb  Pb8       1.0  0.87071  0.91828  0.17569  1.0000
  Br  Br1       1.0  0.02115  0.10963  0.15675  1.0000
  Br  Br2       1.0  0.97885  0.89037  0.65675  1.0000
  Br  Br3       1.0  0.39037  0.52115  0.90675  1.0000
  Br  Br4       1.0  0.60963  0.47885  0.40675  1.0000
  Br  Br5       1.0  0.47885  0.60963  0.59325  1.0000
  Br  Br6       1.0  0.52115  0.39037  0.09325  1.0000
  Br  Br7       1.0  0.10963  0.02115  0.84325  1.0000
  Br  Br8       1.0  0.89037  0.97885  0.34325  1.0000
  Br  Br9       1.0  0.16522  0.16522  0.50000  1.0000
  Br  Br10      1.0  0.83478  0.83478  0.00000  1.0000
  Br  Br11      1.0  0.33478  0.66522  0.25000  1.0000
  Br  Br12      1.0  0.66522  0.33478  0.75000  1.0000
  C   C1        1.0  0.56500  0.99700  0.20610  1.0000
  C   C2        1.0  0.43500  0.00300  0.70610  1.0000
  C   C3        1.0  0.50300  0.06500  0.95610  1.0000
  C   C4        1.0  0.49700  0.93500  0.45610  1.0000
  C   C5        1.0  0.93500  0.49700  0.54390  1.0000
  C   C6        1.0  0.06500  0.50300  0.04390  1.0000
  C   C7        1.0  0.99700  0.56500  0.79390  1.0000
  C   C8        1.0  0.00300  0.43500  0.29390  1.0000
  N   N1        1.0  0.57840  0.16490  0.15580  1.0000
  N   N2        1.0  0.42160  0.83510  0.65580  1.0000
  N   N3        1.0  0.33510  0.07840  0.90580  1.0000
  N   N4        1.0  0.66490  0.92160  0.40580  1.0000
  N   N5        1.0  0.92160  0.66490  0.59420  1.0000
  N   N6        1.0  0.07840  0.33510  0.09420  1.0000
  N   N7        1.0  0.16490  0.57840  0.84420  1.0000
  N   N8        1.0  0.83510  0.42160  0.34420  1.0000
  H   H1        1.0  0.63880  0.15980  0.14510  1.0000
  H   H2        1.0  0.36120  0.84020  0.64510  1.0000
  H   H3        1.0  0.34020  0.13880  0.89510  1.0000
  H   H4        1.0  0.65980  0.86120  0.39510  1.0000
  H   H5        1.0  0.86120  0.65980  0.60490  1.0000
  H   H6        1.0  0.13880  0.34020  0.10490  1.0000
  H   H7        1.0  0.15980  0.63880  0.85490  1.0000
  H   H8        1.0  0.84020  0.36120  0.35490  1.0000
  H   H9        1.0  0.54880  0.21820  0.14660  1.0000
  H   H10       1.0  0.45120  0.78180  0.64660  1.0000
  H   H11       1.0  0.28180  0.04880  0.89660  1.0000
  H   H12       1.0  0.71820  0.95120  0.39660  1.0000
  H   H13       1.0  0.95120  0.71820  0.60340  1.0000
  H   H14       1.0  0.04880  0.28180  0.10340  1.0000
  H   H15       1.0  0.21820  0.54880  0.85340  1.0000
  H   H16       1.0  0.78180  0.45120  0.35340  1.0000
  O   O1        1.0  0.24550  0.14230  0.27320  1.0000
  O   O2        1.0  0.75450  0.85770  0.77320  1.0000
  O   O3        1.0  0.35770  0.74550  0.02320  1.0000
  O   O4        1.0  0.64230  0.25450  0.52320  1.0000
  O   O5        1.0  0.25450  0.64230  0.47680  1.0000
  O   O6        1.0  0.74550  0.35770  0.97680  1.0000
  O   O7        1.0  0.14230  0.24550  0.72680  1.0000
  O   O8        1.0  0.85770  0.75450  0.22680  1.0000
  C   C9        1.0  0.50670  0.92590  0.23790  1.0000
  C   C10       1.0  0.49330  0.07410  0.73790  1.0000
  C   C11       1.0  0.57410  0.00670  0.98790  1.0000
  C   C12       1.0  0.42590  0.99330  0.48790  1.0000
  C   C13       1.0  0.99330  0.42590  0.51210  1.0000
  C   C14       1.0  0.00670  0.57410  0.01210  1.0000
  C   C15       1.0  0.92590  0.50670  0.76210  1.0000
  C   C16       1.0  0.07410  0.49330  0.26210  1.0000
  H   H17       1.0  0.53060  0.86360  0.24320  1.0000
  H   H18       1.0  0.46940  0.13640  0.74320  1.0000
  H   H19       1.0  0.63640  0.03060  0.99320  1.0000
  H   H20       1.0  0.36360  0.96940  0.49320  1.0000
  H   H21       1.0  0.96940  0.36360  0.50680  1.0000
  H   H22       1.0  0.03060  0.63640  0.00680  1.0000
  H   H23       1.0  0.86360  0.53060  0.75680  1.0000
  H   H24       1.0  0.13640  0.46940  0.25680  1.0000
  O   O9        1.0  0.22520  0.99360  0.30750  1.0000
  O   O10       1.0  0.77480  0.00640  0.80750  1.0000
  O   O11       1.0  0.50640  0.72520  0.05750  1.0000
  O   O12       1.0  0.49360  0.27480  0.55750  1.0000
  O   O13       1.0  0.27480  0.49360  0.44250  1.0000
  O   O14       1.0  0.72520  0.50640  0.94250  1.0000
  O   O15       1.0  0.99360  0.22520  0.69250  1.0000
  O   O16       1.0  0.00640  0.77480  0.19250  1.0000
  C   C17       1.0  0.41510  0.94510  0.26150  1.0000
  C   C18       1.0  0.58490  0.05490  0.76150  1.0000
  C   C19       1.0  0.55490  0.91510  0.01150  1.0000
  C   C20       1.0  0.44510  0.08490  0.51150  1.0000
  C   C21       1.0  0.08490  0.44510  0.48850  1.0000
  C   C22       1.0  0.91510  0.55490  0.98850  1.0000
  C   C23       1.0  0.94510  0.41510  0.73850  1.0000
  C   C24       1.0  0.05490  0.58490  0.23850  1.0000
  H   H25       1.0  0.37800  0.89680  0.28480  1.0000
  H   H26       1.0  0.62200  0.10320  0.78480  1.0000
  H   H27       1.0  0.60320  0.87800  0.03480  1.0000
  H   H28       1.0  0.39680  0.12200  0.53480  1.0000
  H   H29       1.0  0.12200  0.39680  0.46520  1.0000
  H   H30       1.0  0.87800  0.60320  0.96520  1.0000
  H   H31       1.0  0.89680  0.37800  0.71520  1.0000
  H   H32       1.0  0.10320  0.62200  0.21520  1.0000
  O   O17       1.0  0.70020  0.89180  0.20150  1.0000
  O   O18       1.0  0.29980  0.10820  0.70150  1.0000
  O   O19       1.0  0.60820  0.20020  0.95150  1.0000
  O   O20       1.0  0.39180  0.79980  0.45150  1.0000
  O   O21       1.0  0.79980  0.39180  0.54850  1.0000
  O   O22       1.0  0.20020  0.60820  0.04850  1.0000
  O   O23       1.0  0.89180  0.70020  0.79850  1.0000
  O   O24       1.0  0.10820  0.29980  0.29850  1.0000
  O   O25       1.0  0.72410  0.04160  0.16460  1.0000
  O   O26       1.0  0.27590  0.95840  0.66460  1.0000
  O   O27       1.0  0.45840  0.22410  0.91460  1.0000
  O   O28       1.0  0.54160  0.77590  0.41460  1.0000
  O   O29       1.0  0.77590  0.54160  0.58540  1.0000
  O   O30       1.0  0.22410  0.45840  0.08540  1.0000
  O   O31       1.0  0.04160  0.72410  0.83540  1.0000
  O   O32       1.0  0.95840  0.27590  0.33540  1.0000
  C   C25       1.0  0.37600  0.03720  0.25110  1.0000
  C   C26       1.0  0.62400  0.96280  0.75110  1.0000
  C   C27       1.0  0.46280  0.87600  0.00110  1.0000
  C   C28       1.0  0.53720  0.12400  0.50110  1.0000
  C   C29       1.0  0.12400  0.53720  0.49890  1.0000
  C   C30       1.0  0.87600  0.46280  0.99890  1.0000
  C   C31       1.0  0.03720  0.37600  0.74890  1.0000
  C   C32       1.0  0.96280  0.62400  0.24890  1.0000
  C   C33       1.0  0.42920  0.10560  0.21410  1.0000
  C   C34       1.0  0.57080  0.89440  0.71410  1.0000
  C   C35       1.0  0.39440  0.92920  0.96410  1.0000
  C   C36       1.0  0.60560  0.07080  0.46410  1.0000
  C   C37       1.0  0.07080  0.60560  0.53590  1.0000
  C   C38       1.0  0.92920  0.39440  0.03590  1.0000
  C   C39       1.0  0.10560  0.42920  0.78590  1.0000
  C   C40       1.0  0.89440  0.57080  0.28590  1.0000
  H   H33       1.0  0.40340  0.16640  0.20480  1.0000
  H   H34       1.0  0.59660  0.83360  0.70480  1.0000
  H   H35       1.0  0.33360  0.90340  0.95480  1.0000
  H   H36       1.0  0.66640  0.09660  0.45480  1.0000
  H   H37       1.0  0.09660  0.66640  0.54520  1.0000
  H   H38       1.0  0.90340  0.33360  0.04520  1.0000
  H   H39       1.0  0.16640  0.40340  0.79520  1.0000
  H   H40       1.0  0.83360  0.59660  0.29520  1.0000
  C   C41       1.0  0.27510  0.06370  0.27990  1.0000
  C   C42       1.0  0.72490  0.93630  0.77990  1.0000
  C   C43       1.0  0.43630  0.77510  0.02990  1.0000
  C   C44       1.0  0.56370  0.22490  0.52990  1.0000
  C   C45       1.0  0.22490  0.56370  0.47010  1.0000
  C   C46       1.0  0.77510  0.43630  0.97010  1.0000
  C   C47       1.0  0.06370  0.27510  0.72010  1.0000
  C   C48       1.0  0.93630  0.72490  0.22010  1.0000
  C   C49       1.0  0.67120  0.97450  0.18890  1.0000
  C   C50       1.0  0.32880  0.02550  0.68890  1.0000
  C   C51       1.0  0.52550  0.17120  0.93890  1.0000
  C   C52       1.0  0.47450  0.82880  0.43890  1.0000
  C   C53       1.0  0.82880  0.47450  0.56110  1.0000
  C   C54       1.0  0.17120  0.52550  0.06110  1.0000
  C   C55       1.0  0.97450  0.67120  0.81110  1.0000
  C   C56       1.0  0.02550  0.32880  0.31110  1.0000
  C   C57       1.0  0.52660  0.08390  0.18910  1.0000
  C   C58       1.0  0.47340  0.91610  0.68910  1.0000
  C   C59       1.0  0.41610  0.02660  0.93910  1.0000
  C   C60       1.0  0.58390  0.97340  0.43910  1.0000
  C   C61       1.0  0.97340  0.58390  0.56090  1.0000
  C   C62       1.0  0.02660  0.41610  0.06090  1.0000
  C   C63       1.0  0.08390  0.52660  0.81090  1.0000
  C   C64       1.0  0.91610  0.47340  0.31090  1.0000
