data_image0
_chemical_formula_structural       Ag4B2H2B2H2B2H2B2H2B2H2B2H2B2H2B2H2B2H2B2H2B2H2B2H2B2H2B2H2B2H2B2H2B2H2B2H2B2H2B2H2B2H2B2H2B2H2B2H2N2C4H6
_chemical_formula_sum              "Ag4 B48 H54 N2 C4"
_cell_length_a       11.95
_cell_length_b       23.477
_cell_length_c       12.7259
_cell_angle_alpha    90
_cell_angle_beta     104.63
_cell_angle_gamma    90

_space_group_name_H-M_alt    "P 1"
_space_group_IT_number       1

loop_
  _space_group_symop_operation_xyz
  'x, y, z'

loop_
  _atom_site_type_symbol
  _atom_site_label
  _atom_site_symmetry_multiplicity
  _atom_site_fract_x
  _atom_site_fract_y
  _atom_site_fract_z
  _atom_site_occupancy
  Ag  Ag1       1.0  0.45633  0.51543  0.15549  1.0000
  Ag  Ag2       1.0  0.54367  0.01543  0.84451  1.0000
  Ag  Ag3       1.0  0.49862  0.23644  0.16749  1.0000
  Ag  Ag4       1.0  0.50138  0.73644  0.83251  1.0000
  B   B1        1.0  0.40280  0.40720  0.16520  1.0000
  B   B2        1.0  0.59720  0.90720  0.83480  1.0000
  H   H1        1.0  0.43580  0.43310  0.10750  1.0000
  H   H2        1.0  0.56420  0.93310  0.89250  1.0000
  B   B3        1.0  0.45070  0.33580  0.19800  1.0000
  B   B4        1.0  0.54930  0.83580  0.80200  1.0000
  H   H3        1.0  0.51520  0.31570  0.16170  1.0000
  H   H4        1.0  0.48480  0.81570  0.83830  1.0000
  B   B5        1.0  0.49370  0.38870  0.30050  1.0000
  B   B6        1.0  0.50630  0.88870  0.69950  1.0000
  H   H5        1.0  0.58420  0.40250  0.33000  1.0000
  H   H6        1.0  0.41580  0.90250  0.67000  1.0000
  B   B7        1.0  0.37430  0.43720  0.28390  1.0000
  B   B8        1.0  0.62570  0.93720  0.71610  1.0000
  H   H7        1.0  0.38940  0.48270  0.30300  1.0000
  H   H8        1.0  0.61060  0.98270  0.69700  1.0000
  B   B9        1.0  0.25780  0.41260  0.17520  1.0000
  B   B10       1.0  0.74220  0.91260  0.82480  1.0000
  H   H9        1.0  0.19630  0.44240  0.12430  1.0000
  H   H10       1.0  0.80370  0.94240  0.87570  1.0000
  B   B11       1.0  0.30330  0.35020  0.11910  1.0000
  B   B12       1.0  0.69670  0.85020  0.88090  1.0000
  H   H11       1.0  0.27290  0.33990  0.03220  1.0000
  H   H12       1.0  0.72710  0.83990  0.96780  1.0000
  B   B13       1.0  0.44690  0.32010  0.33490  1.0000
  B   B14       1.0  0.55310  0.82010  0.66510  1.0000
  H   H13       1.0  0.50690  0.29000  0.38690  1.0000
  H   H14       1.0  0.49310  0.79000  0.61310  1.0000
  B   B15       1.0  0.39990  0.38340  0.38990  1.0000
  B   B16       1.0  0.60010  0.88340  0.61010  1.0000
  H   H15       1.0  0.42910  0.39460  0.47650  1.0000
  H   H16       1.0  0.57090  0.89460  0.52350  1.0000
  B   B17       1.0  0.25120  0.39800  0.30980  1.0000
  B   B18       1.0  0.74880  0.89800  0.69020  1.0000
  H   H17       1.0  0.18650  0.41870  0.34510  1.0000
  H   H18       1.0  0.81350  0.91870  0.65490  1.0000
  B   B19       1.0  0.21200  0.34380  0.20940  1.0000
  B   B20       1.0  0.78800  0.84380  0.79060  1.0000
  H   H19       1.0  0.12210  0.32890  0.18170  1.0000
  H   H20       1.0  0.87790  0.82890  0.81830  1.0000
  B   B21       1.0  0.33080  0.29480  0.22180  1.0000
  B   B22       1.0  0.66920  0.79480  0.77820  1.0000
  H   H21       1.0  0.31800  0.24940  0.20070  1.0000
  H   H22       1.0  0.68200  0.74940  0.79930  1.0000
  B   B23       1.0  0.29890  0.32610  0.34130  1.0000
  B   B24       1.0  0.70110  0.82610  0.65870  1.0000
  H   H23       1.0  0.26540  0.30010  0.39850  1.0000
  H   H24       1.0  0.73460  0.80010  0.60150  1.0000
  B   B25       1.0  0.41780  0.64480  0.86040  1.0000
  B   B26       1.0  0.58220  0.14480  0.13960  1.0000
  H   H25       1.0  0.48650  0.66010  0.82400  1.0000
  H   H26       1.0  0.51350  0.16010  0.17600  1.0000
  B   B27       1.0  0.44520  0.59060  0.96420  1.0000
  B   B28       1.0  0.55480  0.09060  0.03580  1.0000
  H   H27       1.0  0.53170  0.57190  0.99470  1.0000
  H   H28       1.0  0.46830  0.07190  0.00530  1.0000
  B   B29       1.0  0.41370  0.66280  0.99800  1.0000
  B   B30       1.0  0.58630  0.16280  0.00200  1.0000
  H   H29       1.0  0.48020  0.69010  0.04950  1.0000
  H   H30       1.0  0.51980  0.19010  0.95050  1.0000
  B   B31       1.0  0.30540  0.69180  0.88820  1.0000
  B   B32       1.0  0.69460  0.19180  0.11180  1.0000
  H   H31       1.0  0.30160  0.73740  0.86810  1.0000
  H   H32       1.0  0.69840  0.23740  0.13190  1.0000
  B   B33       1.0  0.26910  0.63780  0.78380  1.0000
  B   B34       1.0  0.73090  0.13780  0.21620  1.0000
  H   H33       1.0  0.24250  0.64910  0.69710  1.0000
  H   H34       1.0  0.75750  0.14910  0.30290  1.0000
  B   B35       1.0  0.35560  0.57560  0.83010  1.0000
  B   B36       1.0  0.64440  0.07560  0.16990  1.0000
  H   H35       1.0  0.38420  0.54680  0.77380  1.0000
  H   H36       1.0  0.61580  0.04680  0.22620  1.0000
  B   B37       1.0  0.35160  0.60280  0.05200  1.0000
  B   B38       1.0  0.64840  0.10280  0.94800  1.0000
  H   H37       1.0  0.37770  0.59110  0.13840  1.0000
  H   H38       1.0  0.62230  0.09110  0.86160  1.0000
  B   B39       1.0  0.26720  0.66650  0.00560  1.0000
  B   B40       1.0  0.73280  0.16650  0.99440  1.0000
  H   H39       1.0  0.23970  0.69580  0.06170  1.0000
  H   H40       1.0  0.76030  0.19580  0.93830  1.0000
  B   B41       1.0  0.17740  0.65080  0.87350  1.0000
  B   B42       1.0  0.82260  0.15080  0.12650  1.0000
  H   H41       1.0  0.09100  0.67000  0.84460  1.0000
  H   H42       1.0  0.90900  0.17000  0.15540  1.0000
  B   B43       1.0  0.20580  0.57850  0.83620  1.0000
  B   B44       1.0  0.79420  0.07850  0.16380  1.0000
  H   H43       1.0  0.13850  0.55180  0.78400  1.0000
  H   H44       1.0  0.86150  0.05180  0.21600  1.0000
  B   B45       1.0  0.31490  0.54940  0.94850  1.0000
  B   B46       1.0  0.68510  0.04940  0.05150  1.0000
  H   H45       1.0  0.31770  0.50370  0.96760  1.0000
  H   H46       1.0  0.68230  0.00370  0.03240  1.0000
  B   B47       1.0  0.20350  0.59580  0.97480  1.0000
  B   B48       1.0  0.79650  0.09580  0.02520  1.0000
  H   H47       1.0  0.13580  0.58000  0.01200  1.0000
  H   H48       1.0  0.86420  0.08000  0.98800  1.0000
  N   N1        1.0  0.66070  0.51160  0.20360  1.0000
  N   N2        1.0  0.33930  0.01160  0.79640  1.0000
  C   C1        1.0  0.75030  0.49720  0.20480  1.0000
  C   C2        1.0  0.24970  0.99720  0.79520  1.0000
  C   C3        1.0  0.86770  0.47300  0.21200  1.0000
  C   C4        1.0  0.13230  0.97300  0.78800  1.0000
  H   H49       1.0  0.92140  0.50350  0.21210  1.0000
  H   H50       1.0  0.07860  0.00350  0.78790  1.0000
  H   H51       1.0  0.86460  0.44870  0.15060  1.0000
  H   H52       1.0  0.13540  0.94870  0.84940  1.0000
  H   H53       1.0  0.89260  0.45130  0.27770  1.0000
  H   H54       1.0  0.10740  0.95130  0.72230  1.0000
