data_image0
_chemical_formula_structural       Mn8Br16O24H16N8C8H8C8H8C8H8C8H8C16
_chemical_formula_sum              "Mn8 Br16 O24 H48 N8 C48"
_cell_length_a       13.49
_cell_length_b       21.51
_cell_length_c       9.803
_cell_angle_alpha    90
_cell_angle_beta     91.125
_cell_angle_gamma    90

_space_group_name_H-M_alt    "P 1"
_space_group_IT_number       1

loop_
  _space_group_symop_operation_xyz
  'x, y, z'

loop_
  _atom_site_type_symbol
  _atom_site_label
  _atom_site_symmetry_multiplicity
  _atom_site_fract_x
  _atom_site_fract_y
  _atom_site_fract_z
  _atom_site_occupancy
  Mn  Mn1       1.0  0.32935  0.06982  0.41356  1.0000
  Mn  Mn2       1.0  0.67065  0.06982  0.08644  1.0000
  Mn  Mn3       1.0  0.82935  0.56982  0.41356  1.0000
  Mn  Mn4       1.0  0.17065  0.56982  0.08644  1.0000
  Mn  Mn5       1.0  0.67065  0.93018  0.58644  1.0000
  Mn  Mn6       1.0  0.32935  0.93018  0.91356  1.0000
  Mn  Mn7       1.0  0.17065  0.43018  0.58644  1.0000
  Mn  Mn8       1.0  0.82935  0.43018  0.91356  1.0000
  Br  Br1       1.0  0.34335  0.15379  0.21825  1.0000
  Br  Br2       1.0  0.65665  0.15379  0.28175  1.0000
  Br  Br3       1.0  0.84335  0.65379  0.21825  1.0000
  Br  Br4       1.0  0.15665  0.65379  0.28175  1.0000
  Br  Br5       1.0  0.65665  0.84621  0.78175  1.0000
  Br  Br6       1.0  0.34335  0.84621  0.71825  1.0000
  Br  Br7       1.0  0.15665  0.34621  0.78175  1.0000
  Br  Br8       1.0  0.84335  0.34621  0.71825  1.0000
  Br  Br9       1.0  0.13026  0.06928  0.40001  1.0000
  Br  Br10      1.0  0.86974  0.06928  0.09999  1.0000
  Br  Br11      1.0  0.63026  0.56928  0.40001  1.0000
  Br  Br12      1.0  0.36974  0.56928  0.09999  1.0000
  Br  Br13      1.0  0.86974  0.93072  0.59999  1.0000
  Br  Br14      1.0  0.13026  0.93072  0.90001  1.0000
  Br  Br15      1.0  0.36974  0.43072  0.59999  1.0000
  Br  Br16      1.0  0.63026  0.43072  0.90001  1.0000
  O   O1        1.0  0.33360  0.01771  0.60760  1.0000
  O   O2        1.0  0.66640  0.01771  0.89240  1.0000
  O   O3        1.0  0.83360  0.51771  0.60760  1.0000
  O   O4        1.0  0.16640  0.51771  0.89240  1.0000
  O   O5        1.0  0.66640  0.98229  0.39240  1.0000
  O   O6        1.0  0.33360  0.98229  0.10760  1.0000
  O   O7        1.0  0.16640  0.48229  0.39240  1.0000
  O   O8        1.0  0.83360  0.48229  0.10760  1.0000
  O   O9        1.0  0.33310  0.02393  0.83430  1.0000
  O   O10       1.0  0.66690  0.02393  0.66570  1.0000
  O   O11       1.0  0.83310  0.52393  0.83430  1.0000
  O   O12       1.0  0.16690  0.52393  0.66570  1.0000
  O   O13       1.0  0.66690  0.97607  0.16570  1.0000
  O   O14       1.0  0.33310  0.97607  0.33430  1.0000
  O   O15       1.0  0.16690  0.47607  0.16570  1.0000
  O   O16       1.0  0.83310  0.47607  0.33430  1.0000
  O   O17       1.0  0.49280  0.06506  0.42170  1.0000
  O   O18       1.0  0.50720  0.06506  0.07830  1.0000
  O   O19       1.0  0.99280  0.56506  0.42170  1.0000
  O   O20       1.0  0.00720  0.56506  0.07830  1.0000
  O   O21       1.0  0.50720  0.93494  0.57830  1.0000
  O   O22       1.0  0.49280  0.93494  0.92170  1.0000
  O   O23       1.0  0.00720  0.43494  0.57830  1.0000
  O   O24       1.0  0.99280  0.43494  0.92170  1.0000
  H   H1        1.0  0.53580  0.09830  0.38650  1.0000
  H   H2        1.0  0.46420  0.09830  0.11350  1.0000
  H   H3        1.0  0.03580  0.59830  0.38650  1.0000
  H   H4        1.0  0.96420  0.59830  0.11350  1.0000
  H   H5        1.0  0.46420  0.90170  0.61350  1.0000
  H   H6        1.0  0.53580  0.90170  0.88650  1.0000
  H   H7        1.0  0.96420  0.40170  0.61350  1.0000
  H   H8        1.0  0.03580  0.40170  0.88650  1.0000
  H   H9        1.0  0.53940  0.04080  0.43760  1.0000
  H   H10       1.0  0.46060  0.04080  0.06240  1.0000
  H   H11       1.0  0.03940  0.54080  0.43760  1.0000
  H   H12       1.0  0.96060  0.54080  0.06240  1.0000
  H   H13       1.0  0.46060  0.95920  0.56240  1.0000
  H   H14       1.0  0.53940  0.95920  0.93760  1.0000
  H   H15       1.0  0.96060  0.45920  0.56240  1.0000
  H   H16       1.0  0.03940  0.45920  0.93760  1.0000
  N   N1        1.0  0.34310  0.14114  0.58340  1.0000
  N   N2        1.0  0.65690  0.14114  0.91660  1.0000
  N   N3        1.0  0.84310  0.64114  0.58340  1.0000
  N   N4        1.0  0.15690  0.64114  0.91660  1.0000
  N   N5        1.0  0.65690  0.85886  0.41660  1.0000
  N   N6        1.0  0.34310  0.85886  0.08340  1.0000
  N   N7        1.0  0.15690  0.35886  0.41660  1.0000
  N   N8        1.0  0.84310  0.35886  0.08340  1.0000
  C   C1        1.0  0.35140  0.20310  0.57140  1.0000
  C   C2        1.0  0.64860  0.20310  0.92860  1.0000
  C   C3        1.0  0.85140  0.70310  0.57140  1.0000
  C   C4        1.0  0.14860  0.70310  0.92860  1.0000
  C   C5        1.0  0.64860  0.79690  0.42860  1.0000
  C   C6        1.0  0.35140  0.79690  0.07140  1.0000
  C   C7        1.0  0.14860  0.29690  0.42860  1.0000
  C   C8        1.0  0.85140  0.29690  0.07140  1.0000
  H   H17       1.0  0.34880  0.22030  0.48440  1.0000
  H   H18       1.0  0.65120  0.22030  0.01560  1.0000
  H   H19       1.0  0.84880  0.72030  0.48440  1.0000
  H   H20       1.0  0.15120  0.72030  0.01560  1.0000
  H   H21       1.0  0.65120  0.77970  0.51560  1.0000
  H   H22       1.0  0.34880  0.77970  0.98440  1.0000
  H   H23       1.0  0.15120  0.27970  0.51560  1.0000
  H   H24       1.0  0.84880  0.27970  0.98440  1.0000
  C   C9        1.0  0.36340  0.24220  0.68090  1.0000
  C   C10       1.0  0.63660  0.24220  0.81910  1.0000
  C   C11       1.0  0.86340  0.74220  0.68090  1.0000
  C   C12       1.0  0.13660  0.74220  0.81910  1.0000
  C   C13       1.0  0.63660  0.75780  0.31910  1.0000
  C   C14       1.0  0.36340  0.75780  0.18090  1.0000
  C   C15       1.0  0.13660  0.25780  0.31910  1.0000
  C   C16       1.0  0.86340  0.25780  0.18090  1.0000
  H   H25       1.0  0.36670  0.28500  0.66870  1.0000
  H   H26       1.0  0.63330  0.28500  0.83130  1.0000
  H   H27       1.0  0.86670  0.78500  0.66870  1.0000
  H   H28       1.0  0.13330  0.78500  0.83130  1.0000
  H   H29       1.0  0.63330  0.71500  0.33130  1.0000
  H   H30       1.0  0.36670  0.71500  0.16870  1.0000
  H   H31       1.0  0.13330  0.21500  0.33130  1.0000
  H   H32       1.0  0.86670  0.21500  0.16870  1.0000
  C   C17       1.0  0.37020  0.21680  0.80770  1.0000
  C   C18       1.0  0.62980  0.21680  0.69230  1.0000
  C   C19       1.0  0.87020  0.71680  0.80770  1.0000
  C   C20       1.0  0.12980  0.71680  0.69230  1.0000
  C   C21       1.0  0.62980  0.78320  0.19230  1.0000
  C   C22       1.0  0.37020  0.78320  0.30770  1.0000
  C   C23       1.0  0.12980  0.28320  0.19230  1.0000
  C   C24       1.0  0.87020  0.28320  0.30770  1.0000
  H   H33       1.0  0.38000  0.24220  0.88360  1.0000
  H   H34       1.0  0.62000  0.24220  0.61640  1.0000
  H   H35       1.0  0.88000  0.74220  0.88360  1.0000
  H   H36       1.0  0.12000  0.74220  0.61640  1.0000
  H   H37       1.0  0.62000  0.75780  0.11640  1.0000
  H   H38       1.0  0.38000  0.75780  0.38360  1.0000
  H   H39       1.0  0.12000  0.25780  0.11640  1.0000
  H   H40       1.0  0.88000  0.25780  0.38360  1.0000
  C   C25       1.0  0.36250  0.15320  0.82340  1.0000
  C   C26       1.0  0.63750  0.15320  0.67660  1.0000
  C   C27       1.0  0.86250  0.65320  0.82340  1.0000
  C   C28       1.0  0.13750  0.65320  0.67660  1.0000
  C   C29       1.0  0.63750  0.84680  0.17660  1.0000
  C   C30       1.0  0.36250  0.84680  0.32340  1.0000
  C   C31       1.0  0.13750  0.34680  0.17660  1.0000
  C   C32       1.0  0.86250  0.34680  0.32340  1.0000
  H   H41       1.0  0.36670  0.13510  0.90950  1.0000
  H   H42       1.0  0.63330  0.13510  0.59050  1.0000
  H   H43       1.0  0.86670  0.63510  0.90950  1.0000
  H   H44       1.0  0.13330  0.63510  0.59050  1.0000
  H   H45       1.0  0.63330  0.86490  0.09050  1.0000
  H   H46       1.0  0.36670  0.86490  0.40950  1.0000
  H   H47       1.0  0.13330  0.36490  0.09050  1.0000
  H   H48       1.0  0.86670  0.36490  0.40950  1.0000
  C   C33       1.0  0.34880  0.11750  0.70910  1.0000
  C   C34       1.0  0.65120  0.11750  0.79090  1.0000
  C   C35       1.0  0.84880  0.61750  0.70910  1.0000
  C   C36       1.0  0.15120  0.61750  0.79090  1.0000
  C   C37       1.0  0.65120  0.88250  0.29090  1.0000
  C   C38       1.0  0.34880  0.88250  0.20910  1.0000
  C   C39       1.0  0.15120  0.38250  0.29090  1.0000
  C   C40       1.0  0.84880  0.38250  0.20910  1.0000
  C   C41       1.0  0.33780  0.04700  0.71800  1.0000
  C   C42       1.0  0.66220  0.04700  0.78200  1.0000
  C   C43       1.0  0.83780  0.54700  0.71800  1.0000
  C   C44       1.0  0.16220  0.54700  0.78200  1.0000
  C   C45       1.0  0.66220  0.95300  0.28200  1.0000
  C   C46       1.0  0.33780  0.95300  0.21800  1.0000
  C   C47       1.0  0.16220  0.45300  0.28200  1.0000
  C   C48       1.0  0.83780  0.45300  0.21800  1.0000
