data_image0
_chemical_formula_structural       Mn4S8N8O24H8O32C32H8C8H8C16H8C8H8C8H8C16H8C8H24
_chemical_formula_sum              "Mn4 S8 N8 O56 H80 C96"
_cell_length_a       20.2784
_cell_length_b       11.5613
_cell_length_c       21.646
_cell_angle_alpha    90
_cell_angle_beta     90.929
_cell_angle_gamma    90

_space_group_name_H-M_alt    "P 1"
_space_group_IT_number       1

loop_
  _space_group_symop_operation_xyz
  'x, y, z'

loop_
  _atom_site_type_symbol
  _atom_site_label
  _atom_site_symmetry_multiplicity
  _atom_site_fract_x
  _atom_site_fract_y
  _atom_site_fract_z
  _atom_site_occupancy
  Mn  Mn1       1.0  0.50000  0.52920  0.75000  1.0000
  Mn  Mn2       1.0  0.00000  0.02920  0.75000  1.0000
  Mn  Mn3       1.0  0.50000  0.47080  0.25000  1.0000
  Mn  Mn4       1.0  0.00000  0.97080  0.25000  1.0000
  S   S1        1.0  0.22600  0.21059  0.82906  1.0000
  S   S2        1.0  0.77400  0.21059  0.67094  1.0000
  S   S3        1.0  0.72600  0.71059  0.82906  1.0000
  S   S4        1.0  0.27400  0.71059  0.67094  1.0000
  S   S5        1.0  0.77400  0.78941  0.17094  1.0000
  S   S6        1.0  0.22600  0.78941  0.32906  1.0000
  S   S7        1.0  0.27400  0.28941  0.17094  1.0000
  S   S8        1.0  0.72600  0.28941  0.32906  1.0000
  N   N1        1.0  0.50000  0.33410  0.75000  1.0000
  N   N2        1.0  0.00000  0.83410  0.75000  1.0000
  N   N3        1.0  0.50000  0.66590  0.25000  1.0000
  N   N4        1.0  0.00000  0.16590  0.25000  1.0000
  N   N5        1.0  0.50000  0.72110  0.75000  1.0000
  N   N6        1.0  0.00000  0.22110  0.75000  1.0000
  N   N7        1.0  0.50000  0.27890  0.25000  1.0000
  N   N8        1.0  0.00000  0.77890  0.25000  1.0000
  O   O1        1.0  0.42512  0.50834  0.82314  1.0000
  O   O2        1.0  0.57488  0.50834  0.67686  1.0000
  O   O3        1.0  0.92512  0.00834  0.82314  1.0000
  O   O4        1.0  0.07488  0.00834  0.67686  1.0000
  O   O5        1.0  0.57488  0.49166  0.17686  1.0000
  O   O6        1.0  0.42512  0.49166  0.32314  1.0000
  O   O7        1.0  0.07488  0.99166  0.17686  1.0000
  O   O8        1.0  0.92512  0.99166  0.32314  1.0000
  O   O9        1.0  0.48571  0.47770  0.90822  1.0000
  O   O10       1.0  0.51429  0.47770  0.59178  1.0000
  O   O11       1.0  0.98571  0.97770  0.90822  1.0000
  O   O12       1.0  0.01429  0.97770  0.59178  1.0000
  O   O13       1.0  0.51429  0.52230  0.09178  1.0000
  O   O14       1.0  0.48571  0.52230  0.40822  1.0000
  O   O15       1.0  0.01429  0.02230  0.09178  1.0000
  O   O16       1.0  0.98571  0.02230  0.40822  1.0000
  O   O17       1.0  0.44169  0.35630  0.99631  1.0000
  O   O18       1.0  0.55831  0.35630  0.50369  1.0000
  O   O19       1.0  0.94169  0.85630  0.99631  1.0000
  O   O20       1.0  0.05831  0.85630  0.50369  1.0000
  O   O21       1.0  0.55831  0.64370  0.00369  1.0000
  O   O22       1.0  0.44169  0.64370  0.49631  1.0000
  O   O23       1.0  0.05831  0.14370  0.00369  1.0000
  O   O24       1.0  0.94169  0.14370  0.49631  1.0000
  H   H1        1.0  0.46570  0.40360  0.97960  1.0000
  H   H2        1.0  0.53430  0.40360  0.52040  1.0000
  H   H3        1.0  0.96570  0.90360  0.97960  1.0000
  H   H4        1.0  0.03430  0.90360  0.52040  1.0000
  H   H5        1.0  0.53430  0.59640  0.02040  1.0000
  H   H6        1.0  0.46570  0.59640  0.47960  1.0000
  H   H7        1.0  0.03430  0.09640  0.02040  1.0000
  H   H8        1.0  0.96570  0.09640  0.47960  1.0000
  O   O25       1.0  0.20985  0.30912  0.79060  1.0000
  O   O26       1.0  0.79015  0.30912  0.70940  1.0000
  O   O27       1.0  0.70985  0.80912  0.79060  1.0000
  O   O28       1.0  0.29015  0.80912  0.70940  1.0000
  O   O29       1.0  0.79015  0.69088  0.20940  1.0000
  O   O30       1.0  0.20985  0.69088  0.29060  1.0000
  O   O31       1.0  0.29015  0.19088  0.20940  1.0000
  O   O32       1.0  0.70985  0.19088  0.29060  1.0000
  O   O33       1.0  0.17018  0.18250  0.86832  1.0000
  O   O34       1.0  0.82982  0.18250  0.63168  1.0000
  O   O35       1.0  0.67018  0.68250  0.86832  1.0000
  O   O36       1.0  0.32982  0.68250  0.63168  1.0000
  O   O37       1.0  0.82982  0.81750  0.13168  1.0000
  O   O38       1.0  0.17018  0.81750  0.36832  1.0000
  O   O39       1.0  0.32982  0.31750  0.13168  1.0000
  O   O40       1.0  0.67018  0.31750  0.36832  1.0000
  O   O41       1.0  0.24990  0.11530  0.79402  1.0000
  O   O42       1.0  0.75010  0.11530  0.70598  1.0000
  O   O43       1.0  0.74990  0.61530  0.79402  1.0000
  O   O44       1.0  0.25010  0.61530  0.70598  1.0000
  O   O45       1.0  0.75010  0.88470  0.20598  1.0000
  O   O46       1.0  0.24990  0.88470  0.29402  1.0000
  O   O47       1.0  0.25010  0.38470  0.20598  1.0000
  O   O48       1.0  0.74990  0.38470  0.29402  1.0000
  O   O49       1.0  0.42364  0.52764  0.67642  1.0000
  O   O50       1.0  0.57636  0.52764  0.82358  1.0000
  O   O51       1.0  0.92364  0.02764  0.67642  1.0000
  O   O52       1.0  0.07636  0.02764  0.82358  1.0000
  O   O53       1.0  0.57636  0.47236  0.32358  1.0000
  O   O54       1.0  0.42364  0.47236  0.17642  1.0000
  O   O55       1.0  0.07636  0.97236  0.32358  1.0000
  O   O56       1.0  0.92364  0.97236  0.17642  1.0000
  C   C1        1.0  0.43590  0.45910  0.87457  1.0000
  C   C2        1.0  0.56410  0.45910  0.62543  1.0000
  C   C3        1.0  0.93590  0.95910  0.87457  1.0000
  C   C4        1.0  0.06410  0.95910  0.62543  1.0000
  C   C5        1.0  0.56410  0.54090  0.12543  1.0000
  C   C6        1.0  0.43590  0.54090  0.37457  1.0000
  C   C7        1.0  0.06410  0.04090  0.12543  1.0000
  C   C8        1.0  0.93590  0.04090  0.37457  1.0000
  C   C9        1.0  0.38709  0.37300  0.89721  1.0000
  C   C10       1.0  0.61291  0.37300  0.60279  1.0000
  C   C11       1.0  0.88709  0.87300  0.89721  1.0000
  C   C12       1.0  0.11291  0.87300  0.60279  1.0000
  C   C13       1.0  0.61291  0.62700  0.10279  1.0000
  C   C14       1.0  0.38709  0.62700  0.39721  1.0000
  C   C15       1.0  0.11291  0.12700  0.10279  1.0000
  C   C16       1.0  0.88709  0.12700  0.39721  1.0000
  C   C17       1.0  0.39261  0.32560  0.95670  1.0000
  C   C18       1.0  0.60739  0.32560  0.54330  1.0000
  C   C19       1.0  0.89261  0.82560  0.95670  1.0000
  C   C20       1.0  0.10739  0.82560  0.54330  1.0000
  C   C21       1.0  0.60739  0.67440  0.04330  1.0000
  C   C22       1.0  0.39261  0.67440  0.45670  1.0000
  C   C23       1.0  0.10739  0.17440  0.04330  1.0000
  C   C24       1.0  0.89261  0.17440  0.45670  1.0000
  C   C25       1.0  0.34674  0.24570  0.97673  1.0000
  C   C26       1.0  0.65326  0.24570  0.52327  1.0000
  C   C27       1.0  0.84674  0.74570  0.97673  1.0000
  C   C28       1.0  0.15326  0.74570  0.52327  1.0000
  C   C29       1.0  0.65326  0.75430  0.02327  1.0000
  C   C30       1.0  0.34674  0.75430  0.47673  1.0000
  C   C31       1.0  0.15326  0.25430  0.02327  1.0000
  C   C32       1.0  0.84674  0.25430  0.47673  1.0000
  H   H9        1.0  0.35020  0.21590  0.01660  1.0000
  H   H10       1.0  0.64980  0.21590  0.48340  1.0000
  H   H11       1.0  0.85020  0.71590  0.01660  1.0000
  H   H12       1.0  0.14980  0.71590  0.48340  1.0000
  H   H13       1.0  0.64980  0.78410  0.98340  1.0000
  H   H14       1.0  0.35020  0.78410  0.51660  1.0000
  H   H15       1.0  0.14980  0.28410  0.98340  1.0000
  H   H16       1.0  0.85020  0.28410  0.51660  1.0000
  C   C33       1.0  0.29642  0.21030  0.93840  1.0000
  C   C34       1.0  0.70358  0.21030  0.56160  1.0000
  C   C35       1.0  0.79642  0.71030  0.93840  1.0000
  C   C36       1.0  0.20358  0.71030  0.56160  1.0000
  C   C37       1.0  0.70358  0.78970  0.06160  1.0000
  C   C38       1.0  0.29642  0.78970  0.43840  1.0000
  C   C39       1.0  0.20358  0.28970  0.06160  1.0000
  C   C40       1.0  0.79642  0.28970  0.43840  1.0000
  H   H17       1.0  0.26620  0.15580  0.95200  1.0000
  H   H18       1.0  0.73380  0.15580  0.54800  1.0000
  H   H19       1.0  0.76620  0.65580  0.95200  1.0000
  H   H20       1.0  0.23380  0.65580  0.54800  1.0000
  H   H21       1.0  0.73380  0.84420  0.04800  1.0000
  H   H22       1.0  0.26620  0.84420  0.45200  1.0000
  H   H23       1.0  0.23380  0.34420  0.04800  1.0000
  H   H24       1.0  0.76620  0.34420  0.45200  1.0000
  C   C41       1.0  0.29040  0.25600  0.87918  1.0000
  C   C42       1.0  0.70960  0.25600  0.62082  1.0000
  C   C43       1.0  0.79040  0.75600  0.87918  1.0000
  C   C44       1.0  0.20960  0.75600  0.62082  1.0000
  C   C45       1.0  0.70960  0.74400  0.12082  1.0000
  C   C46       1.0  0.29040  0.74400  0.37918  1.0000
  C   C47       1.0  0.20960  0.24400  0.12082  1.0000
  C   C48       1.0  0.79040  0.24400  0.37918  1.0000
  C   C49       1.0  0.33517  0.33690  0.85896  1.0000
  C   C50       1.0  0.66483  0.33690  0.64104  1.0000
  C   C51       1.0  0.83517  0.83690  0.85896  1.0000
  C   C52       1.0  0.16483  0.83690  0.64104  1.0000
  C   C53       1.0  0.66483  0.66310  0.14104  1.0000
  C   C54       1.0  0.33517  0.66310  0.35896  1.0000
  C   C55       1.0  0.16483  0.16310  0.14104  1.0000
  C   C56       1.0  0.83517  0.16310  0.35896  1.0000
  H   H25       1.0  0.33060  0.36760  0.81940  1.0000
  H   H26       1.0  0.66940  0.36760  0.68060  1.0000
  H   H27       1.0  0.83060  0.86760  0.81940  1.0000
  H   H28       1.0  0.16940  0.86760  0.68060  1.0000
  H   H29       1.0  0.66940  0.63240  0.18060  1.0000
  H   H30       1.0  0.33060  0.63240  0.31940  1.0000
  H   H31       1.0  0.16940  0.13240  0.18060  1.0000
  H   H32       1.0  0.83060  0.13240  0.31940  1.0000
  C   C57       1.0  0.44504  0.27380  0.73789  1.0000
  C   C58       1.0  0.55496  0.27380  0.76211  1.0000
  C   C59       1.0  0.94504  0.77380  0.73789  1.0000
  C   C60       1.0  0.05496  0.77380  0.76211  1.0000
  C   C61       1.0  0.55496  0.72620  0.26211  1.0000
  C   C62       1.0  0.44504  0.72620  0.23789  1.0000
  C   C63       1.0  0.05496  0.22620  0.26211  1.0000
  C   C64       1.0  0.94504  0.22620  0.23789  1.0000
  H   H33       1.0  0.40650  0.31440  0.72890  1.0000
  H   H34       1.0  0.59350  0.31440  0.77110  1.0000
  H   H35       1.0  0.90650  0.81440  0.72890  1.0000
  H   H36       1.0  0.09350  0.81440  0.77110  1.0000
  H   H37       1.0  0.59350  0.68560  0.27110  1.0000
  H   H38       1.0  0.40650  0.68560  0.22890  1.0000
  H   H39       1.0  0.09350  0.18560  0.27110  1.0000
  H   H40       1.0  0.90650  0.18560  0.22890  1.0000
  C   C65       1.0  0.44248  0.15420  0.73810  1.0000
  C   C66       1.0  0.55752  0.15420  0.76190  1.0000
  C   C67       1.0  0.94248  0.65420  0.73810  1.0000
  C   C68       1.0  0.05752  0.65420  0.76190  1.0000
  C   C69       1.0  0.55752  0.84580  0.26190  1.0000
  C   C70       1.0  0.44248  0.84580  0.23810  1.0000
  C   C71       1.0  0.05752  0.34580  0.26190  1.0000
  C   C72       1.0  0.94248  0.34580  0.23810  1.0000
  H   H41       1.0  0.40280  0.11600  0.73040  1.0000
  H   H42       1.0  0.59720  0.11600  0.76960  1.0000
  H   H43       1.0  0.90280  0.61600  0.73040  1.0000
  H   H44       1.0  0.09720  0.61600  0.76960  1.0000
  H   H45       1.0  0.59720  0.88400  0.26960  1.0000
  H   H46       1.0  0.40280  0.88400  0.23040  1.0000
  H   H47       1.0  0.09720  0.38400  0.26960  1.0000
  H   H48       1.0  0.90280  0.38400  0.23040  1.0000
  C   C73       1.0  0.50000  0.09170  0.75000  1.0000
  C   C74       1.0  0.00000  0.59170  0.75000  1.0000
  C   C75       1.0  0.50000  0.90830  0.25000  1.0000
  C   C76       1.0  0.00000  0.40830  0.25000  1.0000
  C   C77       1.0  0.50000  0.96270  0.75000  1.0000
  C   C78       1.0  0.00000  0.46270  0.75000  1.0000
  C   C79       1.0  0.50000  0.03730  0.25000  1.0000
  C   C80       1.0  0.00000  0.53730  0.25000  1.0000
  C   C81       1.0  0.44179  0.90027  0.75308  1.0000
  C   C82       1.0  0.55821  0.90027  0.74692  1.0000
  C   C83       1.0  0.94179  0.40027  0.75308  1.0000
  C   C84       1.0  0.05821  0.40027  0.74692  1.0000
  C   C85       1.0  0.55821  0.09973  0.24692  1.0000
  C   C86       1.0  0.44179  0.09973  0.25308  1.0000
  C   C87       1.0  0.05821  0.59973  0.24692  1.0000
  C   C88       1.0  0.94179  0.59973  0.25308  1.0000
  H   H49       1.0  0.40160  0.93860  0.75490  1.0000
  H   H50       1.0  0.59840  0.93860  0.74510  1.0000
  H   H51       1.0  0.90160  0.43860  0.75490  1.0000
  H   H52       1.0  0.09840  0.43860  0.74510  1.0000
  H   H53       1.0  0.59840  0.06140  0.24510  1.0000
  H   H54       1.0  0.40160  0.06140  0.25490  1.0000
  H   H55       1.0  0.09840  0.56140  0.24510  1.0000
  H   H56       1.0  0.90160  0.56140  0.25490  1.0000
  C   C89       1.0  0.44385  0.78130  0.75340  1.0000
  C   C90       1.0  0.55615  0.78130  0.74660  1.0000
  C   C91       1.0  0.94385  0.28130  0.75340  1.0000
  C   C92       1.0  0.05615  0.28130  0.74660  1.0000
  C   C93       1.0  0.55615  0.21870  0.24660  1.0000
  C   C94       1.0  0.44385  0.21870  0.25340  1.0000
  C   C95       1.0  0.05615  0.71870  0.24660  1.0000
  C   C96       1.0  0.94385  0.71870  0.25340  1.0000
  H   H57       1.0  0.40440  0.74080  0.75610  1.0000
  H   H58       1.0  0.59560  0.74080  0.74390  1.0000
  H   H59       1.0  0.90440  0.24080  0.75610  1.0000
  H   H60       1.0  0.09560  0.24080  0.74390  1.0000
  H   H61       1.0  0.59560  0.25920  0.24390  1.0000
  H   H62       1.0  0.40440  0.25920  0.25610  1.0000
  H   H63       1.0  0.09560  0.75920  0.24390  1.0000
  H   H64       1.0  0.90440  0.75920  0.25610  1.0000
  H   H65       1.0  0.39280  0.57400  0.66780  1.0000
  H   H66       1.0  0.60720  0.57400  0.83220  1.0000
  H   H67       1.0  0.89280  0.07400  0.66780  1.0000
  H   H68       1.0  0.10720  0.07400  0.83220  1.0000
  H   H69       1.0  0.60720  0.42600  0.33220  1.0000
  H   H70       1.0  0.39280  0.42600  0.16780  1.0000
  H   H71       1.0  0.10720  0.92600  0.33220  1.0000
  H   H72       1.0  0.89280  0.92600  0.16780  1.0000
  H   H73       1.0  0.44920  0.52400  0.64580  1.0000
  H   H74       1.0  0.55080  0.52400  0.85420  1.0000
  H   H75       1.0  0.94920  0.02400  0.64580  1.0000
  H   H76       1.0  0.05080  0.02400  0.85420  1.0000
  H   H77       1.0  0.55080  0.47600  0.35420  1.0000
  H   H78       1.0  0.44920  0.47600  0.14580  1.0000
  H   H79       1.0  0.05080  0.97600  0.35420  1.0000
  H   H80       1.0  0.94920  0.97600  0.14580  1.0000
