data_image0
_chemical_formula_structural       Mo10O22Cu2O12CuN8H4C2H2N4C2H2C2H2C2H2N4H4N4C2H2C2H2N4H4
_chemical_formula_sum              "Mo10 O34 Cu3 N24 H24 C12"
_cell_length_a       10.6723
_cell_length_b       11.8947
_cell_length_c       12.5638
_cell_angle_alpha    66.678
_cell_angle_beta     65.224
_cell_angle_gamma    64.772

_space_group_name_H-M_alt    "P 1"
_space_group_IT_number       1

loop_
  _space_group_symop_operation_xyz
  'x, y, z'

loop_
  _atom_site_type_symbol
  _atom_site_label
  _atom_site_symmetry_multiplicity
  _atom_site_fract_x
  _atom_site_fract_y
  _atom_site_fract_z
  _atom_site_occupancy
  Mo  Mo1       1.0  0.13305  0.05965  0.98656  1.0000
  Mo  Mo2       1.0  0.86695  0.94035  0.01344  1.0000
  Mo  Mo3       1.0  0.04071  0.79514  0.22280  1.0000
  Mo  Mo4       1.0  0.95929  0.20486  0.77720  1.0000
  Mo  Mo5       1.0  0.27745  0.74393  0.95822  1.0000
  Mo  Mo6       1.0  0.72255  0.25607  0.04178  1.0000
  Mo  Mo7       1.0  0.35379  0.00640  0.72228  1.0000
  Mo  Mo8       1.0  0.64621  0.99360  0.27772  1.0000
  Mo  Mo9       1.0  0.56567  0.83521  0.89412  1.0000
  Mo  Mo10      1.0  0.43433  0.16479  0.10588  1.0000
  O   O1        1.0  0.93090  0.13270  0.97860  1.0000
  O   O2        1.0  0.06910  0.86730  0.02140  1.0000
  O   O3        1.0  0.46670  0.69080  0.94650  1.0000
  O   O4        1.0  0.53330  0.30920  0.05350  1.0000
  O   O5        1.0  0.53290  0.87940  0.73990  1.0000
  O   O6        1.0  0.46710  0.12060  0.26010  1.0000
  O   O7        1.0  0.09600  0.99420  0.14270  1.0000
  O   O8        1.0  0.90400  0.00580  0.85730  1.0000
  O   O9        1.0  0.58500  0.97560  0.87850  1.0000
  O   O10       1.0  0.41500  0.02440  0.12150  1.0000
  O   O11       1.0  0.50000  0.79590  0.07470  1.0000
  O   O12       1.0  0.50000  0.20410  0.92530  1.0000
  O   O13       1.0  0.23510  0.60760  0.99470  1.0000
  O   O14       1.0  0.76490  0.39240  0.00530  1.0000
  O   O15       1.0  0.31440  0.94170  0.92640  1.0000
  O   O16       1.0  0.68560  0.05830  0.07360  1.0000
  O   O17       1.0  0.27950  0.82230  0.80560  1.0000
  O   O18       1.0  0.72050  0.17770  0.19440  1.0000
  O   O19       1.0  0.99260  0.66260  0.25930  1.0000
  O   O20       1.0  0.00740  0.33740  0.74070  1.0000
  O   O21       1.0  0.73830  0.73170  0.86590  1.0000
  O   O22       1.0  0.26170  0.26830  0.13410  1.0000
  Cu  Cu1       1.0  0.41979  0.65980  0.19799  1.0000
  Cu  Cu2       1.0  0.58021  0.34020  0.80201  1.0000
  O   O23       1.0  0.85660  0.92310  0.19410  1.0000
  O   O24       1.0  0.14340  0.07690  0.80590  1.0000
  O   O25       1.0  0.24290  0.73620  0.14290  1.0000
  O   O26       1.0  0.75710  0.26380  0.85710  1.0000
  O   O27       1.0  0.16910  0.19400  0.96030  1.0000
  O   O28       1.0  0.83090  0.80600  0.03970  1.0000
  O   O29       1.0  0.02320  0.80550  0.36010  1.0000
  O   O30       1.0  0.97680  0.19450  0.63990  1.0000
  O   O31       1.0  0.34530  0.01530  0.58590  1.0000
  O   O32       1.0  0.65470  0.98470  0.41410  1.0000
  O   O33       1.0  0.39560  0.14130  0.69380  1.0000
  O   O34       1.0  0.60440  0.85870  0.30620  1.0000
  Cu  Cu3       1.0  0.50000  0.50000  0.50000  1.0000
  N   N1        1.0  0.37970  0.68600  0.45800  1.0000
  N   N2        1.0  0.62030  0.31400  0.54200  1.0000
  N   N3        1.0  0.24200  0.88000  0.46250  1.0000
  N   N4        1.0  0.75800  0.12000  0.53750  1.0000
  N   N5        1.0  0.34430  0.74830  0.34970  1.0000
  N   N6        1.0  0.65570  0.25170  0.65030  1.0000
  N   N7        1.0  0.14890  0.99150  0.50280  1.0000
  N   N8        1.0  0.85110  0.00850  0.49720  1.0000
  H   H1        1.0  0.09990  0.05550  0.45800  1.0000
  H   H2        1.0  0.90010  0.94450  0.54200  1.0000
  H   H3        1.0  0.14130  0.99540  0.57230  1.0000
  H   H4        1.0  0.85870  0.00460  0.42770  1.0000
  C   C1        1.0  0.26180  0.86390  0.35720  1.0000
  C   C2        1.0  0.73820  0.13610  0.64280  1.0000
  H   H5        1.0  0.22180  0.92710  0.29710  1.0000
  H   H6        1.0  0.77820  0.07290  0.70290  1.0000
  N   N9        1.0  0.35920  0.50430  0.29820  1.0000
  N   N10       1.0  0.64080  0.49570  0.70180  1.0000
  N   N11       1.0  0.37520  0.44210  0.41190  1.0000
  N   N12       1.0  0.62480  0.55790  0.58810  1.0000
  C   C3        1.0  0.31520  0.76790  0.52430  1.0000
  C   C4        1.0  0.68480  0.23210  0.47570  1.0000
  H   H7        1.0  0.31950  0.75110  0.60180  1.0000
  H   H8        1.0  0.68050  0.24890  0.39820  1.0000
  C   C5        1.0  0.28500  0.45310  0.28020  1.0000
  C   C6        1.0  0.71500  0.54690  0.71980  1.0000
  H   H9        1.0  0.26000  0.47790  0.20980  1.0000
  H   H10       1.0  0.74000  0.52210  0.79020  1.0000
  C   C7        1.0  0.31250  0.35280  0.45840  1.0000
  C   C8        1.0  0.68750  0.64720  0.54160  1.0000
  H   H11       1.0  0.30980  0.29340  0.53390  1.0000
  H   H12       1.0  0.69020  0.70660  0.46610  1.0000
  N   N13       1.0  0.25120  0.36030  0.37840  1.0000
  N   N14       1.0  0.74880  0.63970  0.62160  1.0000
  N   N15       1.0  0.17000  0.28510  0.39310  1.0000
  N   N16       1.0  0.83000  0.71490  0.60690  1.0000
  H   H13       1.0  0.13790  0.29780  0.33550  1.0000
  H   H14       1.0  0.86210  0.70220  0.66450  1.0000
  H   H15       1.0  0.15240  0.22640  0.45970  1.0000
  H   H16       1.0  0.84760  0.77360  0.54030  1.0000
  N   N17       1.0  0.64720  0.52250  0.33600  1.0000
  N   N18       1.0  0.35280  0.47750  0.66400  1.0000
  N   N19       1.0  0.61860  0.57260  0.22480  1.0000
  N   N20       1.0  0.38140  0.42740  0.77520  1.0000
  C   C9        1.0  0.74190  0.56690  0.14150  1.0000
  C   C10       1.0  0.25810  0.43310  0.85850  1.0000
  H   H17       1.0  0.75380  0.59310  0.05860  1.0000
  H   H18       1.0  0.24620  0.40690  0.94140  1.0000
  C   C11       1.0  0.78800  0.49090  0.31170  1.0000
  C   C12       1.0  0.21200  0.50910  0.68830  1.0000
  H   H19       1.0  0.83710  0.45510  0.36940  1.0000
  H   H20       1.0  0.16290  0.54490  0.63060  1.0000
  N   N21       1.0  0.85120  0.51830  0.18970  1.0000
  N   N22       1.0  0.14880  0.48170  0.81030  1.0000
  N   N23       1.0  0.99870  0.49540  0.12570  1.0000
  N   N24       1.0  0.00130  0.50460  0.87430  1.0000
  H   H21       1.0  0.02200  0.56200  0.11100  1.0000
  H   H22       1.0  0.97800  0.43800  0.88900  1.0000
  H   H23       1.0  0.05300  0.42700  0.16200  1.0000
  H   H24       1.0  0.94700  0.57300  0.83800  1.0000
