data_image0
_chemical_formula_structural       Mn2S4C4N4O4C4O4C12N4C8H16
_chemical_formula_sum              "Mn2 S4 C28 N8 O8 H16"
_cell_length_a       9.723
_cell_length_b       14.061
_cell_length_c       7.1516
_cell_angle_alpha    90
_cell_angle_beta     97.92
_cell_angle_gamma    90

_space_group_name_H-M_alt    "P 1"
_space_group_IT_number       1

loop_
  _space_group_symop_operation_xyz
  'x, y, z'

loop_
  _atom_site_type_symbol
  _atom_site_label
  _atom_site_symmetry_multiplicity
  _atom_site_fract_x
  _atom_site_fract_y
  _atom_site_fract_z
  _atom_site_occupancy
  Mn  Mn1       1.0  0.00000  0.00000  0.00000  1.0000
  Mn  Mn2       1.0  0.00000  0.50000  0.50000  1.0000
  S   S1        1.0  0.55700  0.13700  0.15600  1.0000
  S   S2        1.0  0.44300  0.63700  0.34400  1.0000
  S   S3        1.0  0.44300  0.86300  0.84400  1.0000
  S   S4        1.0  0.55700  0.36300  0.65600  1.0000
  C   C1        1.0  0.70400  0.08400  0.12300  1.0000
  C   C2        1.0  0.29600  0.58400  0.37700  1.0000
  C   C3        1.0  0.29600  0.91600  0.87700  1.0000
  C   C4        1.0  0.70400  0.41600  0.62300  1.0000
  N   N1        1.0  0.80500  0.04900  0.09900  1.0000
  N   N2        1.0  0.19500  0.54900  0.40100  1.0000
  N   N3        1.0  0.19500  0.95100  0.90100  1.0000
  N   N4        1.0  0.80500  0.45100  0.59900  1.0000
  O   O1        1.0  0.13000  0.49700  0.79300  1.0000
  O   O2        1.0  0.87000  0.99700  0.70700  1.0000
  O   O3        1.0  0.87000  0.50300  0.20700  1.0000
  O   O4        1.0  0.13000  0.00300  0.29300  1.0000
  C   C5        1.0  0.20200  0.43800  0.89000  1.0000
  C   C6        1.0  0.79800  0.93800  0.61000  1.0000
  C   C7        1.0  0.79800  0.56200  0.11000  1.0000
  C   C8        1.0  0.20200  0.06200  0.39000  1.0000
  O   O5        1.0  0.31900  0.45400  0.97900  1.0000
  O   O6        1.0  0.68100  0.95400  0.52100  1.0000
  O   O7        1.0  0.68100  0.54600  0.02100  1.0000
  O   O8        1.0  0.31900  0.04600  0.47900  1.0000
  C   C9        1.0  0.13800  0.34000  0.90700  1.0000
  C   C10       1.0  0.86200  0.84000  0.59300  1.0000
  C   C11       1.0  0.86200  0.66000  0.09300  1.0000
  C   C12       1.0  0.13800  0.16000  0.40700  1.0000
  C   C13       1.0  0.00700  0.31700  0.94700  1.0000
  C   C14       1.0  0.99300  0.81700  0.55300  1.0000
  C   C15       1.0  0.99300  0.68300  0.05300  1.0000
  C   C16       1.0  0.00700  0.18300  0.44700  1.0000
  C   C17       1.0  0.97100  0.22300  0.96300  1.0000
  C   C18       1.0  0.02900  0.72300  0.53700  1.0000
  C   C19       1.0  0.02900  0.77700  0.03700  1.0000
  C   C20       1.0  0.97100  0.27700  0.46300  1.0000
  N   N5        1.0  0.06200  0.15300  0.94000  1.0000
  N   N6        1.0  0.93800  0.65300  0.56000  1.0000
  N   N7        1.0  0.93800  0.84700  0.06000  1.0000
  N   N8        1.0  0.06200  0.34700  0.44000  1.0000
  C   C21       1.0  0.18900  0.17400  0.90200  1.0000
  C   C22       1.0  0.81100  0.67400  0.59800  1.0000
  C   C23       1.0  0.81100  0.82600  0.09800  1.0000
  C   C24       1.0  0.18900  0.32600  0.40200  1.0000
  C   C25       1.0  0.22900  0.26700  0.88500  1.0000
  C   C26       1.0  0.77100  0.76700  0.61500  1.0000
  C   C27       1.0  0.77100  0.73300  0.11500  1.0000
  C   C28       1.0  0.22900  0.23300  0.38500  1.0000
  H   H1        1.0  0.94106  0.36663  0.96318  1.0000
  H   H2        1.0  0.05894  0.86663  0.53682  1.0000
  H   H3        1.0  0.05894  0.63337  0.03682  1.0000
  H   H4        1.0  0.94106  0.13337  0.46318  1.0000
  H   H5        1.0  0.88041  0.20690  0.99060  1.0000
  H   H6        1.0  0.11959  0.70690  0.50940  1.0000
  H   H7        1.0  0.11959  0.79310  0.00940  1.0000
  H   H8        1.0  0.88041  0.29310  0.49060  1.0000
  H   H9        1.0  0.25338  0.12338  0.88600  1.0000
  H   H10       1.0  0.74662  0.62338  0.61400  1.0000
  H   H11       1.0  0.74662  0.87662  0.11400  1.0000
  H   H12       1.0  0.25338  0.37662  0.38600  1.0000
  H   H13       1.0  0.32055  0.28153  0.85671  1.0000
  H   H14       1.0  0.67945  0.78153  0.64329  1.0000
  H   H15       1.0  0.67945  0.71847  0.14329  1.0000
  H   H16       1.0  0.32055  0.21847  0.35671  1.0000
