data_image0
_chemical_formula_structural       Ho4O24H8O32H8O8C40H8C8H8C8H8C8H24C40H8C8H8C8H8C8H24
_chemical_formula_sum              "Ho4 O64 H112 C128"
_cell_length_a       16.5354
_cell_length_b       20.3456
_cell_length_c       9.65
_cell_angle_alpha    90
_cell_angle_beta     90
_cell_angle_gamma    90

_space_group_name_H-M_alt    "P 1"
_space_group_IT_number       1

loop_
  _space_group_symop_operation_xyz
  'x, y, z'

loop_
  _atom_site_type_symbol
  _atom_site_label
  _atom_site_symmetry_multiplicity
  _atom_site_fract_x
  _atom_site_fract_y
  _atom_site_fract_z
  _atom_site_occupancy
  Ho  Ho1       1.0  0.00000  0.00000  0.52224  1.0000
  Ho  Ho2       1.0  0.00000  0.00000  0.02224  1.0000
  Ho  Ho3       1.0  0.50000  0.50000  0.52224  1.0000
  Ho  Ho4       1.0  0.50000  0.50000  0.02224  1.0000
  O   O1        1.0  0.88654  0.94658  0.62870  1.0000
  O   O2        1.0  0.11346  0.05342  0.62870  1.0000
  O   O3        1.0  0.88654  0.05342  0.12870  1.0000
  O   O4        1.0  0.11346  0.94658  0.12870  1.0000
  O   O5        1.0  0.38654  0.44658  0.62870  1.0000
  O   O6        1.0  0.61346  0.55342  0.62870  1.0000
  O   O7        1.0  0.38654  0.55342  0.12870  1.0000
  O   O8        1.0  0.61346  0.44658  0.12870  1.0000
  O   O9        1.0  0.85783  0.00776  0.44770  1.0000
  O   O10       1.0  0.14217  0.99224  0.44770  1.0000
  O   O11       1.0  0.85783  0.99224  0.94770  1.0000
  O   O12       1.0  0.14217  0.00776  0.94770  1.0000
  O   O13       1.0  0.35783  0.50776  0.44770  1.0000
  O   O14       1.0  0.64217  0.49224  0.44770  1.0000
  O   O15       1.0  0.35783  0.49224  0.94770  1.0000
  O   O16       1.0  0.64217  0.50776  0.94770  1.0000
  O   O17       1.0  0.77838  0.87991  0.75270  1.0000
  O   O18       1.0  0.22162  0.12009  0.75270  1.0000
  O   O19       1.0  0.77838  0.12009  0.25270  1.0000
  O   O20       1.0  0.22162  0.87991  0.25270  1.0000
  O   O21       1.0  0.27838  0.37991  0.75270  1.0000
  O   O22       1.0  0.72162  0.62009  0.75270  1.0000
  O   O23       1.0  0.27838  0.62009  0.25270  1.0000
  O   O24       1.0  0.72162  0.37991  0.25270  1.0000
  H   H1        1.0  0.82330  0.89620  0.74220  1.0000
  H   H2        1.0  0.17670  0.10380  0.74220  1.0000
  H   H3        1.0  0.82330  0.10380  0.24220  1.0000
  H   H4        1.0  0.17670  0.89620  0.24220  1.0000
  H   H5        1.0  0.32330  0.39620  0.74220  1.0000
  H   H6        1.0  0.67670  0.60380  0.74220  1.0000
  H   H7        1.0  0.32330  0.60380  0.24220  1.0000
  H   H8        1.0  0.67670  0.39620  0.24220  1.0000
  O   O25       1.0  0.62754  0.85123  0.78920  1.0000
  O   O26       1.0  0.37246  0.14877  0.78920  1.0000
  O   O27       1.0  0.62754  0.14877  0.28920  1.0000
  O   O28       1.0  0.37246  0.85123  0.28920  1.0000
  O   O29       1.0  0.12754  0.35123  0.78920  1.0000
  O   O30       1.0  0.87246  0.64877  0.78920  1.0000
  O   O31       1.0  0.12754  0.64877  0.28920  1.0000
  O   O32       1.0  0.87246  0.35123  0.28920  1.0000
  O   O33       1.0  0.94590  0.09035  0.64170  1.0000
  O   O34       1.0  0.05410  0.90965  0.64170  1.0000
  O   O35       1.0  0.94590  0.90965  0.14170  1.0000
  O   O36       1.0  0.05410  0.09035  0.14170  1.0000
  O   O37       1.0  0.44590  0.59035  0.64170  1.0000
  O   O38       1.0  0.55410  0.40965  0.64170  1.0000
  O   O39       1.0  0.44590  0.40965  0.14170  1.0000
  O   O40       1.0  0.55410  0.59035  0.14170  1.0000
  O   O41       1.0  0.98827  0.07877  0.85840  1.0000
  O   O42       1.0  0.01173  0.92123  0.85840  1.0000
  O   O43       1.0  0.98827  0.92123  0.35840  1.0000
  O   O44       1.0  0.01173  0.07877  0.35840  1.0000
  O   O45       1.0  0.48827  0.57877  0.85840  1.0000
  O   O46       1.0  0.51173  0.42123  0.85840  1.0000
  O   O47       1.0  0.48827  0.42123  0.35840  1.0000
  O   O48       1.0  0.51173  0.57877  0.35840  1.0000
  O   O49       1.0  0.88405  0.19964  0.56120  1.0000
  O   O50       1.0  0.11595  0.80036  0.56120  1.0000
  O   O51       1.0  0.88405  0.80036  0.06120  1.0000
  O   O52       1.0  0.11595  0.19964  0.06120  1.0000
  O   O53       1.0  0.38405  0.69964  0.56120  1.0000
  O   O54       1.0  0.61595  0.30036  0.56120  1.0000
  O   O55       1.0  0.38405  0.30036  0.06120  1.0000
  O   O56       1.0  0.61595  0.69964  0.06120  1.0000
  H   H9        1.0  0.90280  0.16260  0.55100  1.0000
  H   H10       1.0  0.09720  0.83740  0.55100  1.0000
  H   H11       1.0  0.90280  0.83740  0.05100  1.0000
  H   H12       1.0  0.09720  0.16260  0.05100  1.0000
  H   H13       1.0  0.40280  0.66260  0.55100  1.0000
  H   H14       1.0  0.59720  0.33740  0.55100  1.0000
  H   H15       1.0  0.40280  0.33740  0.05100  1.0000
  H   H16       1.0  0.59720  0.66260  0.05100  1.0000
  O   O57       1.0  0.82093  0.31173  0.62460  1.0000
  O   O58       1.0  0.17907  0.68827  0.62460  1.0000
  O   O59       1.0  0.82093  0.68827  0.12460  1.0000
  O   O60       1.0  0.17907  0.31173  0.12460  1.0000
  O   O61       1.0  0.32093  0.81173  0.62460  1.0000
  O   O62       1.0  0.67907  0.18827  0.62460  1.0000
  O   O63       1.0  0.32093  0.18827  0.12460  1.0000
  O   O64       1.0  0.67907  0.81173  0.12460  1.0000
  C   C1        1.0  0.83576  0.97050  0.54410  1.0000
  C   C2        1.0  0.16424  0.02950  0.54410  1.0000
  C   C3        1.0  0.83576  0.02950  0.04410  1.0000
  C   C4        1.0  0.16424  0.97050  0.04410  1.0000
  C   C5        1.0  0.33576  0.47050  0.54410  1.0000
  C   C6        1.0  0.66424  0.52950  0.54410  1.0000
  C   C7        1.0  0.33576  0.52950  0.04410  1.0000
  C   C8        1.0  0.66424  0.47050  0.04410  1.0000
  C   C9        1.0  0.74860  0.95274  0.56020  1.0000
  C   C10       1.0  0.25140  0.04726  0.56020  1.0000
  C   C11       1.0  0.74860  0.04726  0.06020  1.0000
  C   C12       1.0  0.25140  0.95274  0.06020  1.0000
  C   C13       1.0  0.24860  0.45274  0.56020  1.0000
  C   C14       1.0  0.75140  0.54726  0.56020  1.0000
  C   C15       1.0  0.24860  0.54726  0.06020  1.0000
  C   C16       1.0  0.75140  0.45274  0.06020  1.0000
  C   C17       1.0  0.72518  0.90950  0.66600  1.0000
  C   C18       1.0  0.27482  0.09050  0.66600  1.0000
  C   C19       1.0  0.72518  0.09050  0.16600  1.0000
  C   C20       1.0  0.27482  0.90950  0.16600  1.0000
  C   C21       1.0  0.22518  0.40950  0.66600  1.0000
  C   C22       1.0  0.77482  0.59050  0.66600  1.0000
  C   C23       1.0  0.22518  0.59050  0.16600  1.0000
  C   C24       1.0  0.77482  0.40950  0.16600  1.0000
  C   C25       1.0  0.64250  0.89540  0.68410  1.0000
  C   C26       1.0  0.35750  0.10460  0.68410  1.0000
  C   C27       1.0  0.64250  0.10460  0.18410  1.0000
  C   C28       1.0  0.35750  0.89540  0.18410  1.0000
  C   C29       1.0  0.14250  0.39540  0.68410  1.0000
  C   C30       1.0  0.85750  0.60460  0.68410  1.0000
  C   C31       1.0  0.14250  0.60460  0.18410  1.0000
  C   C32       1.0  0.85750  0.39540  0.18410  1.0000
  C   C33       1.0  0.58560  0.92409  0.59960  1.0000
  C   C34       1.0  0.41440  0.07591  0.59960  1.0000
  C   C35       1.0  0.58560  0.07591  0.09960  1.0000
  C   C36       1.0  0.41440  0.92409  0.09960  1.0000
  C   C37       1.0  0.08560  0.42409  0.59960  1.0000
  C   C38       1.0  0.91440  0.57591  0.59960  1.0000
  C   C39       1.0  0.08560  0.57591  0.09960  1.0000
  C   C40       1.0  0.91440  0.42409  0.09960  1.0000
  H   H17       1.0  0.53100  0.91530  0.61280  1.0000
  H   H18       1.0  0.46900  0.08470  0.61280  1.0000
  H   H19       1.0  0.53100  0.08470  0.11280  1.0000
  H   H20       1.0  0.46900  0.91530  0.11280  1.0000
  H   H21       1.0  0.03100  0.41530  0.61280  1.0000
  H   H22       1.0  0.96900  0.58470  0.61280  1.0000
  H   H23       1.0  0.03100  0.58470  0.11280  1.0000
  H   H24       1.0  0.96900  0.41530  0.11280  1.0000
  C   C41       1.0  0.61020  0.96633  0.49430  1.0000
  C   C42       1.0  0.38980  0.03367  0.49430  1.0000
  C   C43       1.0  0.61020  0.03367  0.99430  1.0000
  C   C44       1.0  0.38980  0.96633  0.99430  1.0000
  C   C45       1.0  0.11020  0.46633  0.49430  1.0000
  C   C46       1.0  0.88980  0.53367  0.49430  1.0000
  C   C47       1.0  0.11020  0.53367  0.99430  1.0000
  C   C48       1.0  0.88980  0.46633  0.99430  1.0000
  H   H25       1.0  0.57170  0.98550  0.43680  1.0000
  H   H26       1.0  0.42830  0.01450  0.43680  1.0000
  H   H27       1.0  0.57170  0.01450  0.93680  1.0000
  H   H28       1.0  0.42830  0.98550  0.93680  1.0000
  H   H29       1.0  0.07170  0.48550  0.43680  1.0000
  H   H30       1.0  0.92830  0.51450  0.43680  1.0000
  H   H31       1.0  0.07170  0.51450  0.93680  1.0000
  H   H32       1.0  0.92830  0.48550  0.93680  1.0000
  C   C49       1.0  0.69000  0.97984  0.47440  1.0000
  C   C50       1.0  0.31000  0.02016  0.47440  1.0000
  C   C51       1.0  0.69000  0.02016  0.97440  1.0000
  C   C52       1.0  0.31000  0.97984  0.97440  1.0000
  C   C53       1.0  0.19000  0.47984  0.47440  1.0000
  C   C54       1.0  0.81000  0.52016  0.47440  1.0000
  C   C55       1.0  0.19000  0.52016  0.97440  1.0000
  C   C56       1.0  0.81000  0.47984  0.97440  1.0000
  H   H33       1.0  0.70550  0.00760  0.40250  1.0000
  H   H34       1.0  0.29450  0.99240  0.40250  1.0000
  H   H35       1.0  0.70550  0.99240  0.90250  1.0000
  H   H36       1.0  0.29450  0.00760  0.90250  1.0000
  H   H37       1.0  0.20550  0.50760  0.40250  1.0000
  H   H38       1.0  0.79450  0.49240  0.40250  1.0000
  H   H39       1.0  0.20550  0.49240  0.90250  1.0000
  H   H40       1.0  0.79450  0.50760  0.90250  1.0000
  C   C57       1.0  0.54510  0.83550  0.81840  1.0000
  C   C58       1.0  0.45490  0.16450  0.81840  1.0000
  C   C59       1.0  0.54510  0.16450  0.31840  1.0000
  C   C60       1.0  0.45490  0.83550  0.31840  1.0000
  C   C61       1.0  0.04510  0.33550  0.81840  1.0000
  C   C62       1.0  0.95490  0.66450  0.81840  1.0000
  C   C63       1.0  0.04510  0.66450  0.31840  1.0000
  C   C64       1.0  0.95490  0.33550  0.31840  1.0000
  H   H41       1.0  0.51550  0.87510  0.83630  1.0000
  H   H42       1.0  0.48450  0.12490  0.83630  1.0000
  H   H43       1.0  0.51550  0.12490  0.33630  1.0000
  H   H44       1.0  0.48450  0.87510  0.33630  1.0000
  H   H45       1.0  0.01550  0.37510  0.83630  1.0000
  H   H46       1.0  0.98450  0.62490  0.83630  1.0000
  H   H47       1.0  0.01550  0.62490  0.33630  1.0000
  H   H48       1.0  0.98450  0.37510  0.33630  1.0000
  H   H49       1.0  0.54250  0.80740  0.89820  1.0000
  H   H50       1.0  0.45750  0.19260  0.89820  1.0000
  H   H51       1.0  0.54250  0.19260  0.39820  1.0000
  H   H52       1.0  0.45750  0.80740  0.39820  1.0000
  H   H53       1.0  0.04250  0.30740  0.89820  1.0000
  H   H54       1.0  0.95750  0.69260  0.89820  1.0000
  H   H55       1.0  0.04250  0.69260  0.39820  1.0000
  H   H56       1.0  0.95750  0.30740  0.39820  1.0000
  H   H57       1.0  0.52180  0.81330  0.74020  1.0000
  H   H58       1.0  0.47820  0.18670  0.74020  1.0000
  H   H59       1.0  0.52180  0.18670  0.24020  1.0000
  H   H60       1.0  0.47820  0.81330  0.24020  1.0000
  H   H61       1.0  0.02180  0.31330  0.74020  1.0000
  H   H62       1.0  0.97820  0.68670  0.74020  1.0000
  H   H63       1.0  0.02180  0.68670  0.24020  1.0000
  H   H64       1.0  0.97820  0.31330  0.24020  1.0000
  C   C65       1.0  0.95204  0.11003  0.76660  1.0000
  C   C66       1.0  0.04796  0.88997  0.76660  1.0000
  C   C67       1.0  0.95204  0.88997  0.26660  1.0000
  C   C68       1.0  0.04796  0.11003  0.26660  1.0000
  C   C69       1.0  0.45204  0.61003  0.76660  1.0000
  C   C70       1.0  0.54796  0.38997  0.76660  1.0000
  C   C71       1.0  0.45204  0.38997  0.26660  1.0000
  C   C72       1.0  0.54796  0.61003  0.26660  1.0000
  C   C73       1.0  0.91418  0.17443  0.80120  1.0000
  C   C74       1.0  0.08582  0.82557  0.80120  1.0000
  C   C75       1.0  0.91418  0.82557  0.30120  1.0000
  C   C76       1.0  0.08582  0.17443  0.30120  1.0000
  C   C77       1.0  0.41418  0.67443  0.80120  1.0000
  C   C78       1.0  0.58582  0.32557  0.80120  1.0000
  C   C79       1.0  0.41418  0.32557  0.30120  1.0000
  C   C80       1.0  0.58582  0.67443  0.30120  1.0000
  C   C81       1.0  0.88291  0.21495  0.69760  1.0000
  C   C82       1.0  0.11709  0.78505  0.69760  1.0000
  C   C83       1.0  0.88291  0.78505  0.19760  1.0000
  C   C84       1.0  0.11709  0.21495  0.19760  1.0000
  C   C85       1.0  0.38291  0.71495  0.69760  1.0000
  C   C86       1.0  0.61709  0.28505  0.69760  1.0000
  C   C87       1.0  0.38291  0.28505  0.19760  1.0000
  C   C88       1.0  0.61709  0.71495  0.19760  1.0000
  C   C89       1.0  0.84796  0.27609  0.73460  1.0000
  C   C90       1.0  0.15204  0.72391  0.73460  1.0000
  C   C91       1.0  0.84796  0.72391  0.23460  1.0000
  C   C92       1.0  0.15204  0.27609  0.23460  1.0000
  C   C93       1.0  0.34796  0.77609  0.73460  1.0000
  C   C94       1.0  0.65204  0.22391  0.73460  1.0000
  C   C95       1.0  0.34796  0.22391  0.23460  1.0000
  C   C96       1.0  0.65204  0.77609  0.23460  1.0000
  C   C97       1.0  0.84250  0.29424  0.87010  1.0000
  C   C98       1.0  0.15750  0.70576  0.87010  1.0000
  C   C99       1.0  0.84250  0.70576  0.37010  1.0000
  C   C100      1.0  0.15750  0.29424  0.37010  1.0000
  C   C101      1.0  0.34250  0.79424  0.87010  1.0000
  C   C102      1.0  0.65750  0.20576  0.87010  1.0000
  C   C103      1.0  0.34250  0.20576  0.37010  1.0000
  C   C104      1.0  0.65750  0.79424  0.37010  1.0000
  H   H65       1.0  0.81870  0.33410  0.89370  1.0000
  H   H66       1.0  0.18130  0.66590  0.89370  1.0000
  H   H67       1.0  0.81870  0.66590  0.39370  1.0000
  H   H68       1.0  0.18130  0.33410  0.39370  1.0000
  H   H69       1.0  0.31870  0.83410  0.89370  1.0000
  H   H70       1.0  0.68130  0.16590  0.89370  1.0000
  H   H71       1.0  0.31870  0.16590  0.39370  1.0000
  H   H72       1.0  0.68130  0.83410  0.39370  1.0000
  C   C105      1.0  0.87290  0.25268  0.97470  1.0000
  C   C106      1.0  0.12710  0.74732  0.97470  1.0000
  C   C107      1.0  0.87290  0.74732  0.47470  1.0000
  C   C108      1.0  0.12710  0.25268  0.47470  1.0000
  C   C109      1.0  0.37290  0.75268  0.97470  1.0000
  C   C110      1.0  0.62710  0.24732  0.97470  1.0000
  C   C111      1.0  0.37290  0.24732  0.47470  1.0000
  C   C112      1.0  0.62710  0.75268  0.47470  1.0000
  H   H73       1.0  0.86890  0.26500  0.06720  1.0000
  H   H74       1.0  0.13110  0.73500  0.06720  1.0000
  H   H75       1.0  0.86890  0.73500  0.56720  1.0000
  H   H76       1.0  0.13110  0.26500  0.56720  1.0000
  H   H77       1.0  0.36890  0.76500  0.06720  1.0000
  H   H78       1.0  0.63110  0.23500  0.06720  1.0000
  H   H79       1.0  0.36890  0.23500  0.56720  1.0000
  H   H80       1.0  0.63110  0.76500  0.56720  1.0000
  C   C113      1.0  0.90850  0.19387  0.94000  1.0000
  C   C114      1.0  0.09150  0.80613  0.94000  1.0000
  C   C115      1.0  0.90850  0.80613  0.44000  1.0000
  C   C116      1.0  0.09150  0.19387  0.44000  1.0000
  C   C117      1.0  0.40850  0.69387  0.94000  1.0000
  C   C118      1.0  0.59150  0.30613  0.94000  1.0000
  C   C119      1.0  0.40850  0.30613  0.44000  1.0000
  C   C120      1.0  0.59150  0.69387  0.44000  1.0000
  H   H81       1.0  0.92900  0.16680  0.00930  1.0000
  H   H82       1.0  0.07100  0.83320  0.00930  1.0000
  H   H83       1.0  0.92900  0.83320  0.50930  1.0000
  H   H84       1.0  0.07100  0.16680  0.50930  1.0000
  H   H85       1.0  0.42900  0.66680  0.00930  1.0000
  H   H86       1.0  0.57100  0.33320  0.00930  1.0000
  H   H87       1.0  0.42900  0.33320  0.50930  1.0000
  H   H88       1.0  0.57100  0.66680  0.50930  1.0000
  C   C121      1.0  0.79130  0.37678  0.64920  1.0000
  C   C122      1.0  0.20870  0.62322  0.64920  1.0000
  C   C123      1.0  0.79130  0.62322  0.14920  1.0000
  C   C124      1.0  0.20870  0.37678  0.14920  1.0000
  C   C125      1.0  0.29130  0.87678  0.64920  1.0000
  C   C126      1.0  0.70870  0.12322  0.64920  1.0000
  C   C127      1.0  0.29130  0.12322  0.14920  1.0000
  C   C128      1.0  0.70870  0.87678  0.14920  1.0000
  H   H89       1.0  0.74970  0.37540  0.71840  1.0000
  H   H90       1.0  0.25030  0.62460  0.71840  1.0000
  H   H91       1.0  0.74970  0.62460  0.21840  1.0000
  H   H92       1.0  0.25030  0.37540  0.21840  1.0000
  H   H93       1.0  0.24970  0.87540  0.71840  1.0000
  H   H94       1.0  0.75030  0.12460  0.71840  1.0000
  H   H95       1.0  0.24970  0.12460  0.21840  1.0000
  H   H96       1.0  0.75030  0.87540  0.21840  1.0000
  H   H97       1.0  0.76960  0.39440  0.56480  1.0000
  H   H98       1.0  0.23040  0.60560  0.56480  1.0000
  H   H99       1.0  0.76960  0.60560  0.06480  1.0000
  H   H100      1.0  0.23040  0.39440  0.06480  1.0000
  H   H101      1.0  0.26960  0.89440  0.56480  1.0000
  H   H102      1.0  0.73040  0.10560  0.56480  1.0000
  H   H103      1.0  0.26960  0.10560  0.06480  1.0000
  H   H104      1.0  0.73040  0.89440  0.06480  1.0000
  H   H105      1.0  0.83480  0.40420  0.68080  1.0000
  H   H106      1.0  0.16520  0.59580  0.68080  1.0000
  H   H107      1.0  0.83480  0.59580  0.18080  1.0000
  H   H108      1.0  0.16520  0.40420  0.18080  1.0000
  H   H109      1.0  0.33480  0.90420  0.68080  1.0000
  H   H110      1.0  0.66520  0.09580  0.68080  1.0000
  H   H111      1.0  0.33480  0.09580  0.18080  1.0000
  H   H112      1.0  0.66520  0.90420  0.18080  1.0000
