data_image0
_chemical_formula_structural       Gd4O24H8O32H8O8C40H8C8H8C8H8C8H24C40H8C8H8C8H8C8H24
_chemical_formula_sum              "Gd4 O64 H112 C128"
_cell_length_a       8.7945
_cell_length_b       16.4014
_cell_length_c       22.8534
_cell_angle_alpha    90
_cell_angle_beta     90
_cell_angle_gamma    90

_space_group_name_H-M_alt    "P 1"
_space_group_IT_number       1

loop_
  _space_group_symop_operation_xyz
  'x, y, z'

loop_
  _atom_site_type_symbol
  _atom_site_label
  _atom_site_symmetry_multiplicity
  _atom_site_fract_x
  _atom_site_fract_y
  _atom_site_fract_z
  _atom_site_occupancy
  Gd  Gd1       1.0  0.75000  0.00000  0.48005  1.0000
  Gd  Gd2       1.0  0.75000  0.50000  0.01995  1.0000
  Gd  Gd3       1.0  0.25000  0.00000  0.51995  1.0000
  Gd  Gd4       1.0  0.25000  0.50000  0.98005  1.0000
  O   O1        1.0  0.61934  0.04989  0.39415  1.0000
  O   O2        1.0  0.88066  0.95011  0.39415  1.0000
  O   O3        1.0  0.88066  0.54989  0.10585  1.0000
  O   O4        1.0  0.61934  0.45011  0.10585  1.0000
  O   O5        1.0  0.38066  0.95011  0.60585  1.0000
  O   O6        1.0  0.11934  0.04989  0.60585  1.0000
  O   O7        1.0  0.11934  0.45011  0.89415  1.0000
  O   O8        1.0  0.38066  0.54989  0.89415  1.0000
  O   O9        1.0  0.39610  0.04229  0.43873  1.0000
  O   O10       1.0  0.10390  0.95771  0.43873  1.0000
  O   O11       1.0  0.10390  0.54229  0.06127  1.0000
  O   O12       1.0  0.39610  0.45771  0.06127  1.0000
  O   O13       1.0  0.60390  0.95771  0.56127  1.0000
  O   O14       1.0  0.89610  0.04229  0.56127  1.0000
  O   O15       1.0  0.89610  0.45771  0.93873  1.0000
  O   O16       1.0  0.60390  0.54229  0.93873  1.0000
  O   O17       1.0  0.64399  0.10202  0.29161  1.0000
  O   O18       1.0  0.85601  0.89798  0.29161  1.0000
  O   O19       1.0  0.85601  0.60202  0.20839  1.0000
  O   O20       1.0  0.64399  0.39798  0.20839  1.0000
  O   O21       1.0  0.35601  0.89798  0.70839  1.0000
  O   O22       1.0  0.14399  0.10202  0.70839  1.0000
  O   O23       1.0  0.14399  0.39798  0.79161  1.0000
  O   O24       1.0  0.35601  0.60202  0.79161  1.0000
  H   H1        1.0  0.67310  0.08510  0.32350  1.0000
  H   H2        1.0  0.82690  0.91490  0.32350  1.0000
  H   H3        1.0  0.82690  0.58510  0.17650  1.0000
  H   H4        1.0  0.67310  0.41490  0.17650  1.0000
  H   H5        1.0  0.32690  0.91490  0.67650  1.0000
  H   H6        1.0  0.17310  0.08510  0.67650  1.0000
  H   H7        1.0  0.17310  0.41490  0.82350  1.0000
  H   H8        1.0  0.32690  0.58510  0.82350  1.0000
  O   O25       1.0  0.52020  0.16029  0.19753  1.0000
  O   O26       1.0  0.97980  0.83971  0.19753  1.0000
  O   O27       1.0  0.97980  0.66029  0.30247  1.0000
  O   O28       1.0  0.52020  0.33971  0.30247  1.0000
  O   O29       1.0  0.47980  0.83971  0.80247  1.0000
  O   O30       1.0  0.02020  0.16029  0.80247  1.0000
  O   O31       1.0  0.02020  0.33971  0.69753  1.0000
  O   O32       1.0  0.47980  0.66029  0.69753  1.0000
  O   O33       1.0  0.62491  0.12052  0.50659  1.0000
  O   O34       1.0  0.87509  0.87948  0.50659  1.0000
  O   O35       1.0  0.87509  0.62052  0.99341  1.0000
  O   O36       1.0  0.62491  0.37948  0.99341  1.0000
  O   O37       1.0  0.37509  0.87948  0.49341  1.0000
  O   O38       1.0  0.12491  0.12052  0.49341  1.0000
  O   O39       1.0  0.12491  0.37948  0.00659  1.0000
  O   O40       1.0  0.37509  0.62052  0.00659  1.0000
  O   O41       1.0  0.40828  0.11476  0.55745  1.0000
  O   O42       1.0  0.09172  0.88524  0.55745  1.0000
  O   O43       1.0  0.09172  0.61476  0.94255  1.0000
  O   O44       1.0  0.40828  0.38524  0.94255  1.0000
  O   O45       1.0  0.59172  0.88524  0.44255  1.0000
  O   O46       1.0  0.90828  0.11476  0.44255  1.0000
  O   O47       1.0  0.90828  0.38524  0.05745  1.0000
  O   O48       1.0  0.59172  0.61476  0.05745  1.0000
  O   O49       1.0  0.35728  0.23198  0.62828  1.0000
  O   O50       1.0  0.14272  0.76802  0.62828  1.0000
  O   O51       1.0  0.14272  0.73198  0.87172  1.0000
  O   O52       1.0  0.35728  0.26802  0.87172  1.0000
  O   O53       1.0  0.64272  0.76802  0.37172  1.0000
  O   O54       1.0  0.85728  0.23198  0.37172  1.0000
  O   O55       1.0  0.85728  0.26802  0.12828  1.0000
  O   O56       1.0  0.64272  0.73198  0.12828  1.0000
  H   H9        1.0  0.34780  0.18640  0.61400  1.0000
  H   H10       1.0  0.15220  0.81360  0.61400  1.0000
  H   H11       1.0  0.15220  0.68640  0.88600  1.0000
  H   H12       1.0  0.34780  0.31360  0.88600  1.0000
  H   H13       1.0  0.65220  0.81360  0.38600  1.0000
  H   H14       1.0  0.84780  0.18640  0.38600  1.0000
  H   H15       1.0  0.84780  0.31360  0.11400  1.0000
  H   H16       1.0  0.65220  0.68640  0.11400  1.0000
  O   O57       1.0  0.40770  0.38272  0.66070  1.0000
  O   O58       1.0  0.09230  0.61728  0.66070  1.0000
  O   O59       1.0  0.09230  0.88272  0.83930  1.0000
  O   O60       1.0  0.40770  0.11728  0.83930  1.0000
  O   O61       1.0  0.59230  0.61728  0.33930  1.0000
  O   O62       1.0  0.90770  0.38272  0.33930  1.0000
  O   O63       1.0  0.90770  0.11728  0.16070  1.0000
  O   O64       1.0  0.59230  0.88272  0.16070  1.0000
  C   C1        1.0  0.47510  0.05947  0.39538  1.0000
  C   C2        1.0  0.02490  0.94053  0.39538  1.0000
  C   C3        1.0  0.02490  0.55947  0.10462  1.0000
  C   C4        1.0  0.47510  0.44053  0.10462  1.0000
  C   C5        1.0  0.52490  0.94053  0.60462  1.0000
  C   C6        1.0  0.97510  0.05947  0.60462  1.0000
  C   C7        1.0  0.97510  0.44053  0.89538  1.0000
  C   C8        1.0  0.52490  0.55947  0.89538  1.0000
  C   C9        1.0  0.40250  0.09225  0.34132  1.0000
  C   C10       1.0  0.09750  0.90775  0.34132  1.0000
  C   C11       1.0  0.09750  0.59225  0.15868  1.0000
  C   C12       1.0  0.40250  0.40775  0.15868  1.0000
  C   C13       1.0  0.59750  0.90775  0.65868  1.0000
  C   C14       1.0  0.90250  0.09225  0.65868  1.0000
  C   C15       1.0  0.90250  0.40775  0.84132  1.0000
  C   C16       1.0  0.59750  0.59225  0.84132  1.0000
  C   C17       1.0  0.49030  0.11093  0.29251  1.0000
  C   C18       1.0  0.00970  0.88907  0.29251  1.0000
  C   C19       1.0  0.00970  0.61093  0.20749  1.0000
  C   C20       1.0  0.49030  0.38907  0.20749  1.0000
  C   C21       1.0  0.50970  0.88907  0.70749  1.0000
  C   C22       1.0  0.99030  0.11093  0.70749  1.0000
  C   C23       1.0  0.99030  0.38907  0.79251  1.0000
  C   C24       1.0  0.50970  0.61093  0.79251  1.0000
  C   C25       1.0  0.42070  0.14105  0.24151  1.0000
  C   C26       1.0  0.07930  0.85895  0.24151  1.0000
  C   C27       1.0  0.07930  0.64105  0.25849  1.0000
  C   C28       1.0  0.42070  0.35895  0.25849  1.0000
  C   C29       1.0  0.57930  0.85895  0.75849  1.0000
  C   C30       1.0  0.92070  0.14105  0.75849  1.0000
  C   C31       1.0  0.92070  0.35895  0.74151  1.0000
  C   C32       1.0  0.57930  0.64105  0.74151  1.0000
  C   C33       1.0  0.26510  0.14976  0.23950  1.0000
  C   C34       1.0  0.23490  0.85024  0.23950  1.0000
  C   C35       1.0  0.23490  0.64976  0.26050  1.0000
  C   C36       1.0  0.26510  0.35024  0.26050  1.0000
  C   C37       1.0  0.73490  0.85024  0.76050  1.0000
  C   C38       1.0  0.76510  0.14976  0.76050  1.0000
  C   C39       1.0  0.76510  0.35024  0.73950  1.0000
  C   C40       1.0  0.73490  0.64976  0.73950  1.0000
  H   H17       1.0  0.21850  0.16850  0.20550  1.0000
  H   H18       1.0  0.28150  0.83150  0.20550  1.0000
  H   H19       1.0  0.28150  0.66850  0.29450  1.0000
  H   H20       1.0  0.21850  0.33150  0.29450  1.0000
  H   H21       1.0  0.78150  0.83150  0.79450  1.0000
  H   H22       1.0  0.71850  0.16850  0.79450  1.0000
  H   H23       1.0  0.71850  0.33150  0.70550  1.0000
  H   H24       1.0  0.78150  0.66850  0.70550  1.0000
  C   C41       1.0  0.17760  0.13054  0.28838  1.0000
  C   C42       1.0  0.32240  0.86946  0.28838  1.0000
  C   C43       1.0  0.32240  0.63054  0.21162  1.0000
  C   C44       1.0  0.17760  0.36946  0.21162  1.0000
  C   C45       1.0  0.82240  0.86946  0.71162  1.0000
  C   C46       1.0  0.67760  0.13054  0.71162  1.0000
  C   C47       1.0  0.67760  0.36946  0.78838  1.0000
  C   C48       1.0  0.82240  0.63054  0.78838  1.0000
  H   H25       1.0  0.07260  0.13650  0.28680  1.0000
  H   H26       1.0  0.42740  0.86350  0.28680  1.0000
  H   H27       1.0  0.42740  0.63650  0.21320  1.0000
  H   H28       1.0  0.07260  0.36350  0.21320  1.0000
  H   H29       1.0  0.92740  0.86350  0.71320  1.0000
  H   H30       1.0  0.57260  0.13650  0.71320  1.0000
  H   H31       1.0  0.57260  0.36350  0.78680  1.0000
  H   H32       1.0  0.92740  0.63650  0.78680  1.0000
  C   C49       1.0  0.24460  0.10290  0.33877  1.0000
  C   C50       1.0  0.25540  0.89710  0.33877  1.0000
  C   C51       1.0  0.25540  0.60290  0.16123  1.0000
  C   C52       1.0  0.24460  0.39710  0.16123  1.0000
  C   C53       1.0  0.75540  0.89710  0.66123  1.0000
  C   C54       1.0  0.74460  0.10290  0.66123  1.0000
  C   C55       1.0  0.74460  0.39710  0.83877  1.0000
  C   C56       1.0  0.75540  0.60290  0.83877  1.0000
  H   H33       1.0  0.18510  0.09120  0.37130  1.0000
  H   H34       1.0  0.31490  0.90880  0.37130  1.0000
  H   H35       1.0  0.31490  0.59120  0.12870  1.0000
  H   H36       1.0  0.18510  0.40880  0.12870  1.0000
  H   H37       1.0  0.81490  0.90880  0.62870  1.0000
  H   H38       1.0  0.68510  0.09120  0.62870  1.0000
  H   H39       1.0  0.68510  0.40880  0.87130  1.0000
  H   H40       1.0  0.81490  0.59120  0.87130  1.0000
  C   C57       1.0  0.45930  0.18412  0.14220  1.0000
  C   C58       1.0  0.04070  0.81588  0.14220  1.0000
  C   C59       1.0  0.04070  0.68412  0.35780  1.0000
  C   C60       1.0  0.45930  0.31588  0.35780  1.0000
  C   C61       1.0  0.54070  0.81588  0.85780  1.0000
  C   C62       1.0  0.95930  0.18412  0.85780  1.0000
  C   C63       1.0  0.95930  0.31588  0.64220  1.0000
  C   C64       1.0  0.54070  0.68412  0.64220  1.0000
  H   H41       1.0  0.40080  0.14010  0.12620  1.0000
  H   H42       1.0  0.09920  0.85990  0.12620  1.0000
  H   H43       1.0  0.09920  0.64010  0.37380  1.0000
  H   H44       1.0  0.40080  0.35990  0.37380  1.0000
  H   H45       1.0  0.59920  0.85990  0.87380  1.0000
  H   H46       1.0  0.90080  0.14010  0.87380  1.0000
  H   H47       1.0  0.90080  0.35990  0.62620  1.0000
  H   H48       1.0  0.59920  0.64010  0.62620  1.0000
  H   H49       1.0  0.54100  0.19740  0.11600  1.0000
  H   H50       1.0  0.95900  0.80260  0.11600  1.0000
  H   H51       1.0  0.95900  0.69740  0.38400  1.0000
  H   H52       1.0  0.54100  0.30260  0.38400  1.0000
  H   H53       1.0  0.45900  0.80260  0.88400  1.0000
  H   H54       1.0  0.04100  0.19740  0.88400  1.0000
  H   H55       1.0  0.04100  0.30260  0.61600  1.0000
  H   H56       1.0  0.45900  0.69740  0.61600  1.0000
  H   H57       1.0  0.39520  0.23100  0.14720  1.0000
  H   H58       1.0  0.10480  0.76900  0.14720  1.0000
  H   H59       1.0  0.10480  0.73100  0.35280  1.0000
  H   H60       1.0  0.39520  0.26900  0.35280  1.0000
  H   H61       1.0  0.60480  0.76900  0.85280  1.0000
  H   H62       1.0  0.89520  0.23100  0.85280  1.0000
  H   H63       1.0  0.89520  0.26900  0.64720  1.0000
  H   H64       1.0  0.60480  0.73100  0.64720  1.0000
  C   C65       1.0  0.52320  0.15240  0.53648  1.0000
  C   C66       1.0  0.97680  0.84760  0.53648  1.0000
  C   C67       1.0  0.97680  0.65240  0.96352  1.0000
  C   C68       1.0  0.52320  0.34760  0.96352  1.0000
  C   C69       1.0  0.47680  0.84760  0.46352  1.0000
  C   C70       1.0  0.02320  0.15240  0.46352  1.0000
  C   C71       1.0  0.02320  0.34760  0.03648  1.0000
  C   C72       1.0  0.47680  0.65240  0.03648  1.0000
  C   C73       1.0  0.53940  0.24110  0.55006  1.0000
  C   C74       1.0  0.96060  0.75890  0.55006  1.0000
  C   C75       1.0  0.96060  0.74110  0.94994  1.0000
  C   C76       1.0  0.53940  0.25890  0.94994  1.0000
  C   C77       1.0  0.46060  0.75890  0.44994  1.0000
  C   C78       1.0  0.03940  0.24110  0.44994  1.0000
  C   C79       1.0  0.03940  0.25890  0.05006  1.0000
  C   C80       1.0  0.46060  0.74110  0.05006  1.0000
  C   C81       1.0  0.45860  0.27557  0.59631  1.0000
  C   C82       1.0  0.04140  0.72443  0.59631  1.0000
  C   C83       1.0  0.04140  0.77557  0.90369  1.0000
  C   C84       1.0  0.45860  0.22443  0.90369  1.0000
  C   C85       1.0  0.54140  0.72443  0.40369  1.0000
  C   C86       1.0  0.95860  0.27557  0.40369  1.0000
  C   C87       1.0  0.95860  0.22443  0.09631  1.0000
  C   C88       1.0  0.54140  0.77557  0.09631  1.0000
  C   C89       1.0  0.48320  0.35732  0.61145  1.0000
  C   C90       1.0  0.01680  0.64268  0.61145  1.0000
  C   C91       1.0  0.01680  0.85732  0.88855  1.0000
  C   C92       1.0  0.48320  0.14268  0.88855  1.0000
  C   C93       1.0  0.51680  0.64268  0.38855  1.0000
  C   C94       1.0  0.98320  0.35732  0.38855  1.0000
  C   C95       1.0  0.98320  0.14268  0.11145  1.0000
  C   C96       1.0  0.51680  0.85732  0.11145  1.0000
  C   C97       1.0  0.57930  0.40426  0.57789  1.0000
  C   C98       1.0  0.92070  0.59574  0.57789  1.0000
  C   C99       1.0  0.92070  0.90426  0.92211  1.0000
  C   C100      1.0  0.57930  0.09574  0.92211  1.0000
  C   C101      1.0  0.42070  0.59574  0.42211  1.0000
  C   C102      1.0  0.07930  0.40426  0.42211  1.0000
  C   C103      1.0  0.07930  0.09574  0.07789  1.0000
  C   C104      1.0  0.42070  0.90426  0.07789  1.0000
  H   H65       1.0  0.59240  0.45920  0.58680  1.0000
  H   H66       1.0  0.90760  0.54080  0.58680  1.0000
  H   H67       1.0  0.90760  0.95920  0.91320  1.0000
  H   H68       1.0  0.59240  0.04080  0.91320  1.0000
  H   H69       1.0  0.40760  0.54080  0.41320  1.0000
  H   H70       1.0  0.09240  0.45920  0.41320  1.0000
  H   H71       1.0  0.09240  0.04080  0.08680  1.0000
  H   H72       1.0  0.40760  0.95920  0.08680  1.0000
  C   C105      1.0  0.65690  0.37029  0.53092  1.0000
  C   C106      1.0  0.84310  0.62971  0.53092  1.0000
  C   C107      1.0  0.84310  0.87029  0.96908  1.0000
  C   C108      1.0  0.65690  0.12971  0.96908  1.0000
  C   C109      1.0  0.34310  0.62971  0.46908  1.0000
  C   C110      1.0  0.15690  0.37029  0.46908  1.0000
  C   C111      1.0  0.15690  0.12971  0.03092  1.0000
  C   C112      1.0  0.34310  0.87029  0.03092  1.0000
  H   H73       1.0  0.72080  0.40260  0.50830  1.0000
  H   H74       1.0  0.77920  0.59740  0.50830  1.0000
  H   H75       1.0  0.77920  0.90260  0.99170  1.0000
  H   H76       1.0  0.72080  0.09740  0.99170  1.0000
  H   H77       1.0  0.27920  0.59740  0.49170  1.0000
  H   H78       1.0  0.22080  0.40260  0.49170  1.0000
  H   H79       1.0  0.22080  0.09740  0.00830  1.0000
  H   H80       1.0  0.27920  0.90260  0.00830  1.0000
  C   C113      1.0  0.63980  0.28943  0.51779  1.0000
  C   C114      1.0  0.86020  0.71057  0.51779  1.0000
  C   C115      1.0  0.86020  0.78943  0.98221  1.0000
  C   C116      1.0  0.63980  0.21057  0.98221  1.0000
  C   C117      1.0  0.36020  0.71057  0.48221  1.0000
  C   C118      1.0  0.13980  0.28943  0.48221  1.0000
  C   C119      1.0  0.13980  0.21057  0.01779  1.0000
  C   C120      1.0  0.36020  0.78943  0.01779  1.0000
  H   H81       1.0  0.69520  0.26650  0.48730  1.0000
  H   H82       1.0  0.80480  0.73350  0.48730  1.0000
  H   H83       1.0  0.80480  0.76650  0.01270  1.0000
  H   H84       1.0  0.69520  0.23350  0.01270  1.0000
  H   H85       1.0  0.30480  0.73350  0.51270  1.0000
  H   H86       1.0  0.19520  0.26650  0.51270  1.0000
  H   H87       1.0  0.19520  0.23350  0.98730  1.0000
  H   H88       1.0  0.30480  0.76650  0.98730  1.0000
  C   C121      1.0  0.43500  0.46411  0.67976  1.0000
  C   C122      1.0  0.06500  0.53589  0.67976  1.0000
  C   C123      1.0  0.06500  0.96411  0.82024  1.0000
  C   C124      1.0  0.43500  0.03589  0.82024  1.0000
  C   C125      1.0  0.56500  0.53589  0.32024  1.0000
  C   C126      1.0  0.93500  0.46411  0.32024  1.0000
  C   C127      1.0  0.93500  0.03589  0.17976  1.0000
  C   C128      1.0  0.56500  0.96411  0.17976  1.0000
  H   H89       1.0  0.54200  0.47180  0.68600  1.0000
  H   H90       1.0  0.95800  0.52820  0.68600  1.0000
  H   H91       1.0  0.95800  0.97180  0.81400  1.0000
  H   H92       1.0  0.54200  0.02820  0.81400  1.0000
  H   H93       1.0  0.45800  0.52820  0.31400  1.0000
  H   H94       1.0  0.04200  0.47180  0.31400  1.0000
  H   H95       1.0  0.04200  0.02820  0.18600  1.0000
  H   H96       1.0  0.45800  0.97180  0.18600  1.0000
  H   H97       1.0  0.38140  0.47380  0.71570  1.0000
  H   H98       1.0  0.11860  0.52620  0.71570  1.0000
  H   H99       1.0  0.11860  0.97380  0.78430  1.0000
  H   H100      1.0  0.38140  0.02620  0.78430  1.0000
  H   H101      1.0  0.61860  0.52620  0.28430  1.0000
  H   H102      1.0  0.88140  0.47380  0.28430  1.0000
  H   H103      1.0  0.88140  0.02620  0.21570  1.0000
  H   H104      1.0  0.61860  0.97380  0.21570  1.0000
  H   H105      1.0  0.40000  0.50160  0.65050  1.0000
  H   H106      1.0  0.10000  0.49840  0.65050  1.0000
  H   H107      1.0  0.10000  0.00160  0.84950  1.0000
  H   H108      1.0  0.40000  0.99840  0.84950  1.0000
  H   H109      1.0  0.60000  0.49840  0.34950  1.0000
  H   H110      1.0  0.90000  0.50160  0.34950  1.0000
  H   H111      1.0  0.90000  0.99840  0.15050  1.0000
  H   H112      1.0  0.60000  0.00160  0.15050  1.0000
