data_image0
_chemical_formula_structural       Pr4O24H8O32H8O8C40H8C8H8C8H8C8H24C40H8C8H8C8H8C8H24
_chemical_formula_sum              "Pr4 O64 H112 C128"
_cell_length_a       8.8348
_cell_length_b       16.48
_cell_length_c       22.9332
_cell_angle_alpha    90
_cell_angle_beta     90
_cell_angle_gamma    90

_space_group_name_H-M_alt    "P 1"
_space_group_IT_number       1

loop_
  _space_group_symop_operation_xyz
  'x, y, z'

loop_
  _atom_site_type_symbol
  _atom_site_label
  _atom_site_symmetry_multiplicity
  _atom_site_fract_x
  _atom_site_fract_y
  _atom_site_fract_z
  _atom_site_occupancy
  Pr  Pr1       1.0  0.75000  0.00000  0.47958  1.0000
  Pr  Pr2       1.0  0.75000  0.50000  0.02042  1.0000
  Pr  Pr3       1.0  0.25000  0.00000  0.52042  1.0000
  Pr  Pr4       1.0  0.25000  0.50000  0.97958  1.0000
  O   O1        1.0  0.61962  0.05155  0.39096  1.0000
  O   O2        1.0  0.88038  0.94845  0.39096  1.0000
  O   O3        1.0  0.88038  0.55155  0.10904  1.0000
  O   O4        1.0  0.61962  0.44845  0.10904  1.0000
  O   O5        1.0  0.38038  0.94845  0.60904  1.0000
  O   O6        1.0  0.11962  0.05155  0.60904  1.0000
  O   O7        1.0  0.11962  0.44845  0.89096  1.0000
  O   O8        1.0  0.38038  0.55155  0.89096  1.0000
  O   O9        1.0  0.40060  0.04216  0.43697  1.0000
  O   O10       1.0  0.09940  0.95784  0.43697  1.0000
  O   O11       1.0  0.09940  0.54216  0.06303  1.0000
  O   O12       1.0  0.40060  0.45784  0.06303  1.0000
  O   O13       1.0  0.59940  0.95784  0.56303  1.0000
  O   O14       1.0  0.90060  0.04216  0.56303  1.0000
  O   O15       1.0  0.90060  0.45784  0.93697  1.0000
  O   O16       1.0  0.59940  0.54216  0.93697  1.0000
  O   O17       1.0  0.63959  0.10415  0.28917  1.0000
  O   O18       1.0  0.86041  0.89585  0.28917  1.0000
  O   O19       1.0  0.86041  0.60415  0.21083  1.0000
  O   O20       1.0  0.63959  0.39585  0.21083  1.0000
  O   O21       1.0  0.36041  0.89585  0.71083  1.0000
  O   O22       1.0  0.13959  0.10415  0.71083  1.0000
  O   O23       1.0  0.13959  0.39585  0.78917  1.0000
  O   O24       1.0  0.36041  0.60415  0.78917  1.0000
  H   H1        1.0  0.66970  0.08600  0.32040  1.0000
  H   H2        1.0  0.83030  0.91400  0.32040  1.0000
  H   H3        1.0  0.83030  0.58600  0.17960  1.0000
  H   H4        1.0  0.66970  0.41400  0.17960  1.0000
  H   H5        1.0  0.33030  0.91400  0.67960  1.0000
  H   H6        1.0  0.16970  0.08600  0.67960  1.0000
  H   H7        1.0  0.16970  0.41400  0.82040  1.0000
  H   H8        1.0  0.33030  0.58600  0.82040  1.0000
  O   O25       1.0  0.51330  0.16256  0.19655  1.0000
  O   O26       1.0  0.98670  0.83744  0.19655  1.0000
  O   O27       1.0  0.98670  0.66256  0.30345  1.0000
  O   O28       1.0  0.51330  0.33744  0.30345  1.0000
  O   O29       1.0  0.48670  0.83744  0.80345  1.0000
  O   O30       1.0  0.01330  0.16256  0.80345  1.0000
  O   O31       1.0  0.01330  0.33744  0.69655  1.0000
  O   O32       1.0  0.48670  0.66256  0.69655  1.0000
  O   O33       1.0  0.62423  0.12415  0.50652  1.0000
  O   O34       1.0  0.87577  0.87585  0.50652  1.0000
  O   O35       1.0  0.87577  0.62415  0.99348  1.0000
  O   O36       1.0  0.62423  0.37585  0.99348  1.0000
  O   O37       1.0  0.37577  0.87585  0.49348  1.0000
  O   O38       1.0  0.12423  0.12415  0.49348  1.0000
  O   O39       1.0  0.12423  0.37585  0.00652  1.0000
  O   O40       1.0  0.37577  0.62415  0.00652  1.0000
  O   O41       1.0  0.41189  0.11802  0.55907  1.0000
  O   O42       1.0  0.08811  0.88198  0.55907  1.0000
  O   O43       1.0  0.08811  0.61802  0.94093  1.0000
  O   O44       1.0  0.41189  0.38198  0.94093  1.0000
  O   O45       1.0  0.58811  0.88198  0.44093  1.0000
  O   O46       1.0  0.91189  0.11802  0.44093  1.0000
  O   O47       1.0  0.91189  0.38198  0.05907  1.0000
  O   O48       1.0  0.58811  0.61802  0.05907  1.0000
  O   O49       1.0  0.36060  0.23484  0.62890  1.0000
  O   O50       1.0  0.13940  0.76516  0.62890  1.0000
  O   O51       1.0  0.13940  0.73484  0.87110  1.0000
  O   O52       1.0  0.36060  0.26516  0.87110  1.0000
  O   O53       1.0  0.63940  0.76516  0.37110  1.0000
  O   O54       1.0  0.86060  0.23484  0.37110  1.0000
  O   O55       1.0  0.86060  0.26516  0.12890  1.0000
  O   O56       1.0  0.63940  0.73484  0.12890  1.0000
  H   H9        1.0  0.35140  0.18930  0.61490  1.0000
  H   H10       1.0  0.14860  0.81070  0.61490  1.0000
  H   H11       1.0  0.14860  0.68930  0.88510  1.0000
  H   H12       1.0  0.35140  0.31070  0.88510  1.0000
  H   H13       1.0  0.64860  0.81070  0.38510  1.0000
  H   H14       1.0  0.85140  0.18930  0.38510  1.0000
  H   H15       1.0  0.85140  0.31070  0.11490  1.0000
  H   H16       1.0  0.64860  0.68930  0.11490  1.0000
  O   O57       1.0  0.40820  0.38535  0.66033  1.0000
  O   O58       1.0  0.09180  0.61465  0.66033  1.0000
  O   O59       1.0  0.09180  0.88535  0.83967  1.0000
  O   O60       1.0  0.40820  0.11465  0.83967  1.0000
  O   O61       1.0  0.59180  0.61465  0.33967  1.0000
  O   O62       1.0  0.90820  0.38535  0.33967  1.0000
  O   O63       1.0  0.90820  0.11465  0.16033  1.0000
  O   O64       1.0  0.59180  0.88535  0.16033  1.0000
  C   C1        1.0  0.47610  0.06022  0.39306  1.0000
  C   C2        1.0  0.02390  0.93978  0.39306  1.0000
  C   C3        1.0  0.02390  0.56022  0.10694  1.0000
  C   C4        1.0  0.47610  0.43978  0.10694  1.0000
  C   C5        1.0  0.52390  0.93978  0.60694  1.0000
  C   C6        1.0  0.97610  0.06022  0.60694  1.0000
  C   C7        1.0  0.97610  0.43978  0.89306  1.0000
  C   C8        1.0  0.52390  0.56022  0.89306  1.0000
  C   C9        1.0  0.40130  0.09270  0.33968  1.0000
  C   C10       1.0  0.09870  0.90730  0.33968  1.0000
  C   C11       1.0  0.09870  0.59270  0.16032  1.0000
  C   C12       1.0  0.40130  0.40730  0.16032  1.0000
  C   C13       1.0  0.59870  0.90730  0.66032  1.0000
  C   C14       1.0  0.90130  0.09270  0.66032  1.0000
  C   C15       1.0  0.90130  0.40730  0.83968  1.0000
  C   C16       1.0  0.59870  0.59270  0.83968  1.0000
  C   C17       1.0  0.48640  0.11232  0.29089  1.0000
  C   C18       1.0  0.01360  0.88768  0.29089  1.0000
  C   C19       1.0  0.01360  0.61232  0.20911  1.0000
  C   C20       1.0  0.48640  0.38768  0.20911  1.0000
  C   C21       1.0  0.51360  0.88768  0.70911  1.0000
  C   C22       1.0  0.98640  0.11232  0.70911  1.0000
  C   C23       1.0  0.98640  0.38768  0.79089  1.0000
  C   C24       1.0  0.51360  0.61232  0.79089  1.0000
  C   C25       1.0  0.41540  0.14240  0.24051  1.0000
  C   C26       1.0  0.08460  0.85760  0.24051  1.0000
  C   C27       1.0  0.08460  0.64240  0.25949  1.0000
  C   C28       1.0  0.41540  0.35760  0.25949  1.0000
  C   C29       1.0  0.58460  0.85760  0.75949  1.0000
  C   C30       1.0  0.91540  0.14240  0.75949  1.0000
  C   C31       1.0  0.91540  0.35760  0.74051  1.0000
  C   C32       1.0  0.58460  0.64240  0.74051  1.0000
  C   C33       1.0  0.26030  0.15011  0.23922  1.0000
  C   C34       1.0  0.23970  0.84989  0.23922  1.0000
  C   C35       1.0  0.23970  0.65011  0.26078  1.0000
  C   C36       1.0  0.26030  0.34989  0.26078  1.0000
  C   C37       1.0  0.73970  0.84989  0.76078  1.0000
  C   C38       1.0  0.76030  0.15011  0.76078  1.0000
  C   C39       1.0  0.76030  0.34989  0.73922  1.0000
  C   C40       1.0  0.73970  0.65011  0.73922  1.0000
  H   H17       1.0  0.21230  0.16880  0.20570  1.0000
  H   H18       1.0  0.28770  0.83120  0.20570  1.0000
  H   H19       1.0  0.28770  0.66880  0.29430  1.0000
  H   H20       1.0  0.21230  0.33120  0.29430  1.0000
  H   H21       1.0  0.78770  0.83120  0.79430  1.0000
  H   H22       1.0  0.71230  0.16880  0.79430  1.0000
  H   H23       1.0  0.71230  0.33120  0.70570  1.0000
  H   H24       1.0  0.78770  0.66880  0.70570  1.0000
  C   C41       1.0  0.17540  0.12985  0.28836  1.0000
  C   C42       1.0  0.32460  0.87015  0.28836  1.0000
  C   C43       1.0  0.32460  0.62985  0.21164  1.0000
  C   C44       1.0  0.17540  0.37015  0.21164  1.0000
  C   C45       1.0  0.82460  0.87015  0.71164  1.0000
  C   C46       1.0  0.67540  0.12985  0.71164  1.0000
  C   C47       1.0  0.67540  0.37015  0.78836  1.0000
  C   C48       1.0  0.82460  0.62985  0.78836  1.0000
  H   H25       1.0  0.07070  0.13520  0.28730  1.0000
  H   H26       1.0  0.42930  0.86480  0.28730  1.0000
  H   H27       1.0  0.42930  0.63520  0.21270  1.0000
  H   H28       1.0  0.07070  0.36480  0.21270  1.0000
  H   H29       1.0  0.92930  0.86480  0.71270  1.0000
  H   H30       1.0  0.57070  0.13520  0.71270  1.0000
  H   H31       1.0  0.57070  0.36480  0.78730  1.0000
  H   H32       1.0  0.92930  0.63520  0.78730  1.0000
  C   C49       1.0  0.24360  0.10228  0.33798  1.0000
  C   C50       1.0  0.25640  0.89772  0.33798  1.0000
  C   C51       1.0  0.25640  0.60228  0.16202  1.0000
  C   C52       1.0  0.24360  0.39772  0.16202  1.0000
  C   C53       1.0  0.75640  0.89772  0.66202  1.0000
  C   C54       1.0  0.74360  0.10228  0.66202  1.0000
  C   C55       1.0  0.74360  0.39772  0.83798  1.0000
  C   C56       1.0  0.75640  0.60228  0.83798  1.0000
  H   H33       1.0  0.18550  0.08990  0.37060  1.0000
  H   H34       1.0  0.31450  0.91010  0.37060  1.0000
  H   H35       1.0  0.31450  0.58990  0.12940  1.0000
  H   H36       1.0  0.18550  0.41010  0.12940  1.0000
  H   H37       1.0  0.81450  0.91010  0.62940  1.0000
  H   H38       1.0  0.68550  0.08990  0.62940  1.0000
  H   H39       1.0  0.68550  0.41010  0.87060  1.0000
  H   H40       1.0  0.81450  0.58990  0.87060  1.0000
  C   C57       1.0  0.45060  0.18652  0.14150  1.0000
  C   C58       1.0  0.04940  0.81348  0.14150  1.0000
  C   C59       1.0  0.04940  0.68652  0.35850  1.0000
  C   C60       1.0  0.45060  0.31348  0.35850  1.0000
  C   C61       1.0  0.54940  0.81348  0.85850  1.0000
  C   C62       1.0  0.95060  0.18652  0.85850  1.0000
  C   C63       1.0  0.95060  0.31348  0.64150  1.0000
  C   C64       1.0  0.54940  0.68652  0.64150  1.0000
  H   H41       1.0  0.39400  0.14220  0.12530  1.0000
  H   H42       1.0  0.10600  0.85780  0.12530  1.0000
  H   H43       1.0  0.10600  0.64220  0.37470  1.0000
  H   H44       1.0  0.39400  0.35780  0.37470  1.0000
  H   H45       1.0  0.60600  0.85780  0.87470  1.0000
  H   H46       1.0  0.89400  0.14220  0.87470  1.0000
  H   H47       1.0  0.89400  0.35780  0.62530  1.0000
  H   H48       1.0  0.60600  0.64220  0.62530  1.0000
  H   H49       1.0  0.53090  0.20110  0.11540  1.0000
  H   H50       1.0  0.96910  0.79890  0.11540  1.0000
  H   H51       1.0  0.96910  0.70110  0.38460  1.0000
  H   H52       1.0  0.53090  0.29890  0.38460  1.0000
  H   H53       1.0  0.46910  0.79890  0.88460  1.0000
  H   H54       1.0  0.03090  0.20110  0.88460  1.0000
  H   H55       1.0  0.03090  0.29890  0.61540  1.0000
  H   H56       1.0  0.46910  0.70110  0.61540  1.0000
  H   H57       1.0  0.38480  0.23230  0.14700  1.0000
  H   H58       1.0  0.11520  0.76770  0.14700  1.0000
  H   H59       1.0  0.11520  0.73230  0.35300  1.0000
  H   H60       1.0  0.38480  0.26770  0.35300  1.0000
  H   H61       1.0  0.61520  0.76770  0.85300  1.0000
  H   H62       1.0  0.88480  0.23230  0.85300  1.0000
  H   H63       1.0  0.88480  0.26770  0.64700  1.0000
  H   H64       1.0  0.61520  0.73230  0.64700  1.0000
  C   C65       1.0  0.52450  0.15576  0.53723  1.0000
  C   C66       1.0  0.97550  0.84424  0.53723  1.0000
  C   C67       1.0  0.97550  0.65576  0.96277  1.0000
  C   C68       1.0  0.52450  0.34424  0.96277  1.0000
  C   C69       1.0  0.47550  0.84424  0.46277  1.0000
  C   C70       1.0  0.02450  0.15576  0.46277  1.0000
  C   C71       1.0  0.02450  0.34424  0.03723  1.0000
  C   C72       1.0  0.47550  0.65576  0.03723  1.0000
  C   C73       1.0  0.53980  0.24398  0.55027  1.0000
  C   C74       1.0  0.96020  0.75602  0.55027  1.0000
  C   C75       1.0  0.96020  0.74398  0.94973  1.0000
  C   C76       1.0  0.53980  0.25602  0.94973  1.0000
  C   C77       1.0  0.46020  0.75602  0.44973  1.0000
  C   C78       1.0  0.03980  0.24398  0.44973  1.0000
  C   C79       1.0  0.03980  0.25602  0.05027  1.0000
  C   C80       1.0  0.46020  0.74398  0.05027  1.0000
  C   C81       1.0  0.46020  0.27840  0.59641  1.0000
  C   C82       1.0  0.03980  0.72160  0.59641  1.0000
  C   C83       1.0  0.03980  0.77840  0.90359  1.0000
  C   C84       1.0  0.46020  0.22160  0.90359  1.0000
  C   C85       1.0  0.53980  0.72160  0.40359  1.0000
  C   C86       1.0  0.96020  0.27840  0.40359  1.0000
  C   C87       1.0  0.96020  0.22160  0.09641  1.0000
  C   C88       1.0  0.53980  0.77840  0.09641  1.0000
  C   C89       1.0  0.48320  0.36009  0.61118  1.0000
  C   C90       1.0  0.01680  0.63991  0.61118  1.0000
  C   C91       1.0  0.01680  0.86009  0.88882  1.0000
  C   C92       1.0  0.48320  0.13991  0.88882  1.0000
  C   C93       1.0  0.51680  0.63991  0.38882  1.0000
  C   C94       1.0  0.98320  0.36009  0.38882  1.0000
  C   C95       1.0  0.98320  0.13991  0.11118  1.0000
  C   C96       1.0  0.51680  0.86009  0.11118  1.0000
  C   C97       1.0  0.57780  0.40696  0.57733  1.0000
  C   C98       1.0  0.92220  0.59304  0.57733  1.0000
  C   C99       1.0  0.92220  0.90696  0.92267  1.0000
  C   C100      1.0  0.57780  0.09304  0.92267  1.0000
  C   C101      1.0  0.42220  0.59304  0.42267  1.0000
  C   C102      1.0  0.07780  0.40696  0.42267  1.0000
  C   C103      1.0  0.07780  0.09304  0.07733  1.0000
  C   C104      1.0  0.42220  0.90696  0.07733  1.0000
  H   H65       1.0  0.59050  0.46170  0.58600  1.0000
  H   H66       1.0  0.90950  0.53830  0.58600  1.0000
  H   H67       1.0  0.90950  0.96170  0.91400  1.0000
  H   H68       1.0  0.59050  0.03830  0.91400  1.0000
  H   H69       1.0  0.40950  0.53830  0.41400  1.0000
  H   H70       1.0  0.09050  0.46170  0.41400  1.0000
  H   H71       1.0  0.09050  0.03830  0.08600  1.0000
  H   H72       1.0  0.40950  0.96170  0.08600  1.0000
  C   C105      1.0  0.65400  0.37310  0.53054  1.0000
  C   C106      1.0  0.84600  0.62690  0.53054  1.0000
  C   C107      1.0  0.84600  0.87310  0.96946  1.0000
  C   C108      1.0  0.65400  0.12690  0.96946  1.0000
  C   C109      1.0  0.34600  0.62690  0.46946  1.0000
  C   C110      1.0  0.15400  0.37310  0.46946  1.0000
  C   C111      1.0  0.15400  0.12690  0.03054  1.0000
  C   C112      1.0  0.34600  0.87310  0.03054  1.0000
  H   H73       1.0  0.71640  0.40540  0.50760  1.0000
  H   H74       1.0  0.78360  0.59460  0.50760  1.0000
  H   H75       1.0  0.78360  0.90540  0.99240  1.0000
  H   H76       1.0  0.71640  0.09460  0.99240  1.0000
  H   H77       1.0  0.28360  0.59460  0.49240  1.0000
  H   H78       1.0  0.21640  0.40540  0.49240  1.0000
  H   H79       1.0  0.21640  0.09460  0.00760  1.0000
  H   H80       1.0  0.28360  0.90540  0.00760  1.0000
  C   C113      1.0  0.63830  0.29237  0.51773  1.0000
  C   C114      1.0  0.86170  0.70763  0.51773  1.0000
  C   C115      1.0  0.86170  0.79237  0.98227  1.0000
  C   C116      1.0  0.63830  0.20763  0.98227  1.0000
  C   C117      1.0  0.36170  0.70763  0.48227  1.0000
  C   C118      1.0  0.13830  0.29237  0.48227  1.0000
  C   C119      1.0  0.13830  0.20763  0.01773  1.0000
  C   C120      1.0  0.36170  0.79237  0.01773  1.0000
  H   H81       1.0  0.69340  0.26970  0.48730  1.0000
  H   H82       1.0  0.80660  0.73030  0.48730  1.0000
  H   H83       1.0  0.80660  0.76970  0.01270  1.0000
  H   H84       1.0  0.69340  0.23030  0.01270  1.0000
  H   H85       1.0  0.30660  0.73030  0.51270  1.0000
  H   H86       1.0  0.19340  0.26970  0.51270  1.0000
  H   H87       1.0  0.19340  0.23030  0.98730  1.0000
  H   H88       1.0  0.30660  0.76970  0.98730  1.0000
  C   C121      1.0  0.43540  0.46650  0.67916  1.0000
  C   C122      1.0  0.06460  0.53350  0.67916  1.0000
  C   C123      1.0  0.06460  0.96650  0.82084  1.0000
  C   C124      1.0  0.43540  0.03350  0.82084  1.0000
  C   C125      1.0  0.56460  0.53350  0.32084  1.0000
  C   C126      1.0  0.93540  0.46650  0.32084  1.0000
  C   C127      1.0  0.93540  0.03350  0.17916  1.0000
  C   C128      1.0  0.56460  0.96650  0.17916  1.0000
  H   H89       1.0  0.54200  0.47430  0.68500  1.0000
  H   H90       1.0  0.95800  0.52570  0.68500  1.0000
  H   H91       1.0  0.95800  0.97430  0.81500  1.0000
  H   H92       1.0  0.54200  0.02570  0.81500  1.0000
  H   H93       1.0  0.45800  0.52570  0.31500  1.0000
  H   H94       1.0  0.04200  0.47430  0.31500  1.0000
  H   H95       1.0  0.04200  0.02570  0.18500  1.0000
  H   H96       1.0  0.45800  0.97430  0.18500  1.0000
  H   H97       1.0  0.38270  0.47610  0.71510  1.0000
  H   H98       1.0  0.11730  0.52390  0.71510  1.0000
  H   H99       1.0  0.11730  0.97610  0.78490  1.0000
  H   H100      1.0  0.38270  0.02390  0.78490  1.0000
  H   H101      1.0  0.61730  0.52390  0.28490  1.0000
  H   H102      1.0  0.88270  0.47610  0.28490  1.0000
  H   H103      1.0  0.88270  0.02390  0.21510  1.0000
  H   H104      1.0  0.61730  0.97610  0.21510  1.0000
  H   H105      1.0  0.39980  0.50370  0.65000  1.0000
  H   H106      1.0  0.10020  0.49630  0.65000  1.0000
  H   H107      1.0  0.10020  0.00370  0.85000  1.0000
  H   H108      1.0  0.39980  0.99630  0.85000  1.0000
  H   H109      1.0  0.60020  0.49630  0.35000  1.0000
  H   H110      1.0  0.89980  0.50370  0.35000  1.0000
  H   H111      1.0  0.89980  0.99630  0.15000  1.0000
  H   H112      1.0  0.60020  0.00370  0.15000  1.0000
