data_image0
_chemical_formula_structural       Nd4O24H8O32H8O8C40H8C8H8C8H8C8H24C40H8C8H8C8H8C8H24
_chemical_formula_sum              "Nd4 O64 H112 C128"
_cell_length_a       8.8317
_cell_length_b       16.465
_cell_length_c       22.912
_cell_angle_alpha    90
_cell_angle_beta     90
_cell_angle_gamma    90

_space_group_name_H-M_alt    "P 1"
_space_group_IT_number       1

loop_
  _space_group_symop_operation_xyz
  'x, y, z'

loop_
  _atom_site_type_symbol
  _atom_site_label
  _atom_site_symmetry_multiplicity
  _atom_site_fract_x
  _atom_site_fract_y
  _atom_site_fract_z
  _atom_site_occupancy
  Nd  Nd1       1.0  0.75000  0.00000  0.47968  1.0000
  Nd  Nd2       1.0  0.75000  0.50000  0.02032  1.0000
  Nd  Nd3       1.0  0.25000  0.00000  0.52032  1.0000
  Nd  Nd4       1.0  0.25000  0.50000  0.97968  1.0000
  O   O1        1.0  0.61978  0.05114  0.39163  1.0000
  O   O2        1.0  0.88022  0.94886  0.39163  1.0000
  O   O3        1.0  0.88022  0.55114  0.10837  1.0000
  O   O4        1.0  0.61978  0.44886  0.10837  1.0000
  O   O5        1.0  0.38022  0.94886  0.60837  1.0000
  O   O6        1.0  0.11978  0.05114  0.60837  1.0000
  O   O7        1.0  0.11978  0.44886  0.89163  1.0000
  O   O8        1.0  0.38022  0.55114  0.89163  1.0000
  O   O9        1.0  0.39934  0.04212  0.43742  1.0000
  O   O10       1.0  0.10066  0.95788  0.43742  1.0000
  O   O11       1.0  0.10066  0.54212  0.06258  1.0000
  O   O12       1.0  0.39934  0.45788  0.06258  1.0000
  O   O13       1.0  0.60066  0.95788  0.56258  1.0000
  O   O14       1.0  0.89934  0.04212  0.56258  1.0000
  O   O15       1.0  0.89934  0.45788  0.93742  1.0000
  O   O16       1.0  0.60066  0.54212  0.93742  1.0000
  O   O17       1.0  0.64046  0.10368  0.28983  1.0000
  O   O18       1.0  0.85954  0.89632  0.28983  1.0000
  O   O19       1.0  0.85954  0.60368  0.21017  1.0000
  O   O20       1.0  0.64046  0.39632  0.21017  1.0000
  O   O21       1.0  0.35954  0.89632  0.71017  1.0000
  O   O22       1.0  0.14046  0.10368  0.71017  1.0000
  O   O23       1.0  0.14046  0.39632  0.78983  1.0000
  O   O24       1.0  0.35954  0.60368  0.78983  1.0000
  H   H1        1.0  0.67010  0.08600  0.32130  1.0000
  H   H2        1.0  0.82990  0.91400  0.32130  1.0000
  H   H3        1.0  0.82990  0.58600  0.17870  1.0000
  H   H4        1.0  0.67010  0.41400  0.17870  1.0000
  H   H5        1.0  0.32990  0.91400  0.67870  1.0000
  H   H6        1.0  0.17010  0.08600  0.67870  1.0000
  H   H7        1.0  0.17010  0.41400  0.82130  1.0000
  H   H8        1.0  0.32990  0.58600  0.82130  1.0000
  O   O25       1.0  0.51470  0.16188  0.19676  1.0000
  O   O26       1.0  0.98530  0.83812  0.19676  1.0000
  O   O27       1.0  0.98530  0.66188  0.30324  1.0000
  O   O28       1.0  0.51470  0.33812  0.30324  1.0000
  O   O29       1.0  0.48530  0.83812  0.80324  1.0000
  O   O30       1.0  0.01470  0.16188  0.80324  1.0000
  O   O31       1.0  0.01470  0.33812  0.69676  1.0000
  O   O32       1.0  0.48530  0.66188  0.69676  1.0000
  O   O33       1.0  0.62408  0.12342  0.50646  1.0000
  O   O34       1.0  0.87592  0.87658  0.50646  1.0000
  O   O35       1.0  0.87592  0.62342  0.99354  1.0000
  O   O36       1.0  0.62408  0.37658  0.99354  1.0000
  O   O37       1.0  0.37592  0.87658  0.49354  1.0000
  O   O38       1.0  0.12408  0.12342  0.49354  1.0000
  O   O39       1.0  0.12408  0.37658  0.00646  1.0000
  O   O40       1.0  0.37592  0.62342  0.00646  1.0000
  O   O41       1.0  0.41091  0.11715  0.55862  1.0000
  O   O42       1.0  0.08909  0.88285  0.55862  1.0000
  O   O43       1.0  0.08909  0.61715  0.94138  1.0000
  O   O44       1.0  0.41091  0.38285  0.94138  1.0000
  O   O45       1.0  0.58909  0.88285  0.44138  1.0000
  O   O46       1.0  0.91091  0.11715  0.44138  1.0000
  O   O47       1.0  0.91091  0.38285  0.05862  1.0000
  O   O48       1.0  0.58909  0.61715  0.05862  1.0000
  O   O49       1.0  0.35970  0.23408  0.62877  1.0000
  O   O50       1.0  0.14030  0.76592  0.62877  1.0000
  O   O51       1.0  0.14030  0.73408  0.87123  1.0000
  O   O52       1.0  0.35970  0.26592  0.87123  1.0000
  O   O53       1.0  0.64030  0.76592  0.37123  1.0000
  O   O54       1.0  0.85970  0.23408  0.37123  1.0000
  O   O55       1.0  0.85970  0.26592  0.12877  1.0000
  O   O56       1.0  0.64030  0.73408  0.12877  1.0000
  H   H9        1.0  0.34880  0.18900  0.61420  1.0000
  H   H10       1.0  0.15120  0.81100  0.61420  1.0000
  H   H11       1.0  0.15120  0.68900  0.88580  1.0000
  H   H12       1.0  0.34880  0.31100  0.88580  1.0000
  H   H13       1.0  0.65120  0.81100  0.38580  1.0000
  H   H14       1.0  0.84880  0.18900  0.38580  1.0000
  H   H15       1.0  0.84880  0.31100  0.11420  1.0000
  H   H16       1.0  0.65120  0.68900  0.11420  1.0000
  O   O57       1.0  0.40800  0.38466  0.66051  1.0000
  O   O58       1.0  0.09200  0.61534  0.66051  1.0000
  O   O59       1.0  0.09200  0.88466  0.83949  1.0000
  O   O60       1.0  0.40800  0.11534  0.83949  1.0000
  O   O61       1.0  0.59200  0.61534  0.33949  1.0000
  O   O62       1.0  0.90800  0.38466  0.33949  1.0000
  O   O63       1.0  0.90800  0.11534  0.16051  1.0000
  O   O64       1.0  0.59200  0.88466  0.16051  1.0000
  C   C1        1.0  0.47570  0.06026  0.39359  1.0000
  C   C2        1.0  0.02430  0.93974  0.39359  1.0000
  C   C3        1.0  0.02430  0.56026  0.10641  1.0000
  C   C4        1.0  0.47570  0.43974  0.10641  1.0000
  C   C5        1.0  0.52430  0.93974  0.60641  1.0000
  C   C6        1.0  0.97570  0.06026  0.60641  1.0000
  C   C7        1.0  0.97570  0.43974  0.89359  1.0000
  C   C8        1.0  0.52430  0.56026  0.89359  1.0000
  C   C9        1.0  0.40140  0.09259  0.34016  1.0000
  C   C10       1.0  0.09860  0.90741  0.34016  1.0000
  C   C11       1.0  0.09860  0.59259  0.15984  1.0000
  C   C12       1.0  0.40140  0.40741  0.15984  1.0000
  C   C13       1.0  0.59860  0.90741  0.65984  1.0000
  C   C14       1.0  0.90140  0.09259  0.65984  1.0000
  C   C15       1.0  0.90140  0.40741  0.84016  1.0000
  C   C16       1.0  0.59860  0.59259  0.84016  1.0000
  C   C17       1.0  0.48690  0.11216  0.29123  1.0000
  C   C18       1.0  0.01310  0.88784  0.29123  1.0000
  C   C19       1.0  0.01310  0.61216  0.20877  1.0000
  C   C20       1.0  0.48690  0.38784  0.20877  1.0000
  C   C21       1.0  0.51310  0.88784  0.70877  1.0000
  C   C22       1.0  0.98690  0.11216  0.70877  1.0000
  C   C23       1.0  0.98690  0.38784  0.79123  1.0000
  C   C24       1.0  0.51310  0.61216  0.79123  1.0000
  C   C25       1.0  0.41630  0.14207  0.24084  1.0000
  C   C26       1.0  0.08370  0.85793  0.24084  1.0000
  C   C27       1.0  0.08370  0.64207  0.25916  1.0000
  C   C28       1.0  0.41630  0.35793  0.25916  1.0000
  C   C29       1.0  0.58370  0.85793  0.75916  1.0000
  C   C30       1.0  0.91630  0.14207  0.75916  1.0000
  C   C31       1.0  0.91630  0.35793  0.74084  1.0000
  C   C32       1.0  0.58370  0.64207  0.74084  1.0000
  C   C33       1.0  0.26090  0.15003  0.23933  1.0000
  C   C34       1.0  0.23910  0.84997  0.23933  1.0000
  C   C35       1.0  0.23910  0.65003  0.26067  1.0000
  C   C36       1.0  0.26090  0.34997  0.26067  1.0000
  C   C37       1.0  0.73910  0.84997  0.76067  1.0000
  C   C38       1.0  0.76090  0.15003  0.76067  1.0000
  C   C39       1.0  0.76090  0.34997  0.73933  1.0000
  C   C40       1.0  0.73910  0.65003  0.73933  1.0000
  H   H17       1.0  0.21340  0.16860  0.20570  1.0000
  H   H18       1.0  0.28660  0.83140  0.20570  1.0000
  H   H19       1.0  0.28660  0.66860  0.29430  1.0000
  H   H20       1.0  0.21340  0.33140  0.29430  1.0000
  H   H21       1.0  0.78660  0.83140  0.79430  1.0000
  H   H22       1.0  0.71340  0.16860  0.79430  1.0000
  H   H23       1.0  0.71340  0.33140  0.70570  1.0000
  H   H24       1.0  0.78660  0.66860  0.70570  1.0000
  C   C41       1.0  0.17550  0.13015  0.28835  1.0000
  C   C42       1.0  0.32450  0.86985  0.28835  1.0000
  C   C43       1.0  0.32450  0.63015  0.21165  1.0000
  C   C44       1.0  0.17550  0.36985  0.21165  1.0000
  C   C45       1.0  0.82450  0.86985  0.71165  1.0000
  C   C46       1.0  0.67550  0.13015  0.71165  1.0000
  C   C47       1.0  0.67550  0.36985  0.78835  1.0000
  C   C48       1.0  0.82450  0.63015  0.78835  1.0000
  H   H25       1.0  0.07070  0.13570  0.28730  1.0000
  H   H26       1.0  0.42930  0.86430  0.28730  1.0000
  H   H27       1.0  0.42930  0.63570  0.21270  1.0000
  H   H28       1.0  0.07070  0.36430  0.21270  1.0000
  H   H29       1.0  0.92930  0.86430  0.71270  1.0000
  H   H30       1.0  0.57070  0.13570  0.71270  1.0000
  H   H31       1.0  0.57070  0.36430  0.78730  1.0000
  H   H32       1.0  0.92930  0.63570  0.78730  1.0000
  C   C49       1.0  0.24390  0.10244  0.33818  1.0000
  C   C50       1.0  0.25610  0.89756  0.33818  1.0000
  C   C51       1.0  0.25610  0.60244  0.16182  1.0000
  C   C52       1.0  0.24390  0.39756  0.16182  1.0000
  C   C53       1.0  0.75610  0.89756  0.66182  1.0000
  C   C54       1.0  0.74390  0.10244  0.66182  1.0000
  C   C55       1.0  0.74390  0.39756  0.83818  1.0000
  C   C56       1.0  0.75610  0.60244  0.83818  1.0000
  H   H33       1.0  0.18560  0.09010  0.37080  1.0000
  H   H34       1.0  0.31440  0.90990  0.37080  1.0000
  H   H35       1.0  0.31440  0.59010  0.12920  1.0000
  H   H36       1.0  0.18560  0.40990  0.12920  1.0000
  H   H37       1.0  0.81440  0.90990  0.62920  1.0000
  H   H38       1.0  0.68560  0.09010  0.62920  1.0000
  H   H39       1.0  0.68560  0.40990  0.87080  1.0000
  H   H40       1.0  0.81440  0.59010  0.87080  1.0000
  C   C57       1.0  0.45230  0.18585  0.14179  1.0000
  C   C58       1.0  0.04770  0.81415  0.14179  1.0000
  C   C59       1.0  0.04770  0.68585  0.35821  1.0000
  C   C60       1.0  0.45230  0.31415  0.35821  1.0000
  C   C61       1.0  0.54770  0.81415  0.85821  1.0000
  C   C62       1.0  0.95230  0.18585  0.85821  1.0000
  C   C63       1.0  0.95230  0.31415  0.64179  1.0000
  C   C64       1.0  0.54770  0.68585  0.64179  1.0000
  H   H41       1.0  0.39590  0.14150  0.12540  1.0000
  H   H42       1.0  0.10410  0.85850  0.12540  1.0000
  H   H43       1.0  0.10410  0.64150  0.37460  1.0000
  H   H44       1.0  0.39590  0.35850  0.37460  1.0000
  H   H45       1.0  0.60410  0.85850  0.87460  1.0000
  H   H46       1.0  0.89590  0.14150  0.87460  1.0000
  H   H47       1.0  0.89590  0.35850  0.62540  1.0000
  H   H48       1.0  0.60410  0.64150  0.62540  1.0000
  H   H49       1.0  0.53270  0.20060  0.11570  1.0000
  H   H50       1.0  0.96730  0.79940  0.11570  1.0000
  H   H51       1.0  0.96730  0.70060  0.38430  1.0000
  H   H52       1.0  0.53270  0.29940  0.38430  1.0000
  H   H53       1.0  0.46730  0.79940  0.88430  1.0000
  H   H54       1.0  0.03270  0.20060  0.88430  1.0000
  H   H55       1.0  0.03270  0.29940  0.61570  1.0000
  H   H56       1.0  0.46730  0.70060  0.61570  1.0000
  H   H57       1.0  0.38630  0.23150  0.14730  1.0000
  H   H58       1.0  0.11370  0.76850  0.14730  1.0000
  H   H59       1.0  0.11370  0.73150  0.35270  1.0000
  H   H60       1.0  0.38630  0.26850  0.35270  1.0000
  H   H61       1.0  0.61370  0.76850  0.85270  1.0000
  H   H62       1.0  0.88630  0.23150  0.85270  1.0000
  H   H63       1.0  0.88630  0.26850  0.64730  1.0000
  H   H64       1.0  0.61370  0.73150  0.64730  1.0000
  C   C65       1.0  0.52370  0.15504  0.53703  1.0000
  C   C66       1.0  0.97630  0.84496  0.53703  1.0000
  C   C67       1.0  0.97630  0.65504  0.96297  1.0000
  C   C68       1.0  0.52370  0.34496  0.96297  1.0000
  C   C69       1.0  0.47630  0.84496  0.46297  1.0000
  C   C70       1.0  0.02370  0.15504  0.46297  1.0000
  C   C71       1.0  0.02370  0.34496  0.03703  1.0000
  C   C72       1.0  0.47630  0.65504  0.03703  1.0000
  C   C73       1.0  0.53950  0.24345  0.55024  1.0000
  C   C74       1.0  0.96050  0.75655  0.55024  1.0000
  C   C75       1.0  0.96050  0.74345  0.94976  1.0000
  C   C76       1.0  0.53950  0.25655  0.94976  1.0000
  C   C77       1.0  0.46050  0.75655  0.44976  1.0000
  C   C78       1.0  0.03950  0.24345  0.44976  1.0000
  C   C79       1.0  0.03950  0.25655  0.05024  1.0000
  C   C80       1.0  0.46050  0.74345  0.05024  1.0000
  C   C81       1.0  0.45920  0.27785  0.59634  1.0000
  C   C82       1.0  0.04080  0.72215  0.59634  1.0000
  C   C83       1.0  0.04080  0.77785  0.90366  1.0000
  C   C84       1.0  0.45920  0.22215  0.90366  1.0000
  C   C85       1.0  0.54080  0.72215  0.40366  1.0000
  C   C86       1.0  0.95920  0.27785  0.40366  1.0000
  C   C87       1.0  0.95920  0.22215  0.09634  1.0000
  C   C88       1.0  0.54080  0.77785  0.09634  1.0000
  C   C89       1.0  0.48300  0.35932  0.61130  1.0000
  C   C90       1.0  0.01700  0.64068  0.61130  1.0000
  C   C91       1.0  0.01700  0.85932  0.88870  1.0000
  C   C92       1.0  0.48300  0.14068  0.88870  1.0000
  C   C93       1.0  0.51700  0.64068  0.38870  1.0000
  C   C94       1.0  0.98300  0.35932  0.38870  1.0000
  C   C95       1.0  0.98300  0.14068  0.11130  1.0000
  C   C96       1.0  0.51700  0.85932  0.11130  1.0000
  C   C97       1.0  0.57760  0.40636  0.57745  1.0000
  C   C98       1.0  0.92240  0.59364  0.57745  1.0000
  C   C99       1.0  0.92240  0.90636  0.92255  1.0000
  C   C100      1.0  0.57760  0.09364  0.92255  1.0000
  C   C101      1.0  0.42240  0.59364  0.42255  1.0000
  C   C102      1.0  0.07760  0.40636  0.42255  1.0000
  C   C103      1.0  0.07760  0.09364  0.07745  1.0000
  C   C104      1.0  0.42240  0.90636  0.07745  1.0000
  H   H65       1.0  0.59000  0.46120  0.58610  1.0000
  H   H66       1.0  0.91000  0.53880  0.58610  1.0000
  H   H67       1.0  0.91000  0.96120  0.91390  1.0000
  H   H68       1.0  0.59000  0.03880  0.91390  1.0000
  H   H69       1.0  0.41000  0.53880  0.41390  1.0000
  H   H70       1.0  0.09000  0.46120  0.41390  1.0000
  H   H71       1.0  0.09000  0.03880  0.08610  1.0000
  H   H72       1.0  0.41000  0.96120  0.08610  1.0000
  C   C105      1.0  0.65440  0.37250  0.53066  1.0000
  C   C106      1.0  0.84560  0.62750  0.53066  1.0000
  C   C107      1.0  0.84560  0.87250  0.96934  1.0000
  C   C108      1.0  0.65440  0.12750  0.96934  1.0000
  C   C109      1.0  0.34560  0.62750  0.46934  1.0000
  C   C110      1.0  0.15440  0.37250  0.46934  1.0000
  C   C111      1.0  0.15440  0.12750  0.03066  1.0000
  C   C112      1.0  0.34560  0.87250  0.03066  1.0000
  H   H73       1.0  0.71720  0.40480  0.50780  1.0000
  H   H74       1.0  0.78280  0.59520  0.50780  1.0000
  H   H75       1.0  0.78280  0.90480  0.99220  1.0000
  H   H76       1.0  0.71720  0.09520  0.99220  1.0000
  H   H77       1.0  0.28280  0.59520  0.49220  1.0000
  H   H78       1.0  0.21720  0.40480  0.49220  1.0000
  H   H79       1.0  0.21720  0.09520  0.00780  1.0000
  H   H80       1.0  0.28280  0.90480  0.00780  1.0000
  C   C113      1.0  0.63830  0.29176  0.51782  1.0000
  C   C114      1.0  0.86170  0.70824  0.51782  1.0000
  C   C115      1.0  0.86170  0.79176  0.98218  1.0000
  C   C116      1.0  0.63830  0.20824  0.98218  1.0000
  C   C117      1.0  0.36170  0.70824  0.48218  1.0000
  C   C118      1.0  0.13830  0.29176  0.48218  1.0000
  C   C119      1.0  0.13830  0.20824  0.01782  1.0000
  C   C120      1.0  0.36170  0.79176  0.01782  1.0000
  H   H81       1.0  0.69350  0.26900  0.48730  1.0000
  H   H82       1.0  0.80650  0.73100  0.48730  1.0000
  H   H83       1.0  0.80650  0.76900  0.01270  1.0000
  H   H84       1.0  0.69350  0.23100  0.01270  1.0000
  H   H85       1.0  0.30650  0.73100  0.51270  1.0000
  H   H86       1.0  0.19350  0.26900  0.51270  1.0000
  H   H87       1.0  0.19350  0.23100  0.98730  1.0000
  H   H88       1.0  0.30650  0.76900  0.98730  1.0000
  C   C121      1.0  0.43530  0.46580  0.67948  1.0000
  C   C122      1.0  0.06470  0.53420  0.67948  1.0000
  C   C123      1.0  0.06470  0.96580  0.82052  1.0000
  C   C124      1.0  0.43530  0.03420  0.82052  1.0000
  C   C125      1.0  0.56470  0.53420  0.32052  1.0000
  C   C126      1.0  0.93530  0.46580  0.32052  1.0000
  C   C127      1.0  0.93530  0.03420  0.17948  1.0000
  C   C128      1.0  0.56470  0.96580  0.17948  1.0000
  H   H89       1.0  0.54180  0.47330  0.68590  1.0000
  H   H90       1.0  0.95820  0.52670  0.68590  1.0000
  H   H91       1.0  0.95820  0.97330  0.81410  1.0000
  H   H92       1.0  0.54180  0.02670  0.81410  1.0000
  H   H93       1.0  0.45820  0.52670  0.31410  1.0000
  H   H94       1.0  0.04180  0.47330  0.31410  1.0000
  H   H95       1.0  0.04180  0.02670  0.18590  1.0000
  H   H96       1.0  0.45820  0.97330  0.18590  1.0000
  H   H97       1.0  0.38140  0.47560  0.71520  1.0000
  H   H98       1.0  0.11860  0.52440  0.71520  1.0000
  H   H99       1.0  0.11860  0.97560  0.78480  1.0000
  H   H100      1.0  0.38140  0.02440  0.78480  1.0000
  H   H101      1.0  0.61860  0.52440  0.28480  1.0000
  H   H102      1.0  0.88140  0.47560  0.28480  1.0000
  H   H103      1.0  0.88140  0.02440  0.21520  1.0000
  H   H104      1.0  0.61860  0.97560  0.21520  1.0000
  H   H105      1.0  0.40110  0.50320  0.65010  1.0000
  H   H106      1.0  0.09890  0.49680  0.65010  1.0000
  H   H107      1.0  0.09890  0.00320  0.84990  1.0000
  H   H108      1.0  0.40110  0.99680  0.84990  1.0000
  H   H109      1.0  0.59890  0.49680  0.34990  1.0000
  H   H110      1.0  0.90110  0.50320  0.34990  1.0000
  H   H111      1.0  0.90110  0.99680  0.15010  1.0000
  H   H112      1.0  0.59890  0.00320  0.15010  1.0000
