data_image0
_chemical_formula_structural       Sn8F8O32C16
_chemical_formula_sum              "Sn8 F8 O32 C16"
_cell_length_a       10.13
_cell_length_b       9.754
_cell_length_c       12.511
_cell_angle_alpha    90
_cell_angle_beta     94.22
_cell_angle_gamma    90

_space_group_name_H-M_alt    "P 1"
_space_group_IT_number       1

loop_
  _space_group_symop_operation_xyz
  'x, y, z'

loop_
  _atom_site_type_symbol
  _atom_site_label
  _atom_site_symmetry_multiplicity
  _atom_site_fract_x
  _atom_site_fract_y
  _atom_site_fract_z
  _atom_site_occupancy
  Sn  Sn1       1.0  0.48840  0.14547  0.10944  1.0000
  Sn  Sn2       1.0  0.51160  0.64547  0.39056  1.0000
  Sn  Sn3       1.0  0.51160  0.85453  0.89056  1.0000
  Sn  Sn4       1.0  0.48840  0.35453  0.60944  1.0000
  Sn  Sn5       1.0  0.87119  0.31428  0.49330  1.0000
  Sn  Sn6       1.0  0.12881  0.81428  0.00670  1.0000
  Sn  Sn7       1.0  0.12881  0.68572  0.50670  1.0000
  Sn  Sn8       1.0  0.87119  0.18572  0.99330  1.0000
  F   F1        1.0  0.44720  0.35290  0.10300  1.0000
  F   F2        1.0  0.55280  0.85290  0.39700  1.0000
  F   F3        1.0  0.55280  0.64710  0.89700  1.0000
  F   F4        1.0  0.44720  0.14710  0.60300  1.0000
  F   F5        1.0  0.88860  0.10800  0.50900  1.0000
  F   F6        1.0  0.11140  0.60800  0.99100  1.0000
  F   F7        1.0  0.11140  0.89200  0.49100  1.0000
  F   F8        1.0  0.88860  0.39200  0.00900  1.0000
  O   O1        1.0  0.84690  0.27960  0.31230  1.0000
  O   O2        1.0  0.15310  0.77960  0.18770  1.0000
  O   O3        1.0  0.15310  0.72040  0.68770  1.0000
  O   O4        1.0  0.84690  0.22040  0.81230  1.0000
  O   O5        1.0  0.08340  0.20740  0.93780  1.0000
  O   O6        1.0  0.91660  0.70740  0.56220  1.0000
  O   O7        1.0  0.91660  0.79260  0.06220  1.0000
  O   O8        1.0  0.08340  0.29260  0.43780  1.0000
  O   O9        1.0  0.27670  0.12690  0.17400  1.0000
  O   O10       1.0  0.72330  0.62690  0.32600  1.0000
  O   O11       1.0  0.72330  0.87310  0.82600  1.0000
  O   O12       1.0  0.27670  0.37310  0.67400  1.0000
  O   O13       1.0  0.51030  0.19100  0.28790  1.0000
  O   O14       1.0  0.48970  0.69100  0.21210  1.0000
  O   O15       1.0  0.48970  0.80900  0.71210  1.0000
  O   O16       1.0  0.51030  0.30900  0.78790  1.0000
  O   O17       1.0  0.71070  0.25450  0.16650  1.0000
  O   O18       1.0  0.28930  0.75450  0.33350  1.0000
  O   O19       1.0  0.28930  0.74550  0.83350  1.0000
  O   O20       1.0  0.71070  0.24550  0.66650  1.0000
  O   O21       1.0  0.64230  0.23430  0.43440  1.0000
  O   O22       1.0  0.35770  0.73430  0.06560  1.0000
  O   O23       1.0  0.35770  0.76570  0.56560  1.0000
  O   O24       1.0  0.64230  0.26570  0.93440  1.0000
  O   O25       1.0  0.30020  0.17400  0.96340  1.0000
  O   O26       1.0  0.69980  0.67400  0.53660  1.0000
  O   O27       1.0  0.69980  0.82600  0.03660  1.0000
  O   O28       1.0  0.30020  0.32600  0.46340  1.0000
  O   O29       1.0  0.06140  0.17550  0.15000  1.0000
  O   O30       1.0  0.93860  0.67550  0.35000  1.0000
  O   O31       1.0  0.93860  0.82450  0.85000  1.0000
  O   O32       1.0  0.06140  0.32450  0.65000  1.0000
  C   C1        1.0  0.18670  0.18280  0.99580  1.0000
  C   C2        1.0  0.81330  0.68280  0.50420  1.0000
  C   C3        1.0  0.81330  0.81720  0.00420  1.0000
  C   C4        1.0  0.18670  0.31720  0.49580  1.0000
  C   C5        1.0  0.73540  0.25470  0.26530  1.0000
  C   C6        1.0  0.26460  0.75470  0.23470  1.0000
  C   C7        1.0  0.26460  0.74530  0.73470  1.0000
  C   C8        1.0  0.73540  0.24530  0.76530  1.0000
  C   C9        1.0  0.17300  0.16040  0.11740  1.0000
  C   C10       1.0  0.82700  0.66040  0.38260  1.0000
  C   C11       1.0  0.82700  0.83960  0.88260  1.0000
  C   C12       1.0  0.17300  0.33960  0.61740  1.0000
  C   C13       1.0  0.61990  0.22370  0.33560  1.0000
  C   C14       1.0  0.38010  0.72370  0.16440  1.0000
  C   C15       1.0  0.38010  0.77630  0.66440  1.0000
  C   C16       1.0  0.61990  0.27630  0.83560  1.0000
