data_image0
_chemical_formula_structural       Co4O28H8C12H4C8H4C8H4C8
_chemical_formula_sum              "Co4 O28 H20 C36"
_cell_length_a       11.1946
_cell_length_b       10.7911
_cell_length_c       15.3026
_cell_angle_alpha    90
_cell_angle_beta     95.355
_cell_angle_gamma    90

_space_group_name_H-M_alt    "P 1"
_space_group_IT_number       1

loop_
  _space_group_symop_operation_xyz
  'x, y, z'

loop_
  _atom_site_type_symbol
  _atom_site_label
  _atom_site_symmetry_multiplicity
  _atom_site_fract_x
  _atom_site_fract_y
  _atom_site_fract_z
  _atom_site_occupancy
  Co  Co1       1.0  0.84883  0.54023  0.00969  1.0000
  Co  Co2       1.0  0.65117  0.04023  0.49031  1.0000
  Co  Co3       1.0  0.15117  0.45977  0.99031  1.0000
  Co  Co4       1.0  0.34883  0.95977  0.50969  1.0000
  O   O1        1.0  0.90809  0.41493  0.09887  1.0000
  O   O2        1.0  0.59191  0.91493  0.40113  1.0000
  O   O3        1.0  0.09191  0.58507  0.90113  1.0000
  O   O4        1.0  0.40809  0.08507  0.59887  1.0000
  O   O5        1.0  0.10744  0.39386  0.10402  1.0000
  O   O6        1.0  0.39256  0.89386  0.39598  1.0000
  O   O7        1.0  0.89256  0.60614  0.89598  1.0000
  O   O8        1.0  0.60744  0.10614  0.60402  1.0000
  O   O9        1.0  0.78561  0.12411  0.43474  1.0000
  O   O10       1.0  0.71439  0.62411  0.06526  1.0000
  O   O11       1.0  0.21439  0.87589  0.56526  1.0000
  O   O12       1.0  0.28561  0.37589  0.93474  1.0000
  O   O13       1.0  0.70368  0.28174  0.35444  1.0000
  O   O14       1.0  0.79632  0.78174  0.14556  1.0000
  O   O15       1.0  0.29632  0.71826  0.64556  1.0000
  O   O16       1.0  0.20368  0.21826  0.85444  1.0000
  O   O17       1.0  0.22630  0.07977  0.44782  1.0000
  O   O18       1.0  0.27370  0.57977  0.05218  1.0000
  O   O19       1.0  0.77370  0.92023  0.55218  1.0000
  O   O20       1.0  0.72630  0.42023  0.94782  1.0000
  O   O21       1.0  0.32296  0.15240  0.33651  1.0000
  O   O22       1.0  0.17704  0.65240  0.16349  1.0000
  O   O23       1.0  0.67704  0.84760  0.66349  1.0000
  O   O24       1.0  0.82296  0.34760  0.83651  1.0000
  O   O25       1.0  0.96970  0.67762  0.06553  1.0000
  O   O26       1.0  0.53030  0.17762  0.43447  1.0000
  O   O27       1.0  0.03030  0.32238  0.93447  1.0000
  O   O28       1.0  0.46970  0.82238  0.56553  1.0000
  H   H1        1.0  0.03530  0.66440  0.09800  1.0000
  H   H2        1.0  0.46470  0.16440  0.40200  1.0000
  H   H3        1.0  0.96470  0.33560  0.90200  1.0000
  H   H4        1.0  0.53530  0.83560  0.59800  1.0000
  H   H5        1.0  0.92870  0.72340  0.09740  1.0000
  H   H6        1.0  0.57130  0.22340  0.40260  1.0000
  H   H7        1.0  0.07130  0.27660  0.90260  1.0000
  H   H8        1.0  0.42870  0.77660  0.59740  1.0000
  C   C1        1.0  0.00789  0.37685  0.13277  1.0000
  C   C2        1.0  0.49211  0.87685  0.36723  1.0000
  C   C3        1.0  0.99211  0.62315  0.86723  1.0000
  C   C4        1.0  0.50789  0.12315  0.63277  1.0000
  C   C5        1.0  0.00806  0.30459  0.21678  1.0000
  C   C6        1.0  0.49194  0.80459  0.28322  1.0000
  C   C7        1.0  0.99194  0.69541  0.78322  1.0000
  C   C8        1.0  0.50806  0.19541  0.71678  1.0000
  C   C9        1.0  0.11413  0.25638  0.25659  1.0000
  C   C10       1.0  0.38587  0.75638  0.24341  1.0000
  C   C11       1.0  0.88587  0.74362  0.74341  1.0000
  C   C12       1.0  0.61413  0.24362  0.75659  1.0000
  H   H9        1.0  0.18700  0.26930  0.23070  1.0000
  H   H10       1.0  0.31300  0.76930  0.26930  1.0000
  H   H11       1.0  0.81300  0.73070  0.76930  1.0000
  H   H12       1.0  0.68700  0.23070  0.73070  1.0000
  C   C13       1.0  0.11495  0.18913  0.33427  1.0000
  C   C14       1.0  0.38505  0.68913  0.16573  1.0000
  C   C15       1.0  0.88505  0.81087  0.66573  1.0000
  C   C16       1.0  0.61495  0.31087  0.83427  1.0000
  C   C17       1.0  0.00811  0.17195  0.37251  1.0000
  C   C18       1.0  0.49189  0.67195  0.12749  1.0000
  C   C19       1.0  0.99189  0.82805  0.62749  1.0000
  C   C20       1.0  0.50811  0.32805  0.87251  1.0000
  H   H13       1.0  0.00810  0.12550  0.42520  1.0000
  H   H14       1.0  0.49190  0.62550  0.07480  1.0000
  H   H15       1.0  0.99190  0.87450  0.57480  1.0000
  H   H16       1.0  0.50810  0.37450  0.92520  1.0000
  C   C21       1.0  0.90148  0.22226  0.33417  1.0000
  C   C22       1.0  0.59852  0.72226  0.16583  1.0000
  C   C23       1.0  0.09852  0.77774  0.66583  1.0000
  C   C24       1.0  0.40148  0.27774  0.83417  1.0000
  C   C25       1.0  0.90155  0.28739  0.25569  1.0000
  C   C26       1.0  0.59845  0.78739  0.24431  1.0000
  C   C27       1.0  0.09845  0.71261  0.74431  1.0000
  C   C28       1.0  0.40155  0.21261  0.75569  1.0000
  H   H17       1.0  0.82860  0.32030  0.22850  1.0000
  H   H18       1.0  0.67140  0.82030  0.27150  1.0000
  H   H19       1.0  0.17140  0.67970  0.77150  1.0000
  H   H20       1.0  0.32860  0.17970  0.72850  1.0000
  C   C29       1.0  0.23172  0.13589  0.37539  1.0000
  C   C30       1.0  0.26828  0.63589  0.12461  1.0000
  C   C31       1.0  0.76828  0.86411  0.62461  1.0000
  C   C32       1.0  0.73172  0.36411  0.87539  1.0000
  C   C33       1.0  0.78624  0.20872  0.37719  1.0000
  C   C34       1.0  0.71376  0.70872  0.12281  1.0000
  C   C35       1.0  0.21376  0.79128  0.62281  1.0000
  C   C36       1.0  0.28624  0.29128  0.87719  1.0000
