data_image0
_chemical_formula_structural       Cd16O56H4O16H4O24H8O16H8O4H8C4H4C8H4C20H4C8H4C4H4C16H4C4H4C8H4C12H4C12H4C8H4C8H4C8H4C8H4C12H4C4H4C52N4C4H12C4H12N4C8H12C4H12C4H12C4H12
_chemical_formula_sum              "Cd16 O116 H168 C224 N8"
_cell_length_a       18.633
_cell_length_b       20.399
_cell_length_c       20.852
_cell_angle_alpha    90
_cell_angle_beta     90
_cell_angle_gamma    90

_space_group_name_H-M_alt    "P 1"
_space_group_IT_number       1

loop_
  _space_group_symop_operation_xyz
  'x, y, z'

loop_
  _atom_site_type_symbol
  _atom_site_label
  _atom_site_symmetry_multiplicity
  _atom_site_fract_x
  _atom_site_fract_y
  _atom_site_fract_z
  _atom_site_occupancy
  Cd  Cd1       1.0  0.82775  0.87196  0.38654  1.0000
  Cd  Cd2       1.0  0.67225  0.12804  0.88654  1.0000
  Cd  Cd3       1.0  0.32775  0.62804  0.61346  1.0000
  Cd  Cd4       1.0  0.17225  0.37196  0.11346  1.0000
  Cd  Cd5       1.0  0.68851  0.16329  0.36463  1.0000
  Cd  Cd6       1.0  0.81149  0.83671  0.86463  1.0000
  Cd  Cd7       1.0  0.18851  0.33671  0.63537  1.0000
  Cd  Cd8       1.0  0.31149  0.66329  0.13537  1.0000
  Cd  Cd9       1.0  0.75538  0.03662  0.46170  1.0000
  Cd  Cd10      1.0  0.74462  0.96338  0.96170  1.0000
  Cd  Cd11      1.0  0.25538  0.46338  0.53830  1.0000
  Cd  Cd12      1.0  0.24462  0.53662  0.03830  1.0000
  Cd  Cd13      1.0  0.19579  0.08593  0.11856  1.0000
  Cd  Cd14      1.0  0.30421  0.91407  0.61856  1.0000
  Cd  Cd15      1.0  0.69579  0.41407  0.88144  1.0000
  Cd  Cd16      1.0  0.80421  0.58593  0.38144  1.0000
  O   O1        1.0  0.67677  0.04346  0.37290  1.0000
  O   O2        1.0  0.82323  0.95654  0.87290  1.0000
  O   O3        1.0  0.17677  0.45654  0.62710  1.0000
  O   O4        1.0  0.32323  0.54346  0.12710  1.0000
  O   O5        1.0  0.57660  0.09896  0.37070  1.0000
  O   O6        1.0  0.92340  0.90104  0.87070  1.0000
  O   O7        1.0  0.07660  0.40104  0.62930  1.0000
  O   O8        1.0  0.42340  0.59896  0.12930  1.0000
  O   O9        1.0  0.16496  0.49108  0.11468  1.0000
  O   O10       1.0  0.33504  0.50892  0.61468  1.0000
  O   O11       1.0  0.66496  0.00892  0.88532  1.0000
  O   O12       1.0  0.83504  0.99108  0.38532  1.0000
  O   O13       1.0  0.06620  0.43427  0.11600  1.0000
  O   O14       1.0  0.43380  0.56573  0.61600  1.0000
  O   O15       1.0  0.56620  0.06573  0.88400  1.0000
  O   O16       1.0  0.93380  0.93427  0.38400  1.0000
  O   O17       1.0  0.82940  0.89327  0.26350  1.0000
  O   O18       1.0  0.67060  0.10673  0.76350  1.0000
  O   O19       1.0  0.32940  0.60673  0.73650  1.0000
  O   O20       1.0  0.17060  0.39327  0.23650  1.0000
  O   O21       1.0  0.85500  0.79870  0.30693  1.0000
  O   O22       1.0  0.64500  0.20130  0.80693  1.0000
  O   O23       1.0  0.35500  0.70130  0.69307  1.0000
  O   O24       1.0  0.14500  0.29870  0.19307  1.0000
  O   O25       1.0  0.70915  0.87700  0.37340  1.0000
  O   O26       1.0  0.79085  0.12300  0.87340  1.0000
  O   O27       1.0  0.20915  0.62300  0.62660  1.0000
  O   O28       1.0  0.29085  0.37700  0.12660  1.0000
  O   O29       1.0  0.70070  0.93835  0.46129  1.0000
  O   O30       1.0  0.79930  0.06165  0.96129  1.0000
  O   O31       1.0  0.20070  0.56165  0.53871  1.0000
  O   O32       1.0  0.29930  0.43835  0.03871  1.0000
  O   O33       1.0  0.80510  0.90210  0.02780  1.0000
  O   O34       1.0  0.69490  0.09790  0.52780  1.0000
  O   O35       1.0  0.30510  0.59790  0.97220  1.0000
  O   O36       1.0  0.19490  0.40210  0.47220  1.0000
  O   O37       1.0  0.84530  0.81860  0.96730  1.0000
  O   O38       1.0  0.65470  0.18140  0.46730  1.0000
  O   O39       1.0  0.34530  0.68140  0.03270  1.0000
  O   O40       1.0  0.15470  0.31860  0.53270  1.0000
  O   O41       1.0  0.67900  0.49390  0.96080  1.0000
  O   O42       1.0  0.82100  0.50610  0.46080  1.0000
  O   O43       1.0  0.17900  0.00610  0.03920  1.0000
  O   O44       1.0  0.32100  0.99390  0.53920  1.0000
  O   O45       1.0  0.78950  0.46340  0.95090  1.0000
  O   O46       1.0  0.71050  0.53660  0.45090  1.0000
  O   O47       1.0  0.28950  0.03660  0.04910  1.0000
  O   O48       1.0  0.21050  0.96340  0.54910  1.0000
  O   O49       1.0  0.20530  0.84290  0.44760  1.0000
  O   O50       1.0  0.29470  0.15710  0.94760  1.0000
  O   O51       1.0  0.70530  0.65710  0.55240  1.0000
  O   O52       1.0  0.79470  0.34290  0.05240  1.0000
  O   O53       1.0  0.12620  0.89450  0.38670  1.0000
  O   O54       1.0  0.37380  0.10550  0.88670  1.0000
  O   O55       1.0  0.62620  0.60550  0.61330  1.0000
  O   O56       1.0  0.87380  0.39450  0.11330  1.0000
  H   H1        1.0  0.09700  0.87390  0.41070  1.0000
  H   H2        1.0  0.40300  0.12610  0.91070  1.0000
  H   H3        1.0  0.59700  0.62610  0.58930  1.0000
  H   H4        1.0  0.90300  0.37390  0.08930  1.0000
  O   O57       1.0  0.30690  0.05860  0.19600  1.0000
  O   O58       1.0  0.19310  0.94140  0.69600  1.0000
  O   O59       1.0  0.80690  0.44140  0.80400  1.0000
  O   O60       1.0  0.69310  0.55860  0.30400  1.0000
  O   O61       1.0  0.32570  0.64240  0.25570  1.0000
  O   O62       1.0  0.17430  0.35760  0.75570  1.0000
  O   O63       1.0  0.82570  0.85760  0.74430  1.0000
  O   O64       1.0  0.67430  0.14240  0.24430  1.0000
  O   O65       1.0  0.69790  0.68360  0.20470  1.0000
  O   O66       1.0  0.80210  0.31640  0.70470  1.0000
  O   O67       1.0  0.19790  0.81640  0.79530  1.0000
  O   O68       1.0  0.30210  0.18360  0.29530  1.0000
  O   O69       1.0  0.61350  0.63890  0.14290  1.0000
  O   O70       1.0  0.88650  0.36110  0.64290  1.0000
  O   O71       1.0  0.11350  0.86110  0.85710  1.0000
  O   O72       1.0  0.38650  0.13890  0.35710  1.0000
  H   H5        1.0  0.58600  0.66040  0.16770  1.0000
  H   H6        1.0  0.91400  0.33960  0.66770  1.0000
  H   H7        1.0  0.08600  0.83960  0.83230  1.0000
  H   H8        1.0  0.41400  0.16040  0.33230  1.0000
  O   O73       1.0  0.19050  0.63320  0.18720  1.0000
  O   O74       1.0  0.30950  0.36680  0.68720  1.0000
  O   O75       1.0  0.69050  0.86680  0.81280  1.0000
  O   O76       1.0  0.80950  0.13320  0.31280  1.0000
  O   O77       1.0  0.35960  0.71309  0.54672  1.0000
  O   O78       1.0  0.14040  0.28691  0.04672  1.0000
  O   O79       1.0  0.85960  0.78691  0.45328  1.0000
  O   O80       1.0  0.64040  0.21309  0.95328  1.0000
  O   O81       1.0  0.35270  0.62120  0.49600  1.0000
  O   O82       1.0  0.14730  0.37880  0.99600  1.0000
  O   O83       1.0  0.85270  0.87880  0.50400  1.0000
  O   O84       1.0  0.64730  0.12120  0.00400  1.0000
  O   O85       1.0  0.38040  0.72250  0.20740  1.0000
  O   O86       1.0  0.11960  0.27750  0.70740  1.0000
  O   O87       1.0  0.88040  0.77750  0.79260  1.0000
  O   O88       1.0  0.61960  0.22250  0.29260  1.0000
  O   O89       1.0  0.20000  0.62760  0.08430  1.0000
  O   O90       1.0  0.30000  0.37240  0.58430  1.0000
  O   O91       1.0  0.70000  0.87240  0.91570  1.0000
  O   O92       1.0  0.80000  0.12760  0.41570  1.0000
  O   O93       1.0  0.20550  0.17450  0.18950  1.0000
  O   O94       1.0  0.29450  0.82550  0.68950  1.0000
  O   O95       1.0  0.70550  0.32550  0.81050  1.0000
  O   O96       1.0  0.79450  0.67450  0.31050  1.0000
  H   H9        1.0  0.25540  0.18420  0.19640  1.0000
  H   H10       1.0  0.24460  0.81580  0.69640  1.0000
  H   H11       1.0  0.75540  0.31580  0.80360  1.0000
  H   H12       1.0  0.74460  0.68420  0.30360  1.0000
  H   H13       1.0  0.18200  0.21250  0.17230  1.0000
  H   H14       1.0  0.31800  0.78750  0.67230  1.0000
  H   H15       1.0  0.68200  0.28750  0.82770  1.0000
  H   H16       1.0  0.81800  0.71250  0.32770  1.0000
  O   O97       1.0  0.74100  0.26400  0.37270  1.0000
  O   O98       1.0  0.75900  0.73600  0.87270  1.0000
  O   O99       1.0  0.24100  0.23600  0.62730  1.0000
  O   O100      1.0  0.25900  0.76400  0.12730  1.0000
  O   O101      1.0  0.20000  0.01850  0.20030  1.0000
  O   O102      1.0  0.30000  0.98150  0.70030  1.0000
  O   O103      1.0  0.70000  0.48150  0.79970  1.0000
  O   O104      1.0  0.80000  0.51850  0.29970  1.0000
  O   O105      1.0  0.07610  0.09860  0.12780  1.0000
  O   O106      1.0  0.42390  0.90140  0.62780  1.0000
  O   O107      1.0  0.57610  0.40140  0.87220  1.0000
  O   O108      1.0  0.92390  0.59860  0.37220  1.0000
  O   O109      1.0  0.82730  0.00210  0.54200  1.0000
  O   O110      1.0  0.67270  0.99790  0.04200  1.0000
  O   O111      1.0  0.32730  0.49790  0.45800  1.0000
  O   O112      1.0  0.17270  0.50210  0.95800  1.0000
  H   H17       1.0  0.84570  0.03940  0.56480  1.0000
  H   H18       1.0  0.65430  0.96060  0.06480  1.0000
  H   H19       1.0  0.34570  0.46060  0.43520  1.0000
  H   H20       1.0  0.15430  0.53940  0.93520  1.0000
  H   H21       1.0  0.86640  0.97740  0.52430  1.0000
  H   H22       1.0  0.63360  0.02260  0.02430  1.0000
  H   H23       1.0  0.36640  0.52260  0.47570  1.0000
  H   H24       1.0  0.13360  0.47740  0.97570  1.0000
  O   O113      1.0  0.19950  0.16560  0.04570  1.0000
  O   O114      1.0  0.30050  0.83440  0.54570  1.0000
  O   O115      1.0  0.69950  0.33440  0.95430  1.0000
  O   O116      1.0  0.80050  0.66560  0.45430  1.0000
  H   H25       1.0  0.19610  0.14680  0.00350  1.0000
  H   H26       1.0  0.30390  0.85320  0.50350  1.0000
  H   H27       1.0  0.69610  0.35320  0.99650  1.0000
  H   H28       1.0  0.80390  0.64680  0.49650  1.0000
  H   H29       1.0  0.16010  0.19500  0.05250  1.0000
  H   H30       1.0  0.33990  0.80500  0.55250  1.0000
  H   H31       1.0  0.66010  0.30500  0.94750  1.0000
  H   H32       1.0  0.83990  0.69500  0.44750  1.0000
  C   C1        1.0  0.55420  0.86830  0.39680  1.0000
  C   C2        1.0  0.94580  0.13170  0.89680  1.0000
  C   C3        1.0  0.05420  0.63170  0.60320  1.0000
  C   C4        1.0  0.44580  0.36830  0.10320  1.0000
  H   H33       1.0  0.57480  0.82830  0.40760  1.0000
  H   H34       1.0  0.92520  0.17170  0.90760  1.0000
  H   H35       1.0  0.07480  0.67170  0.59240  1.0000
  H   H36       1.0  0.42520  0.32830  0.09240  1.0000
  C   C5        1.0  0.56700  0.98390  0.38110  1.0000
  C   C6        1.0  0.93300  0.01610  0.88110  1.0000
  C   C7        1.0  0.06700  0.51610  0.61890  1.0000
  C   C8        1.0  0.43300  0.48390  0.11890  1.0000
  C   C9        1.0  0.49330  0.98630  0.36610  1.0000
  C   C10       1.0  0.00670  0.01370  0.86610  1.0000
  C   C11       1.0  0.99330  0.51370  0.63390  1.0000
  C   C12       1.0  0.50670  0.48630  0.13390  1.0000
  H   H37       1.0  0.47270  0.02640  0.35590  1.0000
  H   H38       1.0  0.02730  0.97360  0.85590  1.0000
  H   H39       1.0  0.97270  0.47360  0.64410  1.0000
  H   H40       1.0  0.52730  0.52640  0.14410  1.0000
  C   C13       1.0  0.45020  0.93000  0.36620  1.0000
  C   C14       1.0  0.04980  0.07000  0.86620  1.0000
  C   C15       1.0  0.95020  0.57000  0.63380  1.0000
  C   C16       1.0  0.54980  0.43000  0.13380  1.0000
  C   C17       1.0  0.48120  0.87040  0.38210  1.0000
  C   C18       1.0  0.01880  0.12960  0.88210  1.0000
  C   C19       1.0  0.98120  0.62960  0.61790  1.0000
  C   C20       1.0  0.51880  0.37040  0.11790  1.0000
  C   C21       1.0  0.60790  0.04650  0.37550  1.0000
  C   C22       1.0  0.89210  0.95350  0.87550  1.0000
  C   C23       1.0  0.10790  0.45350  0.62450  1.0000
  C   C24       1.0  0.39210  0.54650  0.12450  1.0000
  C   C25       1.0  0.44130  0.80700  0.38110  1.0000
  C   C26       1.0  0.05870  0.19300  0.88110  1.0000
  C   C27       1.0  0.94130  0.69300  0.61890  1.0000
  C   C28       1.0  0.55870  0.30700  0.11890  1.0000
  C   C29       1.0  0.42090  0.78100  0.32240  1.0000
  C   C30       1.0  0.07910  0.21900  0.82240  1.0000
  C   C31       1.0  0.92090  0.71900  0.67760  1.0000
  C   C32       1.0  0.57910  0.28100  0.17760  1.0000
  H   H41       1.0  0.43160  0.80310  0.28460  1.0000
  H   H42       1.0  0.06840  0.19690  0.78460  1.0000
  H   H43       1.0  0.93160  0.69690  0.71540  1.0000
  H   H44       1.0  0.56840  0.30310  0.21540  1.0000
  C   C33       1.0  0.38360  0.72020  0.32040  1.0000
  C   C34       1.0  0.11640  0.27980  0.82040  1.0000
  C   C35       1.0  0.88360  0.77980  0.67960  1.0000
  C   C36       1.0  0.61640  0.22020  0.17960  1.0000
  C   C37       1.0  0.36770  0.68760  0.37690  1.0000
  C   C38       1.0  0.13230  0.31240  0.87690  1.0000
  C   C39       1.0  0.86770  0.81240  0.62310  1.0000
  C   C40       1.0  0.63230  0.18760  0.12310  1.0000
  H   H45       1.0  0.34420  0.64740  0.37570  1.0000
  H   H46       1.0  0.15580  0.35260  0.87570  1.0000
  H   H47       1.0  0.84420  0.85260  0.62430  1.0000
  H   H48       1.0  0.65580  0.14740  0.12430  1.0000
  C   C41       1.0  0.42360  0.77410  0.43790  1.0000
  C   C42       1.0  0.07640  0.22590  0.93790  1.0000
  C   C43       1.0  0.92360  0.72590  0.56210  1.0000
  C   C44       1.0  0.57640  0.27410  0.06210  1.0000
  H   H49       1.0  0.43650  0.79180  0.47730  1.0000
  H   H50       1.0  0.06350  0.20820  0.97730  1.0000
  H   H51       1.0  0.93650  0.70820  0.52270  1.0000
  H   H52       1.0  0.56350  0.29180  0.02270  1.0000
  C   C45       1.0  0.09730  0.48770  0.11430  1.0000
  C   C46       1.0  0.40270  0.51230  0.61430  1.0000
  C   C47       1.0  0.59730  0.01230  0.88570  1.0000
  C   C48       1.0  0.90270  0.98770  0.38570  1.0000
  C   C49       1.0  0.85010  0.83450  0.25860  1.0000
  C   C50       1.0  0.64990  0.16550  0.75860  1.0000
  C   C51       1.0  0.35010  0.66550  0.74140  1.0000
  C   C52       1.0  0.14990  0.33450  0.24140  1.0000
  C   C53       1.0  0.86680  0.80670  0.19570  1.0000
  C   C54       1.0  0.63320  0.19330  0.69570  1.0000
  C   C55       1.0  0.36680  0.69330  0.80430  1.0000
  C   C56       1.0  0.13320  0.30670  0.30430  1.0000
  C   C57       1.0  0.84310  0.83770  0.13930  1.0000
  C   C58       1.0  0.65690  0.16230  0.63930  1.0000
  C   C59       1.0  0.34310  0.66230  0.86070  1.0000
  C   C60       1.0  0.15690  0.33770  0.36070  1.0000
  H   H53       1.0  0.81640  0.87610  0.14220  1.0000
  H   H54       1.0  0.68360  0.12390  0.64220  1.0000
  H   H55       1.0  0.31640  0.62390  0.85780  1.0000
  H   H56       1.0  0.18360  0.37610  0.35780  1.0000
  C   C61       1.0  0.90780  0.74970  0.19000  1.0000
  C   C62       1.0  0.59220  0.25030  0.69000  1.0000
  C   C63       1.0  0.40780  0.75030  0.81000  1.0000
  C   C64       1.0  0.09220  0.24970  0.31000  1.0000
  H   H57       1.0  0.92570  0.72960  0.22680  1.0000
  H   H58       1.0  0.57430  0.27040  0.72680  1.0000
  H   H59       1.0  0.42570  0.77040  0.77320  1.0000
  H   H60       1.0  0.07430  0.22960  0.27320  1.0000
  C   C65       1.0  0.92220  0.72220  0.12970  1.0000
  C   C66       1.0  0.57780  0.27780  0.62970  1.0000
  C   C67       1.0  0.42220  0.77780  0.87030  1.0000
  C   C68       1.0  0.07780  0.22220  0.37030  1.0000
  C   C69       1.0  0.89750  0.75350  0.07540  1.0000
  C   C70       1.0  0.60250  0.24650  0.57540  1.0000
  C   C71       1.0  0.39750  0.74650  0.92460  1.0000
  C   C72       1.0  0.10250  0.25350  0.42460  1.0000
  H   H61       1.0  0.90690  0.73520  0.03540  1.0000
  H   H62       1.0  0.59310  0.26480  0.53540  1.0000
  H   H63       1.0  0.40690  0.76480  0.96460  1.0000
  H   H64       1.0  0.09310  0.23520  0.46460  1.0000
  C   C73       1.0  0.96570  0.66010  0.12500  1.0000
  C   C74       1.0  0.53430  0.33990  0.62500  1.0000
  C   C75       1.0  0.46570  0.83990  0.87500  1.0000
  C   C76       1.0  0.03430  0.16010  0.37500  1.0000
  C   C77       1.0  0.93550  0.59910  0.10900  1.0000
  C   C78       1.0  0.56450  0.40090  0.60900  1.0000
  C   C79       1.0  0.43550  0.90090  0.89100  1.0000
  C   C80       1.0  0.06450  0.09910  0.39100  1.0000
  C   C81       1.0  0.97940  0.54550  0.10760  1.0000
  C   C82       1.0  0.52060  0.45450  0.60760  1.0000
  C   C83       1.0  0.47940  0.95450  0.89240  1.0000
  C   C84       1.0  0.02060  0.04550  0.39240  1.0000
  H   H65       1.0  0.95910  0.50460  0.09970  1.0000
  H   H66       1.0  0.54090  0.49540  0.59970  1.0000
  H   H67       1.0  0.45910  0.99540  0.90030  1.0000
  H   H68       1.0  0.04090  0.00460  0.40030  1.0000
  C   C85       1.0  0.85900  0.81140  0.07900  1.0000
  C   C86       1.0  0.64100  0.18860  0.57900  1.0000
  C   C87       1.0  0.35900  0.68860  0.92100  1.0000
  C   C88       1.0  0.14100  0.31140  0.42100  1.0000
  C   C89       1.0  0.83460  0.84730  0.02010  1.0000
  C   C90       1.0  0.66540  0.15270  0.52010  1.0000
  C   C91       1.0  0.33460  0.65270  0.97990  1.0000
  C   C92       1.0  0.16540  0.34730  0.47990  1.0000
  C   C93       1.0  0.80470  0.62070  0.13250  1.0000
  C   C94       1.0  0.69530  0.37930  0.63250  1.0000
  C   C95       1.0  0.30470  0.87930  0.86750  1.0000
  C   C96       1.0  0.19530  0.12070  0.36750  1.0000
  H   H69       1.0  0.81820  0.64760  0.16650  1.0000
  H   H70       1.0  0.68180  0.35240  0.66650  1.0000
  H   H71       1.0  0.31820  0.85240  0.83350  1.0000
  H   H72       1.0  0.18180  0.14760  0.33350  1.0000
  C   C97       1.0  0.73240  0.61180  0.11940  1.0000
  C   C98       1.0  0.76760  0.38820  0.61940  1.0000
  C   C99       1.0  0.23240  0.88820  0.88060  1.0000
  C   C100      1.0  0.26760  0.11180  0.38060  1.0000
  C   C101      1.0  0.71210  0.57250  0.06760  1.0000
  C   C102      1.0  0.78790  0.42750  0.56760  1.0000
  C   C103      1.0  0.21210  0.92750  0.93240  1.0000
  C   C104      1.0  0.28790  0.07250  0.43240  1.0000
  H   H73       1.0  0.66380  0.56780  0.05770  1.0000
  H   H74       1.0  0.83620  0.43220  0.55770  1.0000
  H   H75       1.0  0.16380  0.93220  0.94230  1.0000
  H   H76       1.0  0.33620  0.06780  0.44230  1.0000
  C   C105      1.0  0.76340  0.54040  0.03070  1.0000
  C   C106      1.0  0.73660  0.45960  0.53070  1.0000
  C   C107      1.0  0.26340  0.95960  0.96930  1.0000
  C   C108      1.0  0.23660  0.04040  0.46930  1.0000
  C   C109      1.0  0.83570  0.55070  0.04460  1.0000
  C   C110      1.0  0.66430  0.44930  0.54460  1.0000
  C   C111      1.0  0.33570  0.94930  0.95540  1.0000
  C   C112      1.0  0.16430  0.05070  0.45540  1.0000
  H   H77       1.0  0.87030  0.53070  0.01910  1.0000
  H   H78       1.0  0.62970  0.46930  0.51910  1.0000
  H   H79       1.0  0.37030  0.96930  0.98090  1.0000
  H   H80       1.0  0.12970  0.03070  0.48090  1.0000
  C   C113      1.0  0.37270  0.93720  0.34840  1.0000
  C   C114      1.0  0.12730  0.06280  0.84840  1.0000
  C   C115      1.0  0.87270  0.56280  0.65160  1.0000
  C   C116      1.0  0.62730  0.43720  0.15160  1.0000
  C   C117      1.0  0.31970  0.90630  0.38460  1.0000
  C   C118      1.0  0.18030  0.09370  0.88460  1.0000
  C   C119      1.0  0.81970  0.59370  0.61540  1.0000
  C   C120      1.0  0.68030  0.40630  0.11540  1.0000
  H   H81       1.0  0.33180  0.88180  0.42060  1.0000
  H   H82       1.0  0.16820  0.11820  0.92060  1.0000
  H   H83       1.0  0.83180  0.61820  0.57940  1.0000
  H   H84       1.0  0.66820  0.38180  0.07940  1.0000
  C   C121      1.0  0.24730  0.91280  0.36560  1.0000
  C   C122      1.0  0.25270  0.08720  0.86560  1.0000
  C   C123      1.0  0.74730  0.58720  0.63440  1.0000
  C   C124      1.0  0.75270  0.41280  0.13440  1.0000
  C   C125      1.0  0.22950  0.95060  0.31350  1.0000
  C   C126      1.0  0.27050  0.04940  0.81350  1.0000
  C   C127      1.0  0.72950  0.54940  0.68650  1.0000
  C   C128      1.0  0.77050  0.45060  0.18650  1.0000
  H   H85       1.0  0.18160  0.95540  0.30180  1.0000
  H   H86       1.0  0.31840  0.04460  0.80180  1.0000
  H   H87       1.0  0.68160  0.54460  0.69820  1.0000
  H   H88       1.0  0.81840  0.45540  0.19820  1.0000
  C   C129      1.0  0.28220  0.98140  0.27850  1.0000
  C   C130      1.0  0.21780  0.01860  0.77850  1.0000
  C   C131      1.0  0.78220  0.51860  0.72150  1.0000
  C   C132      1.0  0.71780  0.48140  0.22150  1.0000
  C   C133      1.0  0.67640  0.91400  0.41180  1.0000
  C   C134      1.0  0.82360  0.08600  0.91180  1.0000
  C   C135      1.0  0.17640  0.58600  0.58820  1.0000
  C   C136      1.0  0.32360  0.41400  0.08820  1.0000
  C   C137      1.0  0.35360  0.97480  0.29690  1.0000
  C   C138      1.0  0.14640  0.02520  0.79690  1.0000
  C   C139      1.0  0.85360  0.52520  0.70310  1.0000
  C   C140      1.0  0.64640  0.47480  0.20310  1.0000
  H   H89       1.0  0.38900  0.99640  0.27370  1.0000
  H   H90       1.0  0.11100  0.00360  0.77370  1.0000
  H   H91       1.0  0.88900  0.50360  0.72630  1.0000
  H   H92       1.0  0.61100  0.49640  0.22630  1.0000
  C   C141      1.0  0.03910  0.66480  0.13500  1.0000
  C   C142      1.0  0.46090  0.33520  0.63500  1.0000
  C   C143      1.0  0.53910  0.83520  0.86500  1.0000
  C   C144      1.0  0.96090  0.16480  0.36500  1.0000
  H   H93       1.0  0.05890  0.70510  0.14610  1.0000
  H   H94       1.0  0.44110  0.29490  0.64610  1.0000
  H   H95       1.0  0.55890  0.79490  0.85390  1.0000
  H   H96       1.0  0.94110  0.20510  0.35390  1.0000
  C   C145      1.0  0.08380  0.61070  0.12860  1.0000
  C   C146      1.0  0.41620  0.38930  0.62860  1.0000
  C   C147      1.0  0.58380  0.88930  0.87140  1.0000
  C   C148      1.0  0.91620  0.11070  0.37140  1.0000
  C   C149      1.0  0.05430  0.54970  0.11740  1.0000
  C   C150      1.0  0.44570  0.45030  0.61740  1.0000
  C   C151      1.0  0.55430  0.95030  0.88260  1.0000
  C   C152      1.0  0.94570  0.04970  0.38260  1.0000
  C   C153      1.0  0.85770  0.59040  0.09590  1.0000
  C   C154      1.0  0.64230  0.40960  0.59590  1.0000
  C   C155      1.0  0.35770  0.90960  0.90410  1.0000
  C   C156      1.0  0.14230  0.09040  0.40410  1.0000
  C   C157      1.0  0.74270  0.49620  0.97640  1.0000
  C   C158      1.0  0.75730  0.50380  0.47640  1.0000
  C   C159      1.0  0.24270  0.00380  0.02360  1.0000
  C   C160      1.0  0.25730  0.99620  0.52360  1.0000
  C   C161      1.0  0.19090  0.87880  0.40400  1.0000
  C   C162      1.0  0.30910  0.12120  0.90400  1.0000
  C   C163      1.0  0.69090  0.62120  0.59600  1.0000
  C   C164      1.0  0.80910  0.37880  0.09600  1.0000
  C   C165      1.0  0.59670  0.92360  0.39590  1.0000
  C   C166      1.0  0.90330  0.07640  0.89590  1.0000
  C   C167      1.0  0.09670  0.57640  0.60410  1.0000
  C   C168      1.0  0.40330  0.42360  0.10410  1.0000
  C   C169      1.0  0.38670  0.71490  0.43540  1.0000
  C   C170      1.0  0.11330  0.28510  0.93540  1.0000
  C   C171      1.0  0.88670  0.78510  0.56460  1.0000
  C   C172      1.0  0.61330  0.21490  0.06460  1.0000
  C   C173      1.0  0.26150  0.02300  0.22140  1.0000
  C   C174      1.0  0.23850  0.97700  0.72140  1.0000
  C   C175      1.0  0.76150  0.47700  0.77860  1.0000
  C   C176      1.0  0.73850  0.52300  0.27860  1.0000
  C   C177      1.0  0.36240  0.69260  0.25690  1.0000
  C   C178      1.0  0.13760  0.30740  0.75690  1.0000
  C   C179      1.0  0.86240  0.80740  0.74310  1.0000
  C   C180      1.0  0.63760  0.19260  0.24310  1.0000
  C   C181      1.0  0.36500  0.68120  0.49570  1.0000
  C   C182      1.0  0.13500  0.31880  0.99570  1.0000
  C   C183      1.0  0.86500  0.81880  0.50430  1.0000
  C   C184      1.0  0.63500  0.18120  0.00430  1.0000
  C   C185      1.0  0.67840  0.64730  0.15960  1.0000
  C   C186      1.0  0.82160  0.35270  0.65960  1.0000
  C   C187      1.0  0.17840  0.85270  0.84040  1.0000
  C   C188      1.0  0.32160  0.14730  0.34040  1.0000
  C   C189      1.0  0.16320  0.62280  0.13530  1.0000
  C   C190      1.0  0.33680  0.37720  0.63530  1.0000
  C   C191      1.0  0.66320  0.87720  0.86470  1.0000
  C   C192      1.0  0.83680  0.12280  0.36470  1.0000
  C   C193      1.0  0.03260  0.06080  0.15070  1.0000
  C   C194      1.0  0.46740  0.93920  0.65070  1.0000
  C   C195      1.0  0.53260  0.43920  0.84930  1.0000
  C   C196      1.0  0.96740  0.56080  0.34930  1.0000
  N   N1        1.0  0.99860  0.01830  0.10680  1.0000
  N   N2        1.0  0.50140  0.98170  0.60680  1.0000
  N   N3        1.0  0.49860  0.48170  0.89320  1.0000
  N   N4        1.0  0.00140  0.51830  0.39320  1.0000
  C   C197      1.0  0.00450  0.04360  0.04230  1.0000
  C   C198      1.0  0.49550  0.95640  0.54230  1.0000
  C   C199      1.0  0.50450  0.45640  0.95770  1.0000
  C   C200      1.0  0.99550  0.54360  0.45770  1.0000
  H   H97       1.0  0.04340  0.07440  0.04020  1.0000
  H   H98       1.0  0.45660  0.92560  0.54020  1.0000
  H   H99       1.0  0.54340  0.42560  0.95980  1.0000
  H   H100      1.0  0.95660  0.57440  0.45980  1.0000
  H   H101      1.0  0.96050  0.06520  0.03070  1.0000
  H   H102      1.0  0.53950  0.93480  0.53070  1.0000
  H   H103      1.0  0.46050  0.43480  0.96930  1.0000
  H   H104      1.0  0.03950  0.56520  0.46930  1.0000
  H   H105      1.0  0.01340  0.00810  0.01320  1.0000
  H   H106      1.0  0.48660  0.99190  0.51320  1.0000
  H   H107      1.0  0.51340  0.49190  0.98680  1.0000
  H   H108      1.0  0.98660  0.50810  0.48680  1.0000
  C   C201      1.0  0.94920  0.97130  0.13480  1.0000
  C   C202      1.0  0.55080  0.02870  0.63480  1.0000
  C   C203      1.0  0.44920  0.52870  0.86520  1.0000
  C   C204      1.0  0.05080  0.47130  0.36520  1.0000
  H   H109      1.0  0.96040  0.96540  0.17940  1.0000
  H   H110      1.0  0.53960  0.03460  0.67940  1.0000
  H   H111      1.0  0.46040  0.53460  0.82060  1.0000
  H   H112      1.0  0.03960  0.46540  0.32060  1.0000
  H   H113      1.0  0.95370  0.93010  0.11290  1.0000
  H   H114      1.0  0.54630  0.06990  0.61290  1.0000
  H   H115      1.0  0.45370  0.56990  0.88710  1.0000
  H   H116      1.0  0.04630  0.43010  0.38710  1.0000
  H   H117      1.0  0.90100  0.98720  0.13060  1.0000
  H   H118      1.0  0.59900  0.01280  0.63060  1.0000
  H   H119      1.0  0.40100  0.51280  0.86940  1.0000
  H   H120      1.0  0.09900  0.48720  0.36940  1.0000
  N   N5        1.0  0.84150  0.32610  0.36550  1.0000
  N   N6        1.0  0.65850  0.67390  0.86550  1.0000
  N   N7        1.0  0.34150  0.17390  0.63450  1.0000
  N   N8        1.0  0.15850  0.82610  0.13450  1.0000
  C   C205      1.0  0.78910  0.29050  0.40060  1.0000
  C   C206      1.0  0.71090  0.70950  0.90060  1.0000
  C   C207      1.0  0.28910  0.20950  0.59940  1.0000
  C   C208      1.0  0.21090  0.79050  0.09940  1.0000
  C   C209      1.0  0.81090  0.28890  0.46930  1.0000
  C   C210      1.0  0.68910  0.71110  0.96930  1.0000
  C   C211      1.0  0.31090  0.21110  0.53070  1.0000
  C   C212      1.0  0.18910  0.78890  0.03070  1.0000
  H   H121      1.0  0.77750  0.26260  0.49310  1.0000
  H   H122      1.0  0.72250  0.73740  0.99310  1.0000
  H   H123      1.0  0.27750  0.23740  0.50690  1.0000
  H   H124      1.0  0.22250  0.76260  0.00690  1.0000
  H   H125      1.0  0.81120  0.33270  0.48610  1.0000
  H   H126      1.0  0.68880  0.66730  0.98610  1.0000
  H   H127      1.0  0.31120  0.16730  0.51390  1.0000
  H   H128      1.0  0.18880  0.83270  0.01390  1.0000
  H   H129      1.0  0.85810  0.27030  0.47290  1.0000
  H   H130      1.0  0.64190  0.72970  0.97290  1.0000
  H   H131      1.0  0.35810  0.22970  0.52710  1.0000
  H   H132      1.0  0.14190  0.77030  0.02710  1.0000
  C   C213      1.0  0.89450  0.36600  0.39550  1.0000
  C   C214      1.0  0.60550  0.63400  0.89550  1.0000
  C   C215      1.0  0.39450  0.13400  0.60450  1.0000
  C   C216      1.0  0.10550  0.86600  0.10450  1.0000
  H   H133      1.0  0.90810  0.34680  0.43570  1.0000
  H   H134      1.0  0.59190  0.65320  0.93570  1.0000
  H   H135      1.0  0.40810  0.15320  0.56430  1.0000
  H   H136      1.0  0.09190  0.84680  0.06430  1.0000
  H   H137      1.0  0.87520  0.40900  0.40270  1.0000
  H   H138      1.0  0.62480  0.59100  0.90270  1.0000
  H   H139      1.0  0.37520  0.09100  0.59730  1.0000
  H   H140      1.0  0.12480  0.90900  0.09730  1.0000
  H   H141      1.0  0.93580  0.36910  0.36810  1.0000
  H   H142      1.0  0.56420  0.63090  0.86810  1.0000
  H   H143      1.0  0.43580  0.13090  0.63190  1.0000
  H   H144      1.0  0.06420  0.86910  0.13190  1.0000
  C   C217      1.0  0.82500  0.34820  0.30170  1.0000
  C   C218      1.0  0.67500  0.65180  0.80170  1.0000
  C   C219      1.0  0.32500  0.15180  0.69830  1.0000
  C   C220      1.0  0.17500  0.84820  0.19830  1.0000
  H   H145      1.0  0.86530  0.37190  0.28470  1.0000
  H   H146      1.0  0.63470  0.62810  0.78470  1.0000
  H   H147      1.0  0.36530  0.12810  0.71530  1.0000
  H   H148      1.0  0.13470  0.87190  0.21530  1.0000
  H   H149      1.0  0.78380  0.37640  0.30300  1.0000
  H   H150      1.0  0.71620  0.62360  0.80300  1.0000
  H   H151      1.0  0.28380  0.12360  0.69700  1.0000
  H   H152      1.0  0.21620  0.87640  0.19700  1.0000
  H   H153      1.0  0.81500  0.31110  0.27490  1.0000
  H   H154      1.0  0.68500  0.68890  0.77490  1.0000
  H   H155      1.0  0.31500  0.18890  0.72510  1.0000
  H   H156      1.0  0.18500  0.81110  0.22510  1.0000
  C   C221      1.0  0.02240  0.03400  0.21580  1.0000
  C   C222      1.0  0.47760  0.96600  0.71580  1.0000
  C   C223      1.0  0.52240  0.46600  0.78420  1.0000
  C   C224      1.0  0.97760  0.53400  0.28420  1.0000
  H   H157      1.0  0.04820  0.06040  0.24620  1.0000
  H   H158      1.0  0.45180  0.93960  0.74620  1.0000
  H   H159      1.0  0.54820  0.43960  0.75380  1.0000
  H   H160      1.0  0.95180  0.56040  0.25380  1.0000
  H   H161      1.0  0.04000  0.98980  0.21730  1.0000
  H   H162      1.0  0.46000  0.01020  0.71730  1.0000
  H   H163      1.0  0.54000  0.51020  0.78270  1.0000
  H   H164      1.0  0.96000  0.48980  0.28270  1.0000
  H   H165      1.0  0.97220  0.03430  0.22640  1.0000
  H   H166      1.0  0.52780  0.96570  0.72640  1.0000
  H   H167      1.0  0.47220  0.46570  0.77360  1.0000
  H   H168      1.0  0.02780  0.53430  0.27360  1.0000
