data_image0
_chemical_formula_structural       Co2O14H4O2H4O2H4C4H2C4H2C4H2C6
_chemical_formula_sum              "Co2 O18 H18 C18"
_cell_length_a       7.1443
_cell_length_b       10.5308
_cell_length_c       10.5385
_cell_angle_alpha    110.753
_cell_angle_beta     102.521
_cell_angle_gamma    91.351

_space_group_name_H-M_alt    "P 1"
_space_group_IT_number       1

loop_
  _space_group_symop_operation_xyz
  'x, y, z'

loop_
  _atom_site_type_symbol
  _atom_site_label
  _atom_site_symmetry_multiplicity
  _atom_site_fract_x
  _atom_site_fract_y
  _atom_site_fract_z
  _atom_site_occupancy
  Co  Co1       1.0  0.00000  0.00000  0.00000  1.0000
  Co  Co2       1.0  0.00000  0.50000  0.50000  1.0000
  O   O1        1.0  0.15190  0.69950  0.63630  1.0000
  O   O2        1.0  0.84810  0.30050  0.36370  1.0000
  O   O3        1.0  0.02670  0.65060  0.41380  1.0000
  O   O4        1.0  0.97330  0.34940  0.58620  1.0000
  O   O5        1.0  0.10600  0.97420  0.18822  1.0000
  O   O6        1.0  0.89400  0.02580  0.81178  1.0000
  O   O7        1.0  0.27320  0.17850  0.30850  1.0000
  O   O8        1.0  0.72680  0.82150  0.69150  1.0000
  O   O9        1.0  0.60550  0.28980  0.81110  1.0000
  O   O10       1.0  0.39450  0.71020  0.18890  1.0000
  O   O11       1.0  0.50580  0.16710  0.92230  1.0000
  O   O12       1.0  0.49420  0.83290  0.07770  1.0000
  O   O13       1.0  0.25340  0.43540  0.45490  1.0000
  O   O14       1.0  0.74660  0.56460  0.54510  1.0000
  H   H1        1.0  0.25220  0.35040  0.41000  1.0000
  H   H2        1.0  0.74780  0.64960  0.59000  1.0000
  H   H3        1.0  0.30360  0.47800  0.41330  1.0000
  H   H4        1.0  0.69640  0.52200  0.58670  1.0000
  O   O15       1.0  0.16370  0.84600  0.91130  1.0000
  O   O16       1.0  0.83630  0.15400  0.08870  1.0000
  H   H5        1.0  0.16860  0.81750  0.82600  1.0000
  H   H6        1.0  0.83140  0.18250  0.17400  1.0000
  H   H7        1.0  0.27710  0.85280  0.96100  1.0000
  H   H8        1.0  0.72290  0.14720  0.03900  1.0000
  O   O17       1.0  0.21390  0.16390  0.04730  1.0000
  O   O18       1.0  0.78610  0.83610  0.95270  1.0000
  H   H9        1.0  0.30490  0.15010  0.00540  1.0000
  H   H10       1.0  0.69510  0.84990  0.99460  1.0000
  H   H11       1.0  0.26220  0.17690  0.13260  1.0000
  H   H12       1.0  0.73780  0.82310  0.86740  1.0000
  C   C1        1.0  0.19860  0.87200  0.54220  1.0000
  C   C2        1.0  0.80140  0.12800  0.45780  1.0000
  C   C3        1.0  0.16540  0.90580  0.42440  1.0000
  C   C4        1.0  0.83460  0.09420  0.57560  1.0000
  H   H13       1.0  0.09360  0.84280  0.33980  1.0000
  H   H14       1.0  0.90640  0.15720  0.66020  1.0000
  C   C5        1.0  0.23690  0.03150  0.42980  1.0000
  C   C6        1.0  0.76310  0.96850  0.57020  1.0000
  C   C7        1.0  0.34510  0.12440  0.55690  1.0000
  C   C8        1.0  0.65490  0.87560  0.44310  1.0000
  H   H15       1.0  0.39630  0.20840  0.56140  1.0000
  H   H16       1.0  0.60370  0.79160  0.43860  1.0000
  C   C9        1.0  0.37780  0.09390  0.67690  1.0000
  C   C10       1.0  0.62220  0.90610  0.32310  1.0000
  C   C11       1.0  0.30530  0.96730  0.66960  1.0000
  C   C12       1.0  0.69470  0.03270  0.33040  1.0000
  H   H17       1.0  0.32770  0.94590  0.74960  1.0000
  H   H18       1.0  0.67230  0.05410  0.25040  1.0000
  C   C13       1.0  0.12230  0.73390  0.53060  1.0000
  C   C14       1.0  0.87770  0.26610  0.46940  1.0000
  C   C15       1.0  0.20300  0.06520  0.30040  1.0000
  C   C16       1.0  0.79700  0.93480  0.69960  1.0000
  C   C17       1.0  0.50540  0.19140  0.81380  1.0000
  C   C18       1.0  0.49460  0.80860  0.18620  1.0000
