data_image0
_chemical_formula_structural       Zn6O32H12C60H12C12H12C12H12C12H12
_chemical_formula_sum              "Zn6 O32 H60 C96"
_cell_length_a       15.578
_cell_length_b       15.578
_cell_length_c       16.521
_cell_angle_alpha    90
_cell_angle_beta     90
_cell_angle_gamma    120

_space_group_name_H-M_alt    "P 1"
_space_group_IT_number       1

loop_
  _space_group_symop_operation_xyz
  'x, y, z'

loop_
  _atom_site_type_symbol
  _atom_site_label
  _atom_site_symmetry_multiplicity
  _atom_site_fract_x
  _atom_site_fract_y
  _atom_site_fract_z
  _atom_site_occupancy
  Zn  Zn1       1.0  0.74092  0.25908  0.25000  1.0000
  Zn  Zn2       1.0  0.74092  0.48184  0.25000  1.0000
  Zn  Zn3       1.0  0.51816  0.25908  0.25000  1.0000
  Zn  Zn4       1.0  0.25908  0.74092  0.75000  1.0000
  Zn  Zn5       1.0  0.25908  0.51816  0.75000  1.0000
  Zn  Zn6       1.0  0.48184  0.74092  0.75000  1.0000
  O   O1        1.0  0.63983  0.14752  0.32535  1.0000
  O   O2        1.0  0.85248  0.49231  0.32535  1.0000
  O   O3        1.0  0.50769  0.36017  0.32535  1.0000
  O   O4        1.0  0.85248  0.36017  0.17465  1.0000
  O   O5        1.0  0.50769  0.14752  0.17465  1.0000
  O   O6        1.0  0.63983  0.49231  0.17465  1.0000
  O   O7        1.0  0.36017  0.85248  0.67465  1.0000
  O   O8        1.0  0.14752  0.50769  0.67465  1.0000
  O   O9        1.0  0.49231  0.63983  0.67465  1.0000
  O   O10       1.0  0.14752  0.63983  0.82535  1.0000
  O   O11       1.0  0.49231  0.85248  0.82535  1.0000
  O   O12       1.0  0.36017  0.50769  0.82535  1.0000
  O   O13       1.0  0.66670  0.33330  0.25000  1.0000
  O   O14       1.0  0.33330  0.66670  0.75000  1.0000
  O   O15       1.0  0.51865  0.18307  0.35266  1.0000
  O   O16       1.0  0.81693  0.33558  0.35266  1.0000
  O   O17       1.0  0.66442  0.48135  0.35266  1.0000
  O   O18       1.0  0.81693  0.48135  0.14734  1.0000
  O   O19       1.0  0.66442  0.18307  0.14734  1.0000
  O   O20       1.0  0.51865  0.33558  0.14734  1.0000
  O   O21       1.0  0.48135  0.81693  0.64734  1.0000
  O   O22       1.0  0.18307  0.66442  0.64734  1.0000
  O   O23       1.0  0.33558  0.51865  0.64734  1.0000
  O   O24       1.0  0.18307  0.51865  0.85266  1.0000
  O   O25       1.0  0.33558  0.81693  0.85266  1.0000
  O   O26       1.0  0.48135  0.66442  0.85266  1.0000
  O   O27       1.0  0.81912  0.18088  0.25000  1.0000
  O   O28       1.0  0.81912  0.63824  0.25000  1.0000
  O   O29       1.0  0.36176  0.18088  0.25000  1.0000
  O   O30       1.0  0.18088  0.81912  0.75000  1.0000
  O   O31       1.0  0.18088  0.36176  0.75000  1.0000
  O   O32       1.0  0.63824  0.81912  0.75000  1.0000
  H   H1        1.0  0.80590  0.12890  0.27680  1.0000
  H   H2        1.0  0.87110  0.67700  0.27680  1.0000
  H   H3        1.0  0.32300  0.19410  0.27680  1.0000
  H   H4        1.0  0.87110  0.19410  0.22320  1.0000
  H   H5        1.0  0.32300  0.12890  0.22320  1.0000
  H   H6        1.0  0.80590  0.67700  0.22320  1.0000
  H   H7        1.0  0.19410  0.87110  0.72320  1.0000
  H   H8        1.0  0.12890  0.32300  0.72320  1.0000
  H   H9        1.0  0.67700  0.80590  0.72320  1.0000
  H   H10       1.0  0.12890  0.80590  0.77680  1.0000
  H   H11       1.0  0.67700  0.87110  0.77680  1.0000
  H   H12       1.0  0.19410  0.32300  0.77680  1.0000
  C   C1        1.0  0.56650  0.13920  0.36538  1.0000
  C   C2        1.0  0.86080  0.42730  0.36538  1.0000
  C   C3        1.0  0.57270  0.43350  0.36538  1.0000
  C   C4        1.0  0.86080  0.43350  0.13462  1.0000
  C   C5        1.0  0.57270  0.13920  0.13462  1.0000
  C   C6        1.0  0.56650  0.42730  0.13462  1.0000
  C   C7        1.0  0.43350  0.86080  0.63462  1.0000
  C   C8        1.0  0.13920  0.57270  0.63462  1.0000
  C   C9        1.0  0.42730  0.56650  0.63462  1.0000
  C   C10       1.0  0.13920  0.56650  0.86538  1.0000
  C   C11       1.0  0.42730  0.86080  0.86538  1.0000
  C   C12       1.0  0.43350  0.57270  0.86538  1.0000
  C   C13       1.0  0.53310  0.06790  0.43531  1.0000
  C   C14       1.0  0.93210  0.46520  0.43531  1.0000
  C   C15       1.0  0.53480  0.46690  0.43531  1.0000
  C   C16       1.0  0.93210  0.46690  0.06469  1.0000
  C   C17       1.0  0.53480  0.06790  0.06469  1.0000
  C   C18       1.0  0.53310  0.46520  0.06469  1.0000
  C   C19       1.0  0.46690  0.93210  0.56469  1.0000
  C   C20       1.0  0.06790  0.53480  0.56469  1.0000
  C   C21       1.0  0.46520  0.53310  0.56469  1.0000
  C   C22       1.0  0.06790  0.53310  0.93531  1.0000
  C   C23       1.0  0.46520  0.93210  0.93531  1.0000
  C   C24       1.0  0.46690  0.53480  0.93531  1.0000
  C   C25       1.0  0.45090  0.97260  0.42453  1.0000
  C   C26       1.0  0.02740  0.47830  0.42453  1.0000
  C   C27       1.0  0.52170  0.54910  0.42453  1.0000
  C   C28       1.0  0.02740  0.54910  0.07547  1.0000
  C   C29       1.0  0.52170  0.97260  0.07547  1.0000
  C   C30       1.0  0.45090  0.47830  0.07547  1.0000
  C   C31       1.0  0.54910  0.02740  0.57547  1.0000
  C   C32       1.0  0.97260  0.52170  0.57547  1.0000
  C   C33       1.0  0.47830  0.45090  0.57547  1.0000
  C   C34       1.0  0.97260  0.45090  0.92453  1.0000
  C   C35       1.0  0.47830  0.02740  0.92453  1.0000
  C   C36       1.0  0.54910  0.52170  0.92453  1.0000
  C   C37       1.0  0.41760  0.90350  0.49056  1.0000
  C   C38       1.0  0.09650  0.51410  0.49056  1.0000
  C   C39       1.0  0.48590  0.58240  0.49056  1.0000
  C   C40       1.0  0.09650  0.58240  0.00944  1.0000
  C   C41       1.0  0.48590  0.90350  0.00944  1.0000
  C   C42       1.0  0.41760  0.51410  0.00944  1.0000
  C   C43       1.0  0.58240  0.09650  0.50944  1.0000
  C   C44       1.0  0.90350  0.48590  0.50944  1.0000
  C   C45       1.0  0.51410  0.41760  0.50944  1.0000
  C   C46       1.0  0.90350  0.41760  0.99056  1.0000
  C   C47       1.0  0.51410  0.09650  0.99056  1.0000
  C   C48       1.0  0.58240  0.48590  0.99056  1.0000
  C   C49       1.0  0.33300  0.80750  0.47817  1.0000
  C   C50       1.0  0.19250  0.52550  0.47817  1.0000
  C   C51       1.0  0.47450  0.66700  0.47817  1.0000
  C   C52       1.0  0.19250  0.66700  0.02183  1.0000
  C   C53       1.0  0.47450  0.80750  0.02183  1.0000
  C   C54       1.0  0.33300  0.52550  0.02183  1.0000
  C   C55       1.0  0.66700  0.19250  0.52183  1.0000
  C   C56       1.0  0.80750  0.47450  0.52183  1.0000
  C   C57       1.0  0.52550  0.33300  0.52183  1.0000
  C   C58       1.0  0.80750  0.33300  0.97817  1.0000
  C   C59       1.0  0.52550  0.19250  0.97817  1.0000
  C   C60       1.0  0.66700  0.47450  0.97817  1.0000
  H   H13       1.0  0.30800  0.76190  0.52200  1.0000
  H   H14       1.0  0.23810  0.54610  0.52200  1.0000
  H   H15       1.0  0.45390  0.69200  0.52200  1.0000
  H   H16       1.0  0.23810  0.69200  0.97800  1.0000
  H   H17       1.0  0.45390  0.76190  0.97800  1.0000
  H   H18       1.0  0.30800  0.54610  0.97800  1.0000
  H   H19       1.0  0.69200  0.23810  0.47800  1.0000
  H   H20       1.0  0.76190  0.45390  0.47800  1.0000
  H   H21       1.0  0.54610  0.30800  0.47800  1.0000
  H   H22       1.0  0.76190  0.30800  0.02200  1.0000
  H   H23       1.0  0.54610  0.23810  0.02200  1.0000
  H   H24       1.0  0.69200  0.45390  0.02200  1.0000
  C   C61       1.0  0.28800  0.78030  0.40520  1.0000
  C   C62       1.0  0.21970  0.50770  0.40520  1.0000
  C   C63       1.0  0.49230  0.71200  0.40520  1.0000
  C   C64       1.0  0.21970  0.71200  0.09480  1.0000
  C   C65       1.0  0.49230  0.78030  0.09480  1.0000
  C   C66       1.0  0.28800  0.50770  0.09480  1.0000
  C   C67       1.0  0.71200  0.21970  0.59480  1.0000
  C   C68       1.0  0.78030  0.49230  0.59480  1.0000
  C   C69       1.0  0.50770  0.28800  0.59480  1.0000
  C   C70       1.0  0.78030  0.28800  0.90520  1.0000
  C   C71       1.0  0.50770  0.21970  0.90520  1.0000
  C   C72       1.0  0.71200  0.49230  0.90520  1.0000
  H   H25       1.0  0.23360  0.71520  0.39760  1.0000
  H   H26       1.0  0.28480  0.51840  0.39760  1.0000
  H   H27       1.0  0.48160  0.76640  0.39760  1.0000
  H   H28       1.0  0.28480  0.76640  0.10240  1.0000
  H   H29       1.0  0.48160  0.71520  0.10240  1.0000
  H   H30       1.0  0.23360  0.51840  0.10240  1.0000
  H   H31       1.0  0.76640  0.28480  0.60240  1.0000
  H   H32       1.0  0.71520  0.48160  0.60240  1.0000
  H   H33       1.0  0.51840  0.23360  0.60240  1.0000
  H   H34       1.0  0.71520  0.23360  0.89760  1.0000
  H   H35       1.0  0.51840  0.28480  0.89760  1.0000
  H   H36       1.0  0.76640  0.48160  0.89760  1.0000
  C   C73       1.0  0.32210  0.84950  0.33930  1.0000
  C   C74       1.0  0.15050  0.47260  0.33930  1.0000
  C   C75       1.0  0.52740  0.67790  0.33930  1.0000
  C   C76       1.0  0.15050  0.67790  0.16070  1.0000
  C   C77       1.0  0.52740  0.84950  0.16070  1.0000
  C   C78       1.0  0.32210  0.47260  0.16070  1.0000
  C   C79       1.0  0.67790  0.15050  0.66070  1.0000
  C   C80       1.0  0.84950  0.52740  0.66070  1.0000
  C   C81       1.0  0.47260  0.32210  0.66070  1.0000
  C   C82       1.0  0.84950  0.32210  0.83930  1.0000
  C   C83       1.0  0.47260  0.15050  0.83930  1.0000
  C   C84       1.0  0.67790  0.52740  0.83930  1.0000
  H   H37       1.0  0.28940  0.83050  0.28850  1.0000
  H   H38       1.0  0.16950  0.45890  0.28850  1.0000
  H   H39       1.0  0.54110  0.71060  0.28850  1.0000
  H   H40       1.0  0.16950  0.71060  0.21150  1.0000
  H   H41       1.0  0.54110  0.83050  0.21150  1.0000
  H   H42       1.0  0.28940  0.45890  0.21150  1.0000
  H   H43       1.0  0.71060  0.16950  0.71150  1.0000
  H   H44       1.0  0.83050  0.54110  0.71150  1.0000
  H   H45       1.0  0.45890  0.28940  0.71150  1.0000
  H   H46       1.0  0.83050  0.28940  0.78850  1.0000
  H   H47       1.0  0.45890  0.16950  0.78850  1.0000
  H   H48       1.0  0.71060  0.54110  0.78850  1.0000
  C   C85       1.0  0.40050  0.94170  0.34930  1.0000
  C   C86       1.0  0.05830  0.45880  0.34930  1.0000
  C   C87       1.0  0.54120  0.59950  0.34930  1.0000
  C   C88       1.0  0.05830  0.59950  0.15070  1.0000
  C   C89       1.0  0.54120  0.94170  0.15070  1.0000
  C   C90       1.0  0.40050  0.45880  0.15070  1.0000
  C   C91       1.0  0.59950  0.05830  0.65070  1.0000
  C   C92       1.0  0.94170  0.54120  0.65070  1.0000
  C   C93       1.0  0.45880  0.40050  0.65070  1.0000
  C   C94       1.0  0.94170  0.40050  0.84930  1.0000
  C   C95       1.0  0.45880  0.05830  0.84930  1.0000
  C   C96       1.0  0.59950  0.54120  0.84930  1.0000
  H   H49       1.0  0.42240  0.98670  0.30500  1.0000
  H   H50       1.0  0.01330  0.43570  0.30500  1.0000
  H   H51       1.0  0.56430  0.57760  0.30500  1.0000
  H   H52       1.0  0.01330  0.57760  0.19500  1.0000
  H   H53       1.0  0.56430  0.98670  0.19500  1.0000
  H   H54       1.0  0.42240  0.43570  0.19500  1.0000
  H   H55       1.0  0.57760  0.01330  0.69500  1.0000
  H   H56       1.0  0.98670  0.56430  0.69500  1.0000
  H   H57       1.0  0.43570  0.42240  0.69500  1.0000
  H   H58       1.0  0.98670  0.42240  0.80500  1.0000
  H   H59       1.0  0.43570  0.01330  0.80500  1.0000
  H   H60       1.0  0.57760  0.56430  0.80500  1.0000
