data_image0
_chemical_formula_structural       N20Cd8N8C32N12C8N32C8
_chemical_formula_sum              "N72 Cd8 C48"
_cell_length_a       17.056
_cell_length_b       16.624
_cell_length_c       17.063
_cell_angle_alpha    90
_cell_angle_beta     90
_cell_angle_gamma    90

_space_group_name_H-M_alt    "P 1"
_space_group_IT_number       1

loop_
  _space_group_symop_operation_xyz
  'x, y, z'

loop_
  _atom_site_type_symbol
  _atom_site_label
  _atom_site_symmetry_multiplicity
  _atom_site_fract_x
  _atom_site_fract_y
  _atom_site_fract_z
  _atom_site_occupancy
  N   N1        1.0  0.00000  0.50000  0.50000  1.0000
  N   N2        1.0  0.00000  0.00000  0.00000  1.0000
  N   N3        1.0  0.50000  0.00000  0.50000  1.0000
  N   N4        1.0  0.50000  0.50000  0.00000  1.0000
  N   N5        1.0  0.25000  0.25000  0.50000  1.0000
  N   N6        1.0  0.75000  0.25000  0.00000  1.0000
  N   N7        1.0  0.75000  0.75000  0.00000  1.0000
  N   N8        1.0  0.25000  0.75000  0.50000  1.0000
  N   N9        1.0  0.75000  0.75000  0.50000  1.0000
  N   N10       1.0  0.25000  0.75000  0.00000  1.0000
  N   N11       1.0  0.25000  0.25000  0.00000  1.0000
  N   N12       1.0  0.75000  0.25000  0.50000  1.0000
  N   N13       1.0  0.00000  0.32770  0.28380  1.0000
  N   N14       1.0  0.00000  0.17230  0.78380  1.0000
  N   N15       1.0  0.00000  0.82770  0.21620  1.0000
  N   N16       1.0  0.00000  0.67230  0.71620  1.0000
  N   N17       1.0  0.50000  0.82770  0.28380  1.0000
  N   N18       1.0  0.50000  0.67230  0.78380  1.0000
  N   N19       1.0  0.50000  0.32770  0.21620  1.0000
  N   N20       1.0  0.50000  0.17230  0.71620  1.0000
  Cd  Cd1       1.0  0.00000  0.25298  0.55016  1.0000
  Cd  Cd2       1.0  0.00000  0.24702  0.05016  1.0000
  Cd  Cd3       1.0  0.00000  0.75298  0.94984  1.0000
  Cd  Cd4       1.0  0.00000  0.74702  0.44984  1.0000
  Cd  Cd5       1.0  0.50000  0.75298  0.55016  1.0000
  Cd  Cd6       1.0  0.50000  0.74702  0.05016  1.0000
  Cd  Cd7       1.0  0.50000  0.25298  0.94984  1.0000
  Cd  Cd8       1.0  0.50000  0.24702  0.44984  1.0000
  N   N21       1.0  0.00000  0.13540  0.47420  1.0000
  N   N22       1.0  0.00000  0.36460  0.97420  1.0000
  N   N23       1.0  0.00000  0.63540  0.02580  1.0000
  N   N24       1.0  0.00000  0.86460  0.52580  1.0000
  N   N25       1.0  0.50000  0.63540  0.47420  1.0000
  N   N26       1.0  0.50000  0.86460  0.97420  1.0000
  N   N27       1.0  0.50000  0.13540  0.02580  1.0000
  N   N28       1.0  0.50000  0.36460  0.52580  1.0000
  C   C1        1.0  0.19780  0.24690  0.55610  1.0000
  C   C2        1.0  0.80220  0.25310  0.05610  1.0000
  C   C3        1.0  0.80220  0.74690  0.94390  1.0000
  C   C4        1.0  0.19780  0.75310  0.44390  1.0000
  C   C5        1.0  0.69780  0.74690  0.55610  1.0000
  C   C6        1.0  0.30220  0.75310  0.05610  1.0000
  C   C7        1.0  0.30220  0.24690  0.94390  1.0000
  C   C8        1.0  0.69780  0.25310  0.44390  1.0000
  C   C9        1.0  0.80220  0.75310  0.44390  1.0000
  C   C10       1.0  0.19780  0.74690  0.94390  1.0000
  C   C11       1.0  0.19780  0.25310  0.05610  1.0000
  C   C12       1.0  0.80220  0.24690  0.55610  1.0000
  C   C13       1.0  0.30220  0.25310  0.44390  1.0000
  C   C14       1.0  0.69780  0.24690  0.94390  1.0000
  C   C15       1.0  0.69780  0.75310  0.05610  1.0000
  C   C16       1.0  0.30220  0.74690  0.55610  1.0000
  C   C17       1.0  0.00000  0.31310  0.35920  1.0000
  C   C18       1.0  0.00000  0.18690  0.85920  1.0000
  C   C19       1.0  0.00000  0.81310  0.14080  1.0000
  C   C20       1.0  0.00000  0.68690  0.64080  1.0000
  C   C21       1.0  0.50000  0.81310  0.35920  1.0000
  C   C22       1.0  0.50000  0.68690  0.85920  1.0000
  C   C23       1.0  0.50000  0.31310  0.14080  1.0000
  C   C24       1.0  0.50000  0.18690  0.64080  1.0000
  C   C25       1.0  0.00000  0.06620  0.47170  1.0000
  C   C26       1.0  0.00000  0.43380  0.97170  1.0000
  C   C27       1.0  0.00000  0.56620  0.02830  1.0000
  C   C28       1.0  0.00000  0.93380  0.52830  1.0000
  C   C29       1.0  0.50000  0.56620  0.47170  1.0000
  C   C30       1.0  0.50000  0.93380  0.97170  1.0000
  C   C31       1.0  0.50000  0.06620  0.02830  1.0000
  C   C32       1.0  0.50000  0.43380  0.52830  1.0000
  N   N29       1.0  0.00000  0.00000  0.50000  1.0000
  N   N30       1.0  0.00000  0.50000  0.00000  1.0000
  N   N31       1.0  0.50000  0.50000  0.50000  1.0000
  N   N32       1.0  0.50000  0.00000  0.00000  1.0000
  N   N33       1.0  0.00000  0.32090  0.42540  1.0000
  N   N34       1.0  0.00000  0.17910  0.92540  1.0000
  N   N35       1.0  0.00000  0.82090  0.07460  1.0000
  N   N36       1.0  0.00000  0.67910  0.57460  1.0000
  N   N37       1.0  0.50000  0.82090  0.42540  1.0000
  N   N38       1.0  0.50000  0.67910  0.92540  1.0000
  N   N39       1.0  0.50000  0.32090  0.07460  1.0000
  N   N40       1.0  0.50000  0.17910  0.57460  1.0000
  C   C33       1.0  0.00000  0.27690  0.22590  1.0000
  C   C34       1.0  0.00000  0.22310  0.72590  1.0000
  C   C35       1.0  0.00000  0.77690  0.27410  1.0000
  C   C36       1.0  0.00000  0.72310  0.77410  1.0000
  C   C37       1.0  0.50000  0.77690  0.22590  1.0000
  C   C38       1.0  0.50000  0.72310  0.72590  1.0000
  C   C39       1.0  0.50000  0.27690  0.27410  1.0000
  C   C40       1.0  0.50000  0.22310  0.77410  1.0000
  N   N41       1.0  0.13000  0.25320  0.56120  1.0000
  N   N42       1.0  0.87000  0.24680  0.06120  1.0000
  N   N43       1.0  0.87000  0.75320  0.93880  1.0000
  N   N44       1.0  0.13000  0.74680  0.43880  1.0000
  N   N45       1.0  0.63000  0.75320  0.56120  1.0000
  N   N46       1.0  0.37000  0.74680  0.06120  1.0000
  N   N47       1.0  0.37000  0.25320  0.93880  1.0000
  N   N48       1.0  0.63000  0.24680  0.43880  1.0000
  N   N49       1.0  0.87000  0.74680  0.43880  1.0000
  N   N50       1.0  0.13000  0.75320  0.93880  1.0000
  N   N51       1.0  0.13000  0.24680  0.06120  1.0000
  N   N52       1.0  0.87000  0.25320  0.56120  1.0000
  N   N53       1.0  0.37000  0.24680  0.43880  1.0000
  N   N54       1.0  0.63000  0.25320  0.93880  1.0000
  N   N55       1.0  0.63000  0.74680  0.06120  1.0000
  N   N56       1.0  0.37000  0.75320  0.56120  1.0000
  N   N57       1.0  0.00000  0.39290  0.59930  1.0000
  N   N58       1.0  0.00000  0.10710  0.09930  1.0000
  N   N59       1.0  0.00000  0.89290  0.90070  1.0000
  N   N60       1.0  0.00000  0.60710  0.40070  1.0000
  N   N61       1.0  0.50000  0.89290  0.59930  1.0000
  N   N62       1.0  0.50000  0.60710  0.09930  1.0000
  N   N63       1.0  0.50000  0.39290  0.90070  1.0000
  N   N64       1.0  0.50000  0.10710  0.40070  1.0000
  N   N65       1.0  0.00000  0.24010  0.17000  1.0000
  N   N66       1.0  0.00000  0.25990  0.67000  1.0000
  N   N67       1.0  0.00000  0.74010  0.33000  1.0000
  N   N68       1.0  0.00000  0.75990  0.83000  1.0000
  N   N69       1.0  0.50000  0.74010  0.17000  1.0000
  N   N70       1.0  0.50000  0.75990  0.67000  1.0000
  N   N71       1.0  0.50000  0.24010  0.33000  1.0000
  N   N72       1.0  0.50000  0.25990  0.83000  1.0000
  C   C41       1.0  0.00000  0.45520  0.56560  1.0000
  C   C42       1.0  0.00000  0.04480  0.06560  1.0000
  C   C43       1.0  0.00000  0.95520  0.93440  1.0000
  C   C44       1.0  0.00000  0.54480  0.43440  1.0000
  C   C45       1.0  0.50000  0.95520  0.56560  1.0000
  C   C46       1.0  0.50000  0.54480  0.06560  1.0000
  C   C47       1.0  0.50000  0.45520  0.93440  1.0000
  C   C48       1.0  0.50000  0.04480  0.43440  1.0000
