data_image0
_chemical_formula_structural       W18P2Cu7O68N2H4N2H4N2H4N2H4N2H6N2H4N2H6N2H4C2H4C2H4C2H4C2H4C2H4C2H4C2H4C2H4C2H4C2H4C2H4C2H4
_chemical_formula_sum              "W18 P2 Cu7 O68 N16 H84 C24"
_cell_length_a       11.9415
_cell_length_b       13.7404
_cell_length_c       17.7185
_cell_angle_alpha    90.518
_cell_angle_beta     93.628
_cell_angle_gamma    113.523

_space_group_name_H-M_alt    "P 1"
_space_group_IT_number       1

loop_
  _space_group_symop_operation_xyz
  'x, y, z'

loop_
  _atom_site_type_symbol
  _atom_site_label
  _atom_site_symmetry_multiplicity
  _atom_site_fract_x
  _atom_site_fract_y
  _atom_site_fract_z
  _atom_site_occupancy
  W   W1        1.0  0.09537  0.51838  0.67881  1.0000
  W   W2        1.0  0.90463  0.48162  0.32119  1.0000
  W   W3        1.0  0.29446  0.73950  0.59318  1.0000
  W   W4        1.0  0.70554  0.26050  0.40682  1.0000
  W   W5        1.0  0.26584  0.00268  0.60743  1.0000
  W   W6        1.0  0.73416  0.99732  0.39257  1.0000
  W   W7        1.0  0.03514  0.02073  0.70230  1.0000
  W   W8        1.0  0.96486  0.97927  0.29770  1.0000
  W   W9        1.0  0.80605  0.77577  0.79087  1.0000
  W   W10       1.0  0.19395  0.22423  0.20913  1.0000
  W   W11       1.0  0.83544  0.53637  0.78434  1.0000
  W   W12       1.0  0.16456  0.46363  0.21566  1.0000
  W   W13       1.0  0.17605  0.67485  0.86647  1.0000
  W   W14       1.0  0.82395  0.32515  0.13353  1.0000
  W   W15       1.0  0.37732  0.89948  0.78070  1.0000
  W   W16       1.0  0.62268  0.10052  0.21930  1.0000
  W   W17       1.0  0.14736  0.92106  0.87954  1.0000
  W   W18       1.0  0.85264  0.07894  0.12046  1.0000
  P   P1        1.0  0.06480  0.77040  0.70252  1.0000
  P   P2        1.0  0.93520  0.22960  0.29748  1.0000
  Cu  Cu1       1.0  0.99539  0.61288  0.52377  1.0000
  Cu  Cu2       1.0  0.00461  0.38712  0.47623  1.0000
  Cu  Cu3       1.0  1.00000  1.00000  0.50000  1.0000
  Cu  Cu4       1.0  0.95960  0.71629  0.94632  1.0000
  Cu  Cu5       1.0  0.04040  0.28371  0.05368  1.0000
  Cu  Cu6       1.0  0.58930  0.31680  0.68263  1.0000
  Cu  Cu7       1.0  0.41070  0.68320  0.31737  1.0000
  O   O1        1.0  0.10880  0.39770  0.69390  1.0000
  O   O2        1.0  0.89120  0.60230  0.30610  1.0000
  O   O3        1.0  0.25990  0.60460  0.64190  1.0000
  O   O4        1.0  0.74010  0.39540  0.35810  1.0000
  O   O5        1.0  0.94770  0.49820  0.72770  1.0000
  O   O6        1.0  0.05230  0.50180  0.27230  1.0000
  O   O7        1.0  0.17730  0.59650  0.78080  1.0000
  O   O8        1.0  0.82270  0.40350  0.21920  1.0000
  O   O9        1.0  0.02260  0.49700  0.58170  1.0000
  O   O10       1.0  0.97740  0.50300  0.41830  1.0000
  O   O11       1.0  0.10220  0.69550  0.65350  1.0000
  O   O12       1.0  0.89780  0.30450  0.34650  1.0000
  O   O13       1.0  0.43230  0.75660  0.55450  1.0000
  O   O14       1.0  0.56770  0.24340  0.44550  1.0000
  O   O15       1.0  0.29180  0.87850  0.57940  1.0000
  O   O16       1.0  0.70820  0.12150  0.42060  1.0000
  O   O17       1.0  0.36570  0.80430  0.69890  1.0000
  O   O18       1.0  0.63430  0.19570  0.30110  1.0000
  O   O19       1.0  0.18070  0.68020  0.51290  1.0000
  O   O20       1.0  0.81930  0.31980  0.48710  1.0000
  O   O21       1.0  0.39280  0.10520  0.57430  1.0000
  O   O22       1.0  0.60720  0.89480  0.42570  1.0000
  O   O23       1.0  0.20010  0.08740  0.66700  1.0000
  O   O24       1.0  0.79990  0.91260  0.33300  1.0000
  O   O25       1.0  0.34630  0.98940  0.71160  1.0000
  O   O26       1.0  0.65370  0.01060  0.28840  1.0000
  O   O27       1.0  0.15080  0.98400  0.52750  1.0000
  O   O28       1.0  0.84920  0.01600  0.47250  1.0000
  O   O29       1.0  0.08340  0.87430  0.66190  1.0000
  O   O30       1.0  0.91660  0.12570  0.33810  1.0000
  O   O31       1.0  0.01480  0.13130  0.73360  1.0000
  O   O32       1.0  0.98520  0.86870  0.26640  1.0000
  O   O33       1.0  0.89780  0.90840  0.74470  1.0000
  O   O34       1.0  0.10220  0.09160  0.25530  1.0000
  O   O35       1.0  0.12660  0.00370  0.80190  1.0000
  O   O36       1.0  0.87340  0.99630  0.19810  1.0000
  O   O37       1.0  0.96100  0.00010  0.60500  1.0000
  O   O38       1.0  0.03900  0.99990  0.39500  1.0000
  O   O39       1.0  0.72660  0.81360  0.85800  1.0000
  O   O40       1.0  0.27340  0.18640  0.14200  1.0000
  O   O41       1.0  0.78230  0.63840  0.83430  1.0000
  O   O42       1.0  0.21770  0.36160  0.16570  1.0000
  O   O43       1.0  0.69360  0.72800  0.71250  1.0000
  O   O44       1.0  0.30640  0.27200  0.28750  1.0000
  O   O45       1.0  0.97400  0.82770  0.86760  1.0000
  O   O46       1.0  0.02600  0.17230  0.13240  1.0000
  O   O47       1.0  0.93090  0.71080  0.72370  1.0000
  O   O48       1.0  0.06910  0.28920  0.27630  1.0000
  O   O49       1.0  0.77750  0.43000  0.84660  1.0000
  O   O50       1.0  0.22250  0.57000  0.15340  1.0000
  O   O51       1.0  0.71840  0.49420  0.70740  1.0000
  O   O52       1.0  0.28160  0.50580  0.29260  1.0000
  O   O53       1.0  0.00110  0.61850  0.85730  1.0000
  O   O54       1.0  0.99890  0.38150  0.14270  1.0000
  O   O55       1.0  0.20320  0.60140  0.94060  1.0000
  O   O56       1.0  0.79680  0.39860  0.05940  1.0000
  O   O57       1.0  0.34420  0.77660  0.85080  1.0000
  O   O58       1.0  0.65580  0.22340  0.14920  1.0000
  O   O59       1.0  0.16290  0.79230  0.92850  1.0000
  O   O60       1.0  0.83710  0.20770  0.07150  1.0000
  O   O61       1.0  0.15650  0.80290  0.77810  1.0000
  O   O62       1.0  0.84350  0.19710  0.22190  1.0000
  O   O63       1.0  0.53470  0.96110  0.80170  1.0000
  O   O64       1.0  0.46530  0.03890  0.19830  1.0000
  O   O65       1.0  0.32250  0.96150  0.86360  1.0000
  O   O66       1.0  0.67750  0.03850  0.13640  1.0000
  O   O67       1.0  0.15900  0.99520  0.96270  1.0000
  O   O68       1.0  0.84100  0.00480  0.03730  1.0000
  N   N1        1.0  0.97410  0.73100  0.46840  1.0000
  N   N2        1.0  0.02590  0.26900  0.53160  1.0000
  H   H1        1.0  0.03720  0.79180  0.48400  1.0000
  H   H2        1.0  0.96280  0.20820  0.51600  1.0000
  H   H3        1.0  0.98100  0.72060  0.41900  1.0000
  H   H4        1.0  0.01900  0.27940  0.58100  1.0000
  N   N3        1.0  0.81590  0.53640  0.54940  1.0000
  N   N4        1.0  0.18410  0.46360  0.45060  1.0000
  H   H5        1.0  0.78890  0.47110  0.52710  1.0000
  H   H6        1.0  0.21110  0.52890  0.47290  1.0000
  H   H7        1.0  0.81830  0.52710  0.59960  1.0000
  H   H8        1.0  0.18170  0.47290  0.40040  1.0000
  N   N5        1.0  0.84500  0.75680  0.00360  1.0000
  N   N6        1.0  0.15500  0.24320  0.99640  1.0000
  H   H9        1.0  0.84300  0.81590  0.98320  1.0000
  H   H10       1.0  0.15700  0.18410  0.01680  1.0000
  H   H11       1.0  0.76970  0.70500  0.99440  1.0000
  H   H12       1.0  0.23030  0.29500  0.00560  1.0000
  N   N7        1.0  0.98190  0.62260  0.02770  1.0000
  N   N8        1.0  0.01810  0.37740  0.97230  1.0000
  H   H13       1.0  0.91740  0.55950  0.02300  1.0000
  H   H14       1.0  0.08260  0.44050  0.97700  1.0000
  H   H15       1.0  0.04910  0.61080  0.01930  1.0000
  H   H16       1.0  0.95090  0.38920  0.98070  1.0000
  N   N9        1.0  0.45240  0.65150  0.76520  1.0000
  N   N10       1.0  0.54760  0.34850  0.23480  1.0000
  H   H17       1.0  0.45620  0.70010  0.79990  1.0000
  H   H18       1.0  0.54380  0.29990  0.20010  1.0000
  H   H19       1.0  0.38990  0.64070  0.73130  1.0000
  H   H20       1.0  0.61010  0.35930  0.26870  1.0000
  H   H21       1.0  0.52190  0.67410  0.74200  1.0000
  H   H22       1.0  0.47810  0.32590  0.25800  1.0000
  N   N11       1.0  0.42760  0.29050  0.72170  1.0000
  N   N12       1.0  0.57240  0.70950  0.27830  1.0000
  H   H23       1.0  0.37480  0.28670  0.68210  1.0000
  H   H24       1.0  0.62520  0.71330  0.31790  1.0000
  H   H25       1.0  0.39990  0.22660  0.74290  1.0000
  H   H26       1.0  0.60010  0.77340  0.25710  1.0000
  N   N13       1.0  0.69080  0.89510  0.59790  1.0000
  N   N14       1.0  0.30920  0.10490  0.40210  1.0000
  H   H27       1.0  0.68000  0.83450  0.62010  1.0000
  H   H28       1.0  0.32000  0.16550  0.37990  1.0000
  H   H29       1.0  0.76730  0.92560  0.58430  1.0000
  H   H30       1.0  0.23270  0.07440  0.41570  1.0000
  H   H31       1.0  0.63890  0.88180  0.55700  1.0000
  H   H32       1.0  0.36110  0.11820  0.44300  1.0000
  N   N15       1.0  0.67900  0.25020  0.63560  1.0000
  N   N16       1.0  0.32100  0.74980  0.36440  1.0000
  H   H33       1.0  0.64530  0.22960  0.58820  1.0000
  H   H34       1.0  0.35470  0.77040  0.41180  1.0000
  H   H35       1.0  0.75570  0.29900  0.63180  1.0000
  H   H36       1.0  0.24430  0.70100  0.36820  1.0000
  C   C1        1.0  0.85830  0.74810  0.47470  1.0000
  C   C2        1.0  0.14170  0.25190  0.52530  1.0000
  H   H37       1.0  0.87120  0.79470  0.51880  1.0000
  H   H38       1.0  0.12880  0.20530  0.48120  1.0000
  H   H39       1.0  0.84910  0.78690  0.43100  1.0000
  H   H40       1.0  0.15090  0.21310  0.56900  1.0000
  C   C3        1.0  0.74700  0.66300  0.48010  1.0000
  C   C4        1.0  0.25300  0.33700  0.51990  1.0000
  H   H41       1.0  0.72580  0.62880  0.43000  1.0000
  H   H42       1.0  0.27420  0.37120  0.57000  1.0000
  H   H43       1.0  0.68880  0.69380  0.48790  1.0000
  H   H44       1.0  0.31120  0.30620  0.51210  1.0000
  C   C5        1.0  0.71780  0.57470  0.53280  1.0000
  C   C6        1.0  0.28220  0.42530  0.46720  1.0000
  H   H45       1.0  0.64530  0.51560  0.51170  1.0000
  H   H46       1.0  0.35470  0.48440  0.48830  1.0000
  H   H47       1.0  0.69770  0.59770  0.58010  1.0000
  H   H48       1.0  0.30230  0.40230  0.41990  1.0000
  C   C7        1.0  0.86700  0.77740  0.08940  1.0000
  C   C8        1.0  0.13300  0.22260  0.91060  1.0000
  H   H49       1.0  0.79800  0.78680  0.10900  1.0000
  H   H50       1.0  0.20200  0.21320  0.89100  1.0000
  H   H51       1.0  0.93970  0.84200  0.10080  1.0000
  H   H52       1.0  0.06030  0.15800  0.89920  1.0000
  C   C9        1.0  0.88450  0.68110  0.12840  1.0000
  C   C10       1.0  0.11550  0.31890  0.87160  1.0000
  H   H53       1.0  0.89030  0.69270  0.18280  1.0000
  H   H54       1.0  0.10970  0.30730  0.81720  1.0000
  H   H55       1.0  0.81230  0.61690  0.11520  1.0000
  H   H56       1.0  0.18770  0.38310  0.88480  1.0000
  C   C11       1.0  0.99460  0.66420  0.10720  1.0000
  C   C12       1.0  0.00540  0.33580  0.89280  1.0000
  H   H57       1.0  0.00820  0.61450  0.14120  1.0000
  H   H58       1.0  0.99180  0.38550  0.85880  1.0000
  H   H59       1.0  0.06570  0.73110  0.11340  1.0000
  H   H60       1.0  0.93430  0.26890  0.88660  1.0000
  C   C13       1.0  0.43450  0.55000  0.80250  1.0000
  C   C14       1.0  0.56550  0.45000  0.19750  1.0000
  H   H61       1.0  0.35790  0.52370  0.82680  1.0000
  H   H62       1.0  0.64210  0.47630  0.17320  1.0000
  H   H63       1.0  0.50070  0.56150  0.84080  1.0000
  H   H64       1.0  0.49930  0.43850  0.15920  1.0000
  C   C15       1.0  0.43230  0.46630  0.73950  1.0000
  C   C16       1.0  0.56770  0.53370  0.26050  1.0000
  H   H65       1.0  0.36220  0.45060  0.70340  1.0000
  H   H66       1.0  0.63780  0.54940  0.29660  1.0000
  H   H67       1.0  0.50610  0.49510  0.71240  1.0000
  H   H68       1.0  0.49390  0.50490  0.28760  1.0000
  C   C17       1.0  0.42500  0.36900  0.77700  1.0000
  C   C18       1.0  0.57500  0.63100  0.22300  1.0000
  H   H69       1.0  0.49310  0.38560  0.81470  1.0000
  H   H70       1.0  0.50690  0.61440  0.18530  1.0000
  H   H71       1.0  0.34960  0.33910  0.80260  1.0000
  H   H72       1.0  0.65040  0.66090  0.19740  1.0000
  C   C19       1.0  0.66810  0.96580  0.65030  1.0000
  C   C20       1.0  0.33190  0.03420  0.34970  1.0000
  H   H73       1.0  0.72250  0.97740  0.69560  1.0000
  H   H74       1.0  0.27750  0.02260  0.30440  1.0000
  H   H75       1.0  0.58470  0.93190  0.66480  1.0000
  H   H76       1.0  0.41530  0.06810  0.33520  1.0000
  C   C21       1.0  0.68700  0.07120  0.61780  1.0000
  C   C22       1.0  0.31300  0.92880  0.38220  1.0000
  H   H77       1.0  0.62260  0.05990  0.57820  1.0000
  H   H78       1.0  0.37740  0.94010  0.42180  1.0000
  H   H79       1.0  0.76410  0.09780  0.59430  1.0000
  H   H80       1.0  0.23590  0.90220  0.40570  1.0000
  C   C23       1.0  0.68800  0.15600  0.67300  1.0000
  C   C24       1.0  0.31200  0.84400  0.32700  1.0000
  H   H81       1.0  0.61920  0.12580  0.70440  1.0000
  H   H82       1.0  0.38080  0.87420  0.29560  1.0000
  H   H83       1.0  0.76230  0.18020  0.70590  1.0000
  H   H84       1.0  0.23770  0.81980  0.29410  1.0000
