data_image0
_chemical_formula_structural       Mo6AgMo2Ag2C2O26N4C2H2C2N4C2H2C2H2C10H2C2H2C2H2C2H2C2H2C2H2C2H2C2H2C2H2C2H2C2H2C2H2C2H2
_chemical_formula_sum              "Mo8 Ag3 C44 O26 N8 H32"
_cell_length_a       10.132
_cell_length_b       12.106
_cell_length_c       13.283
_cell_angle_alpha    114.43
_cell_angle_beta     107.76
_cell_angle_gamma    90.76

_space_group_name_H-M_alt    "P 1"
_space_group_IT_number       1

loop_
  _space_group_symop_operation_xyz
  'x, y, z'

loop_
  _atom_site_type_symbol
  _atom_site_label
  _atom_site_symmetry_multiplicity
  _atom_site_fract_x
  _atom_site_fract_y
  _atom_site_fract_z
  _atom_site_occupancy
  Mo  Mo1       1.0  0.80799  0.16122  0.76082  1.0000
  Mo  Mo2       1.0  0.19201  0.83878  0.23918  1.0000
  Mo  Mo3       1.0  0.66591  0.21246  0.53233  1.0000
  Mo  Mo4       1.0  0.33409  0.78754  0.46767  1.0000
  Mo  Mo5       1.0  0.44928  0.07544  0.62540  1.0000
  Mo  Mo6       1.0  0.55072  0.92456  0.37460  1.0000
  Ag  Ag1       1.0  0.50000  0.50000  0.50000  1.0000
  Mo  Mo7       1.0  0.30877  0.13252  0.40369  1.0000
  Mo  Mo8       1.0  0.69123  0.86748  0.59631  1.0000
  Ag  Ag2       1.0  0.48706  0.30224  0.93099  1.0000
  Ag  Ag3       1.0  0.51294  0.69776  0.06901  1.0000
  C   C1        1.0  0.58160  0.19790  0.12090  1.0000
  C   C2        1.0  0.41840  0.80210  0.87910  1.0000
  O   O1        1.0  0.30020  0.09280  0.65920  1.0000
  O   O2        1.0  0.69980  0.90720  0.34080  1.0000
  O   O3        1.0  0.45400  0.19610  0.56440  1.0000
  O   O4        1.0  0.54600  0.80390  0.43560  1.0000
  O   O5        1.0  0.63550  0.34270  0.51600  1.0000
  O   O6        1.0  0.36450  0.65730  0.48400  1.0000
  O   O7        1.0  0.32850  0.25540  0.37510  1.0000
  O   O8        1.0  0.67150  0.74460  0.62490  1.0000
  O   O9        1.0  0.58410  0.15830  0.76070  1.0000
  O   O10       1.0  0.41590  0.84170  0.23930  1.0000
  O   O11       1.0  0.81040  0.17580  0.49270  1.0000
  O   O12       1.0  0.18960  0.82420  0.50730  1.0000
  O   O13       1.0  0.52540  0.08680  0.38280  1.0000
  O   O14       1.0  0.47460  0.91320  0.61720  1.0000
  O   O15       1.0  0.95240  0.13870  0.71920  1.0000
  O   O16       1.0  0.04760  0.86130  0.28080  1.0000
  O   O17       1.0  0.16410  0.14460  0.44380  1.0000
  O   O18       1.0  0.83590  0.85540  0.55620  1.0000
  O   O19       1.0  0.64250  0.03740  0.55950  1.0000
  O   O20       1.0  0.35750  0.96260  0.44050  1.0000
  O   O21       1.0  0.76380  0.99950  0.74830  1.0000
  O   O22       1.0  0.23620  0.00050  0.25170  1.0000
  O   O23       1.0  0.74200  0.27480  0.69710  1.0000
  O   O24       1.0  0.25800  0.72520  0.30290  1.0000
  O   O25       1.0  0.87210  0.24970  0.90790  1.0000
  O   O26       1.0  0.12790  0.75030  0.09210  1.0000
  N   N1        1.0  0.46930  0.41740  0.83570  1.0000
  N   N2        1.0  0.53070  0.58260  0.16430  1.0000
  N   N3        1.0  0.47520  0.51080  0.67500  1.0000
  N   N4        1.0  0.52480  0.48920  0.32500  1.0000
  C   C3        1.0  0.35680  0.07710  0.08910  1.0000
  C   C4        1.0  0.64320  0.92290  0.91090  1.0000
  H   H1        1.0  0.40260  0.05990  0.15190  1.0000
  H   H2        1.0  0.59740  0.94010  0.84810  1.0000
  C   C5        1.0  0.42930  0.14870  0.05910  1.0000
  C   C6        1.0  0.57070  0.85130  0.94090  1.0000
  N   N5        1.0  0.36330  0.17340  0.96720  1.0000
  N   N6        1.0  0.63670  0.82660  0.03280  1.0000
  N   N7        1.0  0.64120  0.26500  0.08320  1.0000
  N   N8        1.0  0.35880  0.73500  0.91680  1.0000
  C   C7        1.0  0.66000  0.17240  0.21320  1.0000
  C   C8        1.0  0.34000  0.82760  0.78680  1.0000
  H   H3        1.0  0.61680  0.12700  0.23970  1.0000
  H   H4        1.0  0.38320  0.87300  0.76030  1.0000
  C   C9        1.0  0.77920  0.30560  0.13360  1.0000
  C   C10       1.0  0.22080  0.69440  0.86640  1.0000
  H   H5        1.0  0.82080  0.35190  0.10690  1.0000
  H   H6        1.0  0.17920  0.64810  0.89310  1.0000
  C   C11       1.0  0.35360  0.46020  0.67040  1.0000
  C   C12       1.0  0.64640  0.53980  0.32960  1.0000
  C   C13       1.0  0.58810  0.47800  0.84550  1.0000
  C   C14       1.0  0.41190  0.52200  0.15450  1.0000
  C   C15       1.0  0.35110  0.41220  0.75200  1.0000
  C   C16       1.0  0.64890  0.58780  0.24800  1.0000
  C   C17       1.0  0.59150  0.52620  0.76420  1.0000
  C   C18       1.0  0.40850  0.47380  0.23580  1.0000
  C   C19       1.0  0.21710  0.03110  0.02620  1.0000
  C   C20       1.0  0.78290  0.96890  0.97380  1.0000
  H   H7        1.0  0.16750  0.98330  0.04660  1.0000
  H   H8        1.0  0.83250  0.01670  0.95340  1.0000
  C   C21       1.0  0.71240  0.49640  0.93880  1.0000
  C   C22       1.0  0.28760  0.50360  0.06120  1.0000
  H   H9        1.0  0.71230  0.46430  0.99140  1.0000
  H   H10       1.0  0.28770  0.53570  0.00860  1.0000
  C   C23       1.0  0.71910  0.58970  0.77940  1.0000
  C   C24       1.0  0.28090  0.41030  0.22060  1.0000
  H   H11       1.0  0.72370  0.61830  0.72530  1.0000
  H   H12       1.0  0.27630  0.38170  0.27470  1.0000
  C   C25       1.0  0.22530  0.45290  0.58410  1.0000
  C   C26       1.0  0.77470  0.54710  0.41590  1.0000
  H   H13       1.0  0.22580  0.48230  0.52970  1.0000
  H   H14       1.0  0.77420  0.51770  0.47030  1.0000
  C   C27       1.0  0.86190  0.28170  0.22300  1.0000
  C   C28       1.0  0.13810  0.71830  0.77700  1.0000
  H   H15       1.0  0.95790  0.31040  0.25540  1.0000
  H   H16       1.0  0.04210  0.68960  0.74460  1.0000
  C   C29       1.0  0.15140  0.05620  0.93330  1.0000
  C   C30       1.0  0.84860  0.94380  0.06670  1.0000
  H   H17       1.0  0.05730  0.02480  0.88870  1.0000
  H   H18       1.0  0.94270  0.97520  0.11130  1.0000
  C   C31       1.0  0.83330  0.56120  0.95240  1.0000
  C   C32       1.0  0.16670  0.43880  0.04760  1.0000
  H   H19       1.0  0.91480  0.57360  0.01460  1.0000
  H   H20       1.0  0.08520  0.42640  0.98540  1.0000
  C   C33       1.0  0.83460  0.60900  0.87260  1.0000
  C   C34       1.0  0.16540  0.39100  0.12740  1.0000
  H   H21       1.0  0.91680  0.65480  0.88420  1.0000
  H   H22       1.0  0.08320  0.34520  0.11580  1.0000
  C   C35       1.0  0.10390  0.40420  0.58050  1.0000
  C   C36       1.0  0.89610  0.59580  0.41950  1.0000
  H   H23       1.0  0.02060  0.40080  0.52390  1.0000
  H   H24       1.0  0.97940  0.59920  0.47610  1.0000
  C   C37       1.0  0.10030  0.35750  0.66210  1.0000
  C   C38       1.0  0.89970  0.64250  0.33790  1.0000
  H   H25       1.0  0.01450  0.32500  0.65880  1.0000
  H   H26       1.0  0.98550  0.67500  0.34120  1.0000
  C   C39       1.0  0.22780  0.12880  0.90740  1.0000
  C   C40       1.0  0.77220  0.87120  0.09260  1.0000
  H   H27       1.0  0.18290  0.14750  0.84540  1.0000
  H   H28       1.0  0.81710  0.85250  0.15460  1.0000
  C   C41       1.0  0.80170  0.21530  0.26410  1.0000
  C   C42       1.0  0.19830  0.78470  0.73590  1.0000
  H   H29       1.0  0.85600  0.19950  0.32560  1.0000
  H   H30       1.0  0.14400  0.80050  0.67440  1.0000
  C   C43       1.0  0.22030  0.35980  0.74490  1.0000
  C   C44       1.0  0.77970  0.64020  0.25510  1.0000
  H   H31       1.0  0.21690  0.32720  0.79660  1.0000
  H   H32       1.0  0.78310  0.67280  0.20340  1.0000
