data_image0
_chemical_formula_structural       Yb4Na4O4H8O4H8O4H8O4H8O4H8O4H8O4H8O4H8O4H8O4H8O4H4C12H4C8H4C4S4O12C4H8O4H4C12H4C8H4C4S4O12C4H8O4H4C12H4C8H4C4S4O12C4H8O4C12H4C8H4C4S4O12C4H8
_chemical_formula_sum              "Yb4 Na4 O104 H156 C112 S16"
_cell_length_a       21.271
_cell_length_b       11.375
_cell_length_c       26.372
_cell_angle_alpha    90
_cell_angle_beta     104.908
_cell_angle_gamma    90

_space_group_name_H-M_alt    "P 1"
_space_group_IT_number       1

loop_
  _space_group_symop_operation_xyz
  'x, y, z'

loop_
  _atom_site_type_symbol
  _atom_site_label
  _atom_site_symmetry_multiplicity
  _atom_site_fract_x
  _atom_site_fract_y
  _atom_site_fract_z
  _atom_site_occupancy
  Yb  Yb1       1.0  0.07120  0.53604  0.89077  1.0000
  Yb  Yb2       1.0  0.92880  0.03604  0.60923  1.0000
  Yb  Yb3       1.0  0.92880  0.46396  0.10923  1.0000
  Yb  Yb4       1.0  0.07120  0.96396  0.39077  1.0000
  Na  Na1       1.0  0.08720  0.46370  0.41281  1.0000
  Na  Na2       1.0  0.91280  0.96370  0.08719  1.0000
  Na  Na3       1.0  0.91280  0.53630  0.58719  1.0000
  Na  Na4       1.0  0.08720  0.03630  0.91281  1.0000
  O   O1        1.0  0.08058  0.53065  0.97997  1.0000
  O   O2        1.0  0.91942  0.03065  0.52003  1.0000
  O   O3        1.0  0.91942  0.46935  0.02003  1.0000
  O   O4        1.0  0.08058  0.96935  0.47997  1.0000
  H   H1        1.0  0.08223  0.46314  0.99408  1.0000
  H   H2        1.0  0.91777  0.96314  0.50592  1.0000
  H   H3        1.0  0.91777  0.53686  0.00592  1.0000
  H   H4        1.0  0.08223  0.03686  0.49408  1.0000
  H   H5        1.0  0.09819  0.57808  0.00441  1.0000
  H   H6        1.0  0.90181  0.07808  0.49559  1.0000
  H   H7        1.0  0.90181  0.42192  0.99559  1.0000
  H   H8        1.0  0.09819  0.92192  0.50441  1.0000
  O   O5        1.0  0.98551  0.64710  0.89995  1.0000
  O   O6        1.0  0.01449  0.14710  0.60005  1.0000
  O   O7        1.0  0.01449  0.35290  0.10005  1.0000
  O   O8        1.0  0.98551  0.85290  0.39995  1.0000
  H   H9        1.0  0.95719  0.67510  0.87394  1.0000
  H   H10       1.0  0.04281  0.17510  0.62606  1.0000
  H   H11       1.0  0.04281  0.32490  0.12606  1.0000
  H   H12       1.0  0.95719  0.82490  0.37394  1.0000
  H   H13       1.0  0.96812  0.64667  0.92559  1.0000
  H   H14       1.0  0.03188  0.14667  0.57441  1.0000
  H   H15       1.0  0.03188  0.35333  0.07441  1.0000
  H   H16       1.0  0.96812  0.85333  0.42559  1.0000
  O   O9        1.0  0.03896  0.66221  0.81920  1.0000
  O   O10       1.0  0.96104  0.16221  0.68080  1.0000
  O   O11       1.0  0.96104  0.33779  0.18080  1.0000
  O   O12       1.0  0.03896  0.83779  0.31920  1.0000
  H   H17       1.0  0.04812  0.64678  0.79038  1.0000
  H   H18       1.0  0.95188  0.14678  0.70962  1.0000
  H   H19       1.0  0.95188  0.35322  0.20962  1.0000
  H   H20       1.0  0.04812  0.85322  0.29038  1.0000
  H   H21       1.0  0.03885  0.73669  0.82181  1.0000
  H   H22       1.0  0.96115  0.23669  0.67819  1.0000
  H   H23       1.0  0.96115  0.26331  0.17819  1.0000
  H   H24       1.0  0.03885  0.76331  0.32181  1.0000
  O   O13       1.0  0.16544  0.54353  0.86170  1.0000
  O   O14       1.0  0.83456  0.04353  0.63830  1.0000
  O   O15       1.0  0.83456  0.45647  0.13830  1.0000
  O   O16       1.0  0.16544  0.95647  0.36170  1.0000
  H   H25       1.0  0.16670  0.51347  0.83247  1.0000
  H   H26       1.0  0.83330  0.01347  0.66753  1.0000
  H   H27       1.0  0.83330  0.48653  0.16753  1.0000
  H   H28       1.0  0.16670  0.98653  0.33247  1.0000
  H   H29       1.0  0.18566  0.60858  0.86405  1.0000
  H   H30       1.0  0.81434  0.10858  0.63595  1.0000
  H   H31       1.0  0.81434  0.39142  0.13595  1.0000
  H   H32       1.0  0.18566  0.89142  0.36405  1.0000
  O   O17       1.0  0.13362  0.37310  0.92104  1.0000
  O   O18       1.0  0.86638  0.87310  0.57896  1.0000
  O   O19       1.0  0.86638  0.62690  0.07896  1.0000
  O   O20       1.0  0.13362  0.12690  0.42104  1.0000
  H   H33       1.0  0.12733  0.31524  0.93953  1.0000
  H   H34       1.0  0.87267  0.81524  0.56047  1.0000
  H   H35       1.0  0.87267  0.68476  0.06047  1.0000
  H   H36       1.0  0.12733  0.18476  0.43953  1.0000
  H   H37       1.0  0.15680  0.34736  0.90158  1.0000
  H   H38       1.0  0.84320  0.84736  0.59842  1.0000
  H   H39       1.0  0.84320  0.65264  0.09842  1.0000
  H   H40       1.0  0.15680  0.15264  0.40158  1.0000
  O   O21       1.0  0.99617  0.39823  0.90095  1.0000
  O   O22       1.0  0.00383  0.89823  0.59905  1.0000
  O   O23       1.0  0.00383  0.60177  0.09905  1.0000
  O   O24       1.0  0.99617  0.10177  0.40095  1.0000
  H   H41       1.0  0.99894  0.32569  0.89409  1.0000
  H   H42       1.0  0.00106  0.82569  0.60591  1.0000
  H   H43       1.0  0.00106  0.67431  0.10591  1.0000
  H   H44       1.0  0.99894  0.17431  0.39409  1.0000
  H   H45       1.0  0.95983  0.40678  0.90834  1.0000
  H   H46       1.0  0.04017  0.90678  0.59166  1.0000
  H   H47       1.0  0.04017  0.59322  0.09166  1.0000
  H   H48       1.0  0.95983  0.09322  0.40834  1.0000
  O   O25       1.0  0.04515  0.42437  0.81394  1.0000
  O   O26       1.0  0.95485  0.92437  0.68606  1.0000
  O   O27       1.0  0.95485  0.57563  0.18606  1.0000
  O   O28       1.0  0.04515  0.07563  0.31394  1.0000
  H   H49       1.0  0.00524  0.40866  0.80065  1.0000
  H   H50       1.0  0.99476  0.90866  0.69935  1.0000
  H   H51       1.0  0.99476  0.59134  0.19935  1.0000
  H   H52       1.0  0.00524  0.09134  0.30065  1.0000
  H   H53       1.0  0.06677  0.37659  0.80025  1.0000
  H   H54       1.0  0.93323  0.87659  0.69975  1.0000
  H   H55       1.0  0.93323  0.62341  0.19975  1.0000
  H   H56       1.0  0.06677  0.12341  0.30025  1.0000
  O   O29       1.0  0.99761  0.33511  0.38104  1.0000
  O   O30       1.0  0.00239  0.83511  0.11896  1.0000
  O   O31       1.0  0.00239  0.66489  0.61896  1.0000
  O   O32       1.0  0.99761  0.16489  0.88104  1.0000
  H   H57       1.0  0.97708  0.34448  0.34910  1.0000
  H   H58       1.0  0.02292  0.84448  0.15090  1.0000
  H   H59       1.0  0.02292  0.65552  0.65090  1.0000
  H   H60       1.0  0.97708  0.15552  0.84910  1.0000
  H   H61       1.0  0.97165  0.35538  0.39917  1.0000
  H   H62       1.0  0.02835  0.85538  0.10083  1.0000
  H   H63       1.0  0.02835  0.64462  0.60083  1.0000
  H   H64       1.0  0.97165  0.14462  0.89917  1.0000
  O   O33       1.0  0.02939  0.60791  0.45149  1.0000
  O   O34       1.0  0.97061  0.10791  0.04851  1.0000
  O   O35       1.0  0.97061  0.39209  0.54851  1.0000
  O   O36       1.0  0.02939  0.89209  0.95149  1.0000
  H   H65       1.0  0.98823  0.60883  0.44602  1.0000
  H   H66       1.0  0.01177  0.10883  0.05398  1.0000
  H   H67       1.0  0.01177  0.39117  0.55398  1.0000
  H   H68       1.0  0.98823  0.89117  0.94602  1.0000
  H   H69       1.0  0.03940  0.67087  0.43807  1.0000
  H   H70       1.0  0.96060  0.17087  0.06193  1.0000
  H   H71       1.0  0.96060  0.32913  0.56193  1.0000
  H   H72       1.0  0.03940  0.82913  0.93807  1.0000
  O   O37       1.0  0.03300  0.59529  0.33060  1.0000
  O   O38       1.0  0.96700  0.09529  0.16940  1.0000
  O   O39       1.0  0.96700  0.40471  0.66940  1.0000
  O   O40       1.0  0.03300  0.90471  0.83060  1.0000
  H   H73       1.0  0.99375  0.57188  0.32166  1.0000
  H   H74       1.0  0.00625  0.07188  0.17834  1.0000
  H   H75       1.0  0.00625  0.42812  0.67834  1.0000
  H   H76       1.0  0.99375  0.92812  0.82166  1.0000
  H   H77       1.0  0.05140  0.56557  0.30855  1.0000
  H   H78       1.0  0.94860  0.06557  0.19145  1.0000
  H   H79       1.0  0.94860  0.43443  0.69145  1.0000
  H   H80       1.0  0.05140  0.93443  0.80855  1.0000
  O   O41       1.0  0.36772  0.47933  0.23026  1.0000
  O   O42       1.0  0.63228  0.97933  0.26974  1.0000
  O   O43       1.0  0.63228  0.52067  0.76974  1.0000
  O   O44       1.0  0.36772  0.02067  0.73026  1.0000
  H   H81       1.0  0.36820  0.55310  0.22860  1.0000
  H   H82       1.0  0.63180  0.05310  0.27140  1.0000
  H   H83       1.0  0.63180  0.44690  0.77140  1.0000
  H   H84       1.0  0.36820  0.94690  0.72860  1.0000
  C   C1        1.0  0.31827  0.44460  0.25035  1.0000
  C   C2        1.0  0.68173  0.94460  0.24965  1.0000
  C   C3        1.0  0.68173  0.55540  0.74965  1.0000
  C   C4        1.0  0.31827  0.05540  0.75035  1.0000
  C   C5        1.0  0.29519  0.32830  0.24078  1.0000
  C   C6        1.0  0.70481  0.82830  0.25922  1.0000
  C   C7        1.0  0.70481  0.67170  0.75922  1.0000
  C   C8        1.0  0.29519  0.17170  0.74078  1.0000
  C   C9        1.0  0.24525  0.29120  0.26197  1.0000
  C   C10       1.0  0.75475  0.79120  0.23803  1.0000
  C   C11       1.0  0.75475  0.70880  0.73803  1.0000
  C   C12       1.0  0.24525  0.20880  0.76197  1.0000
  H   H85       1.0  0.23020  0.21240  0.25680  1.0000
  H   H86       1.0  0.76980  0.71240  0.24320  1.0000
  H   H87       1.0  0.76980  0.78760  0.74320  1.0000
  H   H88       1.0  0.23020  0.28760  0.75680  1.0000
  C   C13       1.0  0.21706  0.36800  0.29062  1.0000
  C   C14       1.0  0.78294  0.86800  0.20938  1.0000
  C   C15       1.0  0.78294  0.63200  0.70938  1.0000
  C   C16       1.0  0.21706  0.13200  0.79062  1.0000
  C   C17       1.0  0.23923  0.48180  0.29971  1.0000
  C   C18       1.0  0.76077  0.98180  0.20029  1.0000
  C   C19       1.0  0.76077  0.51820  0.70029  1.0000
  C   C20       1.0  0.23923  0.01820  0.79971  1.0000
  H   H89       1.0  0.21910  0.53380  0.31900  1.0000
  H   H90       1.0  0.78090  0.03380  0.18100  1.0000
  H   H91       1.0  0.78090  0.46620  0.68100  1.0000
  H   H92       1.0  0.21910  0.96620  0.81900  1.0000
  C   C21       1.0  0.29107  0.52110  0.28078  1.0000
  C   C22       1.0  0.70893  0.02110  0.21922  1.0000
  C   C23       1.0  0.70893  0.47890  0.71922  1.0000
  C   C24       1.0  0.29107  0.97890  0.78078  1.0000
  S   S1        1.0  0.15754  0.31379  0.32032  1.0000
  S   S2        1.0  0.84246  0.81379  0.17968  1.0000
  S   S3        1.0  0.84246  0.68621  0.67968  1.0000
  S   S4        1.0  0.15754  0.18621  0.82032  1.0000
  O   O45       1.0  0.13952  0.41023  0.34951  1.0000
  O   O46       1.0  0.86048  0.91023  0.15049  1.0000
  O   O47       1.0  0.86048  0.58977  0.65049  1.0000
  O   O48       1.0  0.13952  0.08977  0.84951  1.0000
  O   O49       1.0  0.10292  0.27133  0.27870  1.0000
  O   O50       1.0  0.89708  0.77133  0.22130  1.0000
  O   O51       1.0  0.89708  0.72867  0.72130  1.0000
  O   O52       1.0  0.10292  0.22867  0.77870  1.0000
  O   O53       1.0  0.19064  0.21840  0.35350  1.0000
  O   O54       1.0  0.80936  0.71840  0.14650  1.0000
  O   O55       1.0  0.80936  0.78160  0.64650  1.0000
  O   O56       1.0  0.19064  0.28160  0.85350  1.0000
  C   C25       1.0  0.32253  0.24630  0.20665  1.0000
  C   C26       1.0  0.67747  0.74630  0.29335  1.0000
  C   C27       1.0  0.67747  0.75370  0.79335  1.0000
  C   C28       1.0  0.32253  0.25370  0.70665  1.0000
  H   H93       1.0  0.31150  0.16420  0.21340  1.0000
  H   H94       1.0  0.68850  0.66420  0.28660  1.0000
  H   H95       1.0  0.68850  0.83580  0.78660  1.0000
  H   H96       1.0  0.31150  0.33580  0.71340  1.0000
  H   H97       1.0  0.37050  0.25320  0.21620  1.0000
  H   H98       1.0  0.62950  0.75320  0.28380  1.0000
  H   H99       1.0  0.62950  0.74680  0.78380  1.0000
  H   H100      1.0  0.37050  0.24680  0.71620  1.0000
  O   O57       1.0  0.39401  0.37551  0.14584  1.0000
  O   O58       1.0  0.60599  0.87551  0.35416  1.0000
  O   O59       1.0  0.60599  0.62449  0.85416  1.0000
  O   O60       1.0  0.39401  0.12449  0.64584  1.0000
  H   H101      1.0  0.39480  0.40830  0.17450  1.0000
  H   H102      1.0  0.60520  0.90830  0.32550  1.0000
  H   H103      1.0  0.60520  0.59170  0.82550  1.0000
  H   H104      1.0  0.39480  0.09170  0.67450  1.0000
  C   C29       1.0  0.33150  0.34300  0.12160  1.0000
  C   C30       1.0  0.66850  0.84300  0.37840  1.0000
  C   C31       1.0  0.66850  0.65700  0.87840  1.0000
  C   C32       1.0  0.33150  0.15700  0.62160  1.0000
  C   C33       1.0  0.30438  0.37790  0.06975  1.0000
  C   C34       1.0  0.69562  0.87790  0.43025  1.0000
  C   C35       1.0  0.69562  0.62210  0.93025  1.0000
  C   C36       1.0  0.30438  0.12210  0.56975  1.0000
  C   C37       1.0  0.24289  0.33760  0.04437  1.0000
  C   C38       1.0  0.75711  0.83760  0.45563  1.0000
  C   C39       1.0  0.75711  0.66240  0.95563  1.0000
  C   C40       1.0  0.24289  0.16240  0.54437  1.0000
  H   H105      1.0  0.22390  0.36040  0.00910  1.0000
  H   H106      1.0  0.77610  0.86040  0.49090  1.0000
  H   H107      1.0  0.77610  0.63960  0.99090  1.0000
  H   H108      1.0  0.22390  0.13960  0.50910  1.0000
  C   C41       1.0  0.20875  0.26420  0.06983  1.0000
  C   C42       1.0  0.79125  0.76420  0.43017  1.0000
  C   C43       1.0  0.79125  0.73580  0.93017  1.0000
  C   C44       1.0  0.20875  0.23580  0.56983  1.0000
  C   C45       1.0  0.23498  0.23280  0.12185  1.0000
  C   C46       1.0  0.76502  0.73280  0.37815  1.0000
  C   C47       1.0  0.76502  0.76720  0.87815  1.0000
  C   C48       1.0  0.23498  0.26720  0.62185  1.0000
  H   H109      1.0  0.21090  0.18380  0.13920  1.0000
  H   H110      1.0  0.78910  0.68380  0.36080  1.0000
  H   H111      1.0  0.78910  0.81620  0.86080  1.0000
  H   H112      1.0  0.21090  0.31620  0.63920  1.0000
  C   C49       1.0  0.29641  0.27280  0.14878  1.0000
  C   C50       1.0  0.70359  0.77280  0.35122  1.0000
  C   C51       1.0  0.70359  0.72720  0.85122  1.0000
  C   C52       1.0  0.29641  0.22720  0.64878  1.0000
  S   S5        1.0  0.12991  0.21664  0.03580  1.0000
  S   S6        1.0  0.87009  0.71664  0.46420  1.0000
  S   S7        1.0  0.87009  0.78336  0.96420  1.0000
  S   S8        1.0  0.12991  0.28336  0.53580  1.0000
  O   O61       1.0  0.11092  0.12708  0.06817  1.0000
  O   O62       1.0  0.88908  0.62708  0.43183  1.0000
  O   O63       1.0  0.88908  0.87292  0.93183  1.0000
  O   O64       1.0  0.11092  0.37292  0.56817  1.0000
  O   O65       1.0  0.08791  0.32034  0.03009  1.0000
  O   O66       1.0  0.91209  0.82034  0.46991  1.0000
  O   O67       1.0  0.91209  0.67966  0.96991  1.0000
  O   O68       1.0  0.08791  0.17966  0.53009  1.0000
  O   O69       1.0  0.13433  0.17397  0.98475  1.0000
  O   O70       1.0  0.86567  0.67397  0.51525  1.0000
  O   O71       1.0  0.86567  0.82603  0.01525  1.0000
  O   O72       1.0  0.13433  0.32603  0.48475  1.0000
  C   C53       1.0  0.33940  0.46140  0.04121  1.0000
  C   C54       1.0  0.66060  0.96140  0.45879  1.0000
  C   C55       1.0  0.66060  0.53860  0.95879  1.0000
  C   C56       1.0  0.33940  0.03860  0.54121  1.0000
  H   H113      1.0  0.38600  0.46600  0.06030  1.0000
  H   H114      1.0  0.61400  0.96600  0.43970  1.0000
  H   H115      1.0  0.61400  0.53400  0.93970  1.0000
  H   H116      1.0  0.38600  0.03400  0.56030  1.0000
  H   H117      1.0  0.33660  0.43090  0.00550  1.0000
  H   H118      1.0  0.66340  0.93090  0.49450  1.0000
  H   H119      1.0  0.66340  0.56910  0.99450  1.0000
  H   H120      1.0  0.33660  0.06910  0.50550  1.0000
  O   O73       1.0  0.37788  0.62761  0.12019  1.0000
  O   O74       1.0  0.62212  0.12761  0.37981  1.0000
  O   O75       1.0  0.62212  0.37239  0.87981  1.0000
  O   O76       1.0  0.37788  0.87239  0.62019  1.0000
  H   H121      1.0  0.37350  0.65870  0.14800  1.0000
  H   H122      1.0  0.62650  0.15870  0.35200  1.0000
  H   H123      1.0  0.62650  0.34130  0.85200  1.0000
  H   H124      1.0  0.37350  0.84130  0.64800  1.0000
  C   C57       1.0  0.32853  0.66130  0.07974  1.0000
  C   C58       1.0  0.67147  0.16130  0.42026  1.0000
  C   C59       1.0  0.67147  0.33870  0.92026  1.0000
  C   C60       1.0  0.32853  0.83870  0.57974  1.0000
  C   C61       1.0  0.29829  0.77110  0.07914  1.0000
  C   C62       1.0  0.70171  0.27110  0.42086  1.0000
  C   C63       1.0  0.70171  0.22890  0.92086  1.0000
  C   C64       1.0  0.29829  0.72890  0.57914  1.0000
  C   C65       1.0  0.25078  0.80310  0.03451  1.0000
  C   C66       1.0  0.74922  0.30310  0.46549  1.0000
  C   C67       1.0  0.74922  0.19690  0.96549  1.0000
  C   C68       1.0  0.25078  0.69690  0.53451  1.0000
  H   H125      1.0  0.22920  0.87650  0.03360  1.0000
  H   H126      1.0  0.77080  0.37650  0.46640  1.0000
  H   H127      1.0  0.77080  0.12350  0.96640  1.0000
  H   H128      1.0  0.22920  0.62350  0.53360  1.0000
  C   C69       1.0  0.23447  0.72920  0.99136  1.0000
  C   C70       1.0  0.76553  0.22920  0.50864  1.0000
  C   C71       1.0  0.76553  0.27080  0.00864  1.0000
  C   C72       1.0  0.23447  0.77080  0.49136  1.0000
  C   C73       1.0  0.26275  0.61850  0.99316  1.0000
  C   C74       1.0  0.73725  0.11850  0.50684  1.0000
  C   C75       1.0  0.73725  0.38150  0.00684  1.0000
  C   C76       1.0  0.26275  0.88150  0.49316  1.0000
  H   H129      1.0  0.25000  0.56720  0.96390  1.0000
  H   H130      1.0  0.75000  0.06720  0.53610  1.0000
  H   H131      1.0  0.75000  0.43280  0.03610  1.0000
  H   H132      1.0  0.25000  0.93280  0.46390  1.0000
  C   C77       1.0  0.30946  0.58280  0.03741  1.0000
  C   C78       1.0  0.69054  0.08280  0.46259  1.0000
  C   C79       1.0  0.69054  0.41720  0.96259  1.0000
  C   C80       1.0  0.30946  0.91720  0.53741  1.0000
  S   S9        1.0  0.18102  0.77973  0.93335  1.0000
  S   S10       1.0  0.81898  0.27973  0.56665  1.0000
  S   S11       1.0  0.81898  0.22027  0.06665  1.0000
  S   S12       1.0  0.18102  0.72027  0.43335  1.0000
  O   O77       1.0  0.16787  0.90124  0.94190  1.0000
  O   O78       1.0  0.83213  0.40124  0.55810  1.0000
  O   O79       1.0  0.83213  0.09876  0.05810  1.0000
  O   O80       1.0  0.16787  0.59876  0.44190  1.0000
  O   O81       1.0  0.21298  0.76004  0.89131  1.0000
  O   O82       1.0  0.78702  0.26004  0.60869  1.0000
  O   O83       1.0  0.78702  0.23996  0.10869  1.0000
  O   O84       1.0  0.21298  0.73996  0.39131  1.0000
  O   O85       1.0  0.12156  0.70759  0.92543  1.0000
  O   O86       1.0  0.87844  0.20759  0.57457  1.0000
  O   O87       1.0  0.87844  0.29241  0.07457  1.0000
  O   O88       1.0  0.12156  0.79241  0.42543  1.0000
  C   C81       1.0  0.31849  0.85560  0.12472  1.0000
  C   C82       1.0  0.68151  0.35560  0.37528  1.0000
  C   C83       1.0  0.68151  0.14440  0.87528  1.0000
  C   C84       1.0  0.31849  0.64440  0.62472  1.0000
  H   H133      1.0  0.30720  0.93650  0.11170  1.0000
  H   H134      1.0  0.69280  0.43650  0.38830  1.0000
  H   H135      1.0  0.69280  0.06350  0.88830  1.0000
  H   H136      1.0  0.30720  0.56350  0.61170  1.0000
  H   H137      1.0  0.36630  0.85180  0.13860  1.0000
  H   H138      1.0  0.63370  0.35180  0.36140  1.0000
  H   H139      1.0  0.63370  0.14820  0.86140  1.0000
  H   H140      1.0  0.36630  0.64820  0.63860  1.0000
  O   O89       1.0  0.37003  0.69356  0.20889  1.0000
  O   O90       1.0  0.62997  0.19356  0.29111  1.0000
  O   O91       1.0  0.62997  0.30644  0.79111  1.0000
  O   O92       1.0  0.37003  0.80644  0.70889  1.0000
  C   C85       1.0  0.31545  0.75030  0.20903  1.0000
  C   C86       1.0  0.68455  0.25030  0.29097  1.0000
  C   C87       1.0  0.68455  0.24970  0.79097  1.0000
  C   C88       1.0  0.31545  0.74970  0.70903  1.0000
  C   C89       1.0  0.28564  0.73140  0.25048  1.0000
  C   C90       1.0  0.71436  0.23140  0.24952  1.0000
  C   C91       1.0  0.71436  0.26860  0.74952  1.0000
  C   C92       1.0  0.28564  0.76860  0.75048  1.0000
  C   C93       1.0  0.22950  0.79050  0.25143  1.0000
  C   C94       1.0  0.77050  0.29050  0.24857  1.0000
  C   C95       1.0  0.77050  0.20950  0.74857  1.0000
  C   C96       1.0  0.22950  0.70950  0.75143  1.0000
  H   H141      1.0  0.20980  0.77720  0.27940  1.0000
  H   H142      1.0  0.79020  0.27720  0.22060  1.0000
  H   H143      1.0  0.79020  0.22280  0.72060  1.0000
  H   H144      1.0  0.20980  0.72280  0.77940  1.0000
  C   C97       1.0  0.20142  0.86950  0.21189  1.0000
  C   C98       1.0  0.79858  0.36950  0.28811  1.0000
  C   C99       1.0  0.79858  0.13050  0.78811  1.0000
  C   C100      1.0  0.20142  0.63050  0.71189  1.0000
  C   C101      1.0  0.23060  0.89010  0.17133  1.0000
  C   C102      1.0  0.76940  0.39010  0.32867  1.0000
  C   C103      1.0  0.76940  0.10990  0.82867  1.0000
  C   C104      1.0  0.23060  0.60990  0.67133  1.0000
  H   H145      1.0  0.21150  0.94480  0.14460  1.0000
  H   H146      1.0  0.78850  0.44480  0.35540  1.0000
  H   H147      1.0  0.78850  0.05520  0.85540  1.0000
  H   H148      1.0  0.21150  0.55520  0.64460  1.0000
  C   C105      1.0  0.28730  0.83190  0.16924  1.0000
  C   C106      1.0  0.71270  0.33190  0.33076  1.0000
  C   C107      1.0  0.71270  0.16810  0.83076  1.0000
  C   C108      1.0  0.28730  0.66810  0.66924  1.0000
  S   S13       1.0  0.13470  0.95246  0.21887  1.0000
  S   S14       1.0  0.86530  0.45246  0.28113  1.0000
  S   S15       1.0  0.86530  0.04754  0.78113  1.0000
  S   S16       1.0  0.13470  0.54754  0.71887  1.0000
  O   O93       1.0  0.10960  0.01820  0.17049  1.0000
  O   O94       1.0  0.89040  0.51820  0.32951  1.0000
  O   O95       1.0  0.89040  0.98180  0.82951  1.0000
  O   O96       1.0  0.10960  0.48180  0.67049  1.0000
  O   O97       1.0  0.08628  0.86792  0.22788  1.0000
  O   O98       1.0  0.91372  0.36792  0.27212  1.0000
  O   O99       1.0  0.91372  0.13208  0.77212  1.0000
  O   O100      1.0  0.08628  0.63208  0.72788  1.0000
  O   O101      1.0  0.15964  0.02833  0.26395  1.0000
  O   O102      1.0  0.84036  0.52833  0.23605  1.0000
  O   O103      1.0  0.84036  0.97167  0.73605  1.0000
  O   O104      1.0  0.15964  0.47167  0.76395  1.0000
  C   C109      1.0  0.31581  0.64500  0.29339  1.0000
  C   C110      1.0  0.68419  0.14500  0.20661  1.0000
  C   C111      1.0  0.68419  0.35500  0.70661  1.0000
  C   C112      1.0  0.31581  0.85500  0.79339  1.0000
  H   H149      1.0  0.30620  0.67040  0.32650  1.0000
  H   H150      1.0  0.69380  0.17040  0.17350  1.0000
  H   H151      1.0  0.69380  0.32960  0.67350  1.0000
  H   H152      1.0  0.30620  0.82960  0.82650  1.0000
  H   H153      1.0  0.36360  0.64580  0.29890  1.0000
  H   H154      1.0  0.63640  0.14580  0.20110  1.0000
  H   H155      1.0  0.63640  0.35420  0.70110  1.0000
  H   H156      1.0  0.36360  0.85420  0.79890  1.0000
