data_image0
_chemical_formula_structural       Tb4S8O12H8O32C24H8C24H8C8H8
_chemical_formula_sum              "Tb4 S8 O44 H32 C56"
_cell_length_a       14.116
_cell_length_b       13.381
_cell_length_c       9.903
_cell_angle_alpha    90
_cell_angle_beta     98.375
_cell_angle_gamma    90

_space_group_name_H-M_alt    "P 1"
_space_group_IT_number       1

loop_
  _space_group_symop_operation_xyz
  'x, y, z'

loop_
  _atom_site_type_symbol
  _atom_site_label
  _atom_site_symmetry_multiplicity
  _atom_site_fract_x
  _atom_site_fract_y
  _atom_site_fract_z
  _atom_site_occupancy
  Tb  Tb1       1.0  0.50000  0.06814  0.25000  1.0000
  Tb  Tb2       1.0  0.00000  0.56814  0.25000  1.0000
  Tb  Tb3       1.0  0.50000  0.93186  0.75000  1.0000
  Tb  Tb4       1.0  0.00000  0.43186  0.75000  1.0000
  S   S1        1.0  0.48258  0.28406  0.01813  1.0000
  S   S2        1.0  0.51742  0.28406  0.48187  1.0000
  S   S3        1.0  0.98258  0.78406  0.01813  1.0000
  S   S4        1.0  0.01742  0.78406  0.48187  1.0000
  S   S5        1.0  0.51742  0.71594  0.98187  1.0000
  S   S6        1.0  0.48258  0.71594  0.51813  1.0000
  S   S7        1.0  0.01742  0.21594  0.98187  1.0000
  S   S8        1.0  0.98258  0.21594  0.51813  1.0000
  O   O1        1.0  0.13199  0.43832  0.91450  1.0000
  O   O2        1.0  0.86801  0.43832  0.58550  1.0000
  O   O3        1.0  0.63199  0.93832  0.91450  1.0000
  O   O4        1.0  0.36801  0.93832  0.58550  1.0000
  O   O5        1.0  0.86801  0.56168  0.08550  1.0000
  O   O6        1.0  0.13199  0.56168  0.41450  1.0000
  O   O7        1.0  0.36801  0.06168  0.08550  1.0000
  O   O8        1.0  0.63199  0.06168  0.41450  1.0000
  O   O9        1.0  0.50000  0.89270  0.25000  1.0000
  O   O10       1.0  0.00000  0.39270  0.25000  1.0000
  O   O11       1.0  0.50000  0.10730  0.75000  1.0000
  O   O12       1.0  0.00000  0.60730  0.75000  1.0000
  H   H1        1.0  0.47720  0.86280  0.31420  1.0000
  H   H2        1.0  0.52280  0.86280  0.18580  1.0000
  H   H3        1.0  0.97720  0.36280  0.31420  1.0000
  H   H4        1.0  0.02280  0.36280  0.18580  1.0000
  H   H5        1.0  0.52280  0.13720  0.68580  1.0000
  H   H6        1.0  0.47720  0.13720  0.81420  1.0000
  H   H7        1.0  0.02280  0.63720  0.68580  1.0000
  H   H8        1.0  0.97720  0.63720  0.81420  1.0000
  O   O13       1.0  0.10353  0.51752  0.10230  1.0000
  O   O14       1.0  0.89647  0.51752  0.39770  1.0000
  O   O15       1.0  0.60353  0.01752  0.10230  1.0000
  O   O16       1.0  0.39647  0.01752  0.39770  1.0000
  O   O17       1.0  0.89647  0.48248  0.89770  1.0000
  O   O18       1.0  0.10353  0.48248  0.60230  1.0000
  O   O19       1.0  0.39647  0.98248  0.89770  1.0000
  O   O20       1.0  0.60353  0.98248  0.60230  1.0000
  O   O21       1.0  0.55407  0.34708  0.97110  1.0000
  O   O22       1.0  0.44593  0.34708  0.52890  1.0000
  O   O23       1.0  0.05407  0.84708  0.97110  1.0000
  O   O24       1.0  0.94593  0.84708  0.52890  1.0000
  O   O25       1.0  0.44593  0.65292  0.02890  1.0000
  O   O26       1.0  0.55407  0.65292  0.47110  1.0000
  O   O27       1.0  0.94593  0.15292  0.02890  1.0000
  O   O28       1.0  0.05407  0.15292  0.47110  1.0000
  O   O29       1.0  0.41825  0.23639  0.90960  1.0000
  O   O30       1.0  0.58175  0.23639  0.59040  1.0000
  O   O31       1.0  0.91825  0.73639  0.90960  1.0000
  O   O32       1.0  0.08175  0.73639  0.59040  1.0000
  O   O33       1.0  0.58175  0.76361  0.09040  1.0000
  O   O34       1.0  0.41825  0.76361  0.40960  1.0000
  O   O35       1.0  0.08175  0.26361  0.09040  1.0000
  O   O36       1.0  0.91825  0.26361  0.40960  1.0000
  O   O37       1.0  0.52738  0.21153  0.12040  1.0000
  O   O38       1.0  0.47262  0.21153  0.37960  1.0000
  O   O39       1.0  0.02738  0.71153  0.12040  1.0000
  O   O40       1.0  0.97262  0.71153  0.37960  1.0000
  O   O41       1.0  0.47262  0.78847  0.87960  1.0000
  O   O42       1.0  0.52738  0.78847  0.62040  1.0000
  O   O43       1.0  0.97262  0.28847  0.87960  1.0000
  O   O44       1.0  0.02738  0.28847  0.62040  1.0000
  C   C1        1.0  0.15680  0.46770  0.03550  1.0000
  C   C2        1.0  0.84320  0.46770  0.46450  1.0000
  C   C3        1.0  0.65680  0.96770  0.03550  1.0000
  C   C4        1.0  0.34320  0.96770  0.46450  1.0000
  C   C5        1.0  0.84320  0.53230  0.96450  1.0000
  C   C6        1.0  0.15680  0.53230  0.53550  1.0000
  C   C7        1.0  0.34320  0.03230  0.96450  1.0000
  C   C8        1.0  0.65680  0.03230  0.53550  1.0000
  C   C9        1.0  0.25700  0.44610  0.10230  1.0000
  C   C10       1.0  0.74300  0.44610  0.39770  1.0000
  C   C11       1.0  0.75700  0.94610  0.10230  1.0000
  C   C12       1.0  0.24300  0.94610  0.39770  1.0000
  C   C13       1.0  0.74300  0.55390  0.89770  1.0000
  C   C14       1.0  0.25700  0.55390  0.60230  1.0000
  C   C15       1.0  0.24300  0.05390  0.89770  1.0000
  C   C16       1.0  0.75700  0.05390  0.60230  1.0000
  C   C17       1.0  0.31430  0.37780  0.04500  1.0000
  C   C18       1.0  0.68570  0.37780  0.45500  1.0000
  C   C19       1.0  0.81430  0.87780  0.04500  1.0000
  C   C20       1.0  0.18570  0.87780  0.45500  1.0000
  C   C21       1.0  0.68570  0.62220  0.95500  1.0000
  C   C22       1.0  0.31430  0.62220  0.54500  1.0000
  C   C23       1.0  0.18570  0.12220  0.95500  1.0000
  C   C24       1.0  0.81430  0.12220  0.54500  1.0000
  H   H9        1.0  0.28920  0.34170  0.96780  1.0000
  H   H10       1.0  0.71080  0.34170  0.53220  1.0000
  H   H11       1.0  0.78920  0.84170  0.96780  1.0000
  H   H12       1.0  0.21080  0.84170  0.53220  1.0000
  H   H13       1.0  0.71080  0.65830  0.03220  1.0000
  H   H14       1.0  0.28920  0.65830  0.46780  1.0000
  H   H15       1.0  0.21080  0.15830  0.03220  1.0000
  H   H16       1.0  0.78920  0.15830  0.46780  1.0000
  C   C25       1.0  0.40922  0.36380  0.10350  1.0000
  C   C26       1.0  0.59078  0.36380  0.39650  1.0000
  C   C27       1.0  0.90922  0.86380  0.10350  1.0000
  C   C28       1.0  0.09078  0.86380  0.39650  1.0000
  C   C29       1.0  0.59078  0.63620  0.89650  1.0000
  C   C30       1.0  0.40922  0.63620  0.60350  1.0000
  C   C31       1.0  0.09078  0.13620  0.89650  1.0000
  C   C32       1.0  0.90922  0.13620  0.60350  1.0000
  C   C33       1.0  0.44840  0.41720  0.22020  1.0000
  C   C34       1.0  0.55160  0.41720  0.27980  1.0000
  C   C35       1.0  0.94840  0.91720  0.22020  1.0000
  C   C36       1.0  0.05160  0.91720  0.27980  1.0000
  C   C37       1.0  0.55160  0.58280  0.77980  1.0000
  C   C38       1.0  0.44840  0.58280  0.72020  1.0000
  C   C39       1.0  0.05160  0.08280  0.77980  1.0000
  C   C40       1.0  0.94840  0.08280  0.72020  1.0000
  C   C41       1.0  0.38920  0.48320  0.27680  1.0000
  C   C42       1.0  0.61080  0.48320  0.22320  1.0000
  C   C43       1.0  0.88920  0.98320  0.27680  1.0000
  C   C44       1.0  0.11080  0.98320  0.22320  1.0000
  C   C45       1.0  0.61080  0.51680  0.72320  1.0000
  C   C46       1.0  0.38920  0.51680  0.77680  1.0000
  C   C47       1.0  0.11080  0.01680  0.72320  1.0000
  C   C48       1.0  0.88920  0.01680  0.77680  1.0000
  H   H17       1.0  0.41360  0.51860  0.35500  1.0000
  H   H18       1.0  0.58640  0.51860  0.14500  1.0000
  H   H19       1.0  0.91360  0.01860  0.35500  1.0000
  H   H20       1.0  0.08640  0.01860  0.14500  1.0000
  H   H21       1.0  0.58640  0.48140  0.64500  1.0000
  H   H22       1.0  0.41360  0.48140  0.85500  1.0000
  H   H23       1.0  0.08640  0.98140  0.64500  1.0000
  H   H24       1.0  0.91360  0.98140  0.85500  1.0000
  C   C49       1.0  0.29470  0.49760  0.21920  1.0000
  C   C50       1.0  0.70530  0.49760  0.28080  1.0000
  C   C51       1.0  0.79470  0.99760  0.21920  1.0000
  C   C52       1.0  0.20530  0.99760  0.28080  1.0000
  C   C53       1.0  0.70530  0.50240  0.78080  1.0000
  C   C54       1.0  0.29470  0.50240  0.71920  1.0000
  C   C55       1.0  0.20530  0.00240  0.78080  1.0000
  C   C56       1.0  0.79470  0.00240  0.71920  1.0000
  H   H25       1.0  0.25630  0.54200  0.25930  1.0000
  H   H26       1.0  0.74370  0.54200  0.24070  1.0000
  H   H27       1.0  0.75630  0.04200  0.25930  1.0000
  H   H28       1.0  0.24370  0.04200  0.24070  1.0000
  H   H29       1.0  0.74370  0.45800  0.74070  1.0000
  H   H30       1.0  0.25630  0.45800  0.75930  1.0000
  H   H31       1.0  0.24370  0.95800  0.74070  1.0000
  H   H32       1.0  0.75630  0.95800  0.75930  1.0000
