data_image0
_chemical_formula_structural       Dy4S8O12H8O32C24H8C24H8C8H8
_chemical_formula_sum              "Dy4 S8 O44 H32 C56"
_cell_length_a       14.101
_cell_length_b       13.366
_cell_length_c       9.87
_cell_angle_alpha    90
_cell_angle_beta     98.431
_cell_angle_gamma    90

_space_group_name_H-M_alt    "P 1"
_space_group_IT_number       1

loop_
  _space_group_symop_operation_xyz
  'x, y, z'

loop_
  _atom_site_type_symbol
  _atom_site_label
  _atom_site_symmetry_multiplicity
  _atom_site_fract_x
  _atom_site_fract_y
  _atom_site_fract_z
  _atom_site_occupancy
  Dy  Dy1       1.0  0.50000  0.06783  0.25000  1.0000
  Dy  Dy2       1.0  0.00000  0.56783  0.25000  1.0000
  Dy  Dy3       1.0  0.50000  0.93217  0.75000  1.0000
  Dy  Dy4       1.0  0.00000  0.43217  0.75000  1.0000
  S   S1        1.0  0.48238  0.28331  0.01813  1.0000
  S   S2        1.0  0.51762  0.28331  0.48187  1.0000
  S   S3        1.0  0.98238  0.78331  0.01813  1.0000
  S   S4        1.0  0.01762  0.78331  0.48187  1.0000
  S   S5        1.0  0.51762  0.71669  0.98187  1.0000
  S   S6        1.0  0.48238  0.71669  0.51813  1.0000
  S   S7        1.0  0.01762  0.21669  0.98187  1.0000
  S   S8        1.0  0.98238  0.21669  0.51813  1.0000
  O   O1        1.0  0.13164  0.43845  0.91410  1.0000
  O   O2        1.0  0.86836  0.43845  0.58590  1.0000
  O   O3        1.0  0.63164  0.93845  0.91410  1.0000
  O   O4        1.0  0.36836  0.93845  0.58590  1.0000
  O   O5        1.0  0.86836  0.56155  0.08590  1.0000
  O   O6        1.0  0.13164  0.56155  0.41410  1.0000
  O   O7        1.0  0.36836  0.06155  0.08590  1.0000
  O   O8        1.0  0.63164  0.06155  0.41410  1.0000
  O   O9        1.0  0.50000  0.89380  0.25000  1.0000
  O   O10       1.0  0.00000  0.39380  0.25000  1.0000
  O   O11       1.0  0.50000  0.10620  0.75000  1.0000
  O   O12       1.0  0.00000  0.60620  0.75000  1.0000
  H   H1        1.0  0.47720  0.86390  0.31420  1.0000
  H   H2        1.0  0.52280  0.86390  0.18580  1.0000
  H   H3        1.0  0.97720  0.36390  0.31420  1.0000
  H   H4        1.0  0.02280  0.36390  0.18580  1.0000
  H   H5        1.0  0.52280  0.13610  0.68580  1.0000
  H   H6        1.0  0.47720  0.13610  0.81420  1.0000
  H   H7        1.0  0.02280  0.63610  0.68580  1.0000
  H   H8        1.0  0.97720  0.63610  0.81420  1.0000
  O   O13       1.0  0.10320  0.51765  0.10240  1.0000
  O   O14       1.0  0.89680  0.51765  0.39760  1.0000
  O   O15       1.0  0.60320  0.01765  0.10240  1.0000
  O   O16       1.0  0.39680  0.01765  0.39760  1.0000
  O   O17       1.0  0.89680  0.48235  0.89760  1.0000
  O   O18       1.0  0.10320  0.48235  0.60240  1.0000
  O   O19       1.0  0.39680  0.98235  0.89760  1.0000
  O   O20       1.0  0.60320  0.98235  0.60240  1.0000
  O   O21       1.0  0.55422  0.34620  0.97110  1.0000
  O   O22       1.0  0.44578  0.34620  0.52890  1.0000
  O   O23       1.0  0.05422  0.84620  0.97110  1.0000
  O   O24       1.0  0.94578  0.84620  0.52890  1.0000
  O   O25       1.0  0.44578  0.65380  0.02890  1.0000
  O   O26       1.0  0.55422  0.65380  0.47110  1.0000
  O   O27       1.0  0.94578  0.15380  0.02890  1.0000
  O   O28       1.0  0.05422  0.15380  0.47110  1.0000
  O   O29       1.0  0.41785  0.23606  0.90930  1.0000
  O   O30       1.0  0.58215  0.23606  0.59070  1.0000
  O   O31       1.0  0.91785  0.73606  0.90930  1.0000
  O   O32       1.0  0.08215  0.73606  0.59070  1.0000
  O   O33       1.0  0.58215  0.76394  0.09070  1.0000
  O   O34       1.0  0.41785  0.76394  0.40930  1.0000
  O   O35       1.0  0.08215  0.26394  0.09070  1.0000
  O   O36       1.0  0.91785  0.26394  0.40930  1.0000
  O   O37       1.0  0.52739  0.21127  0.12070  1.0000
  O   O38       1.0  0.47261  0.21127  0.37930  1.0000
  O   O39       1.0  0.02739  0.71127  0.12070  1.0000
  O   O40       1.0  0.97261  0.71127  0.37930  1.0000
  O   O41       1.0  0.47261  0.78873  0.87930  1.0000
  O   O42       1.0  0.52739  0.78873  0.62070  1.0000
  O   O43       1.0  0.97261  0.28873  0.87930  1.0000
  O   O44       1.0  0.02739  0.28873  0.62070  1.0000
  C   C1        1.0  0.15627  0.46790  0.03550  1.0000
  C   C2        1.0  0.84373  0.46790  0.46450  1.0000
  C   C3        1.0  0.65627  0.96790  0.03550  1.0000
  C   C4        1.0  0.34373  0.96790  0.46450  1.0000
  C   C5        1.0  0.84373  0.53210  0.96450  1.0000
  C   C6        1.0  0.15627  0.53210  0.53550  1.0000
  C   C7        1.0  0.34373  0.03210  0.96450  1.0000
  C   C8        1.0  0.65627  0.03210  0.53550  1.0000
  C   C9        1.0  0.25640  0.44650  0.10170  1.0000
  C   C10       1.0  0.74360  0.44650  0.39830  1.0000
  C   C11       1.0  0.75640  0.94650  0.10170  1.0000
  C   C12       1.0  0.24360  0.94650  0.39830  1.0000
  C   C13       1.0  0.74360  0.55350  0.89830  1.0000
  C   C14       1.0  0.25640  0.55350  0.60170  1.0000
  C   C15       1.0  0.24360  0.05350  0.89830  1.0000
  C   C16       1.0  0.75640  0.05350  0.60170  1.0000
  C   C17       1.0  0.31430  0.37760  0.04520  1.0000
  C   C18       1.0  0.68570  0.37760  0.45480  1.0000
  C   C19       1.0  0.81430  0.87760  0.04520  1.0000
  C   C20       1.0  0.18570  0.87760  0.45480  1.0000
  C   C21       1.0  0.68570  0.62240  0.95480  1.0000
  C   C22       1.0  0.31430  0.62240  0.54520  1.0000
  C   C23       1.0  0.18570  0.12240  0.95480  1.0000
  C   C24       1.0  0.81430  0.12240  0.54520  1.0000
  H   H9        1.0  0.28910  0.34120  0.96790  1.0000
  H   H10       1.0  0.71090  0.34120  0.53210  1.0000
  H   H11       1.0  0.78910  0.84120  0.96790  1.0000
  H   H12       1.0  0.21090  0.84120  0.53210  1.0000
  H   H13       1.0  0.71090  0.65880  0.03210  1.0000
  H   H14       1.0  0.28910  0.65880  0.46790  1.0000
  H   H15       1.0  0.21090  0.15880  0.03210  1.0000
  H   H16       1.0  0.78910  0.15880  0.46790  1.0000
  C   C25       1.0  0.40872  0.36330  0.10340  1.0000
  C   C26       1.0  0.59128  0.36330  0.39660  1.0000
  C   C27       1.0  0.90872  0.86330  0.10340  1.0000
  C   C28       1.0  0.09128  0.86330  0.39660  1.0000
  C   C29       1.0  0.59128  0.63670  0.89660  1.0000
  C   C30       1.0  0.40872  0.63670  0.60340  1.0000
  C   C31       1.0  0.09128  0.13670  0.89660  1.0000
  C   C32       1.0  0.90872  0.13670  0.60340  1.0000
  C   C33       1.0  0.44840  0.41730  0.22030  1.0000
  C   C34       1.0  0.55160  0.41730  0.27970  1.0000
  C   C35       1.0  0.94840  0.91730  0.22030  1.0000
  C   C36       1.0  0.05160  0.91730  0.27970  1.0000
  C   C37       1.0  0.55160  0.58270  0.77970  1.0000
  C   C38       1.0  0.44840  0.58270  0.72030  1.0000
  C   C39       1.0  0.05160  0.08270  0.77970  1.0000
  C   C40       1.0  0.94840  0.08270  0.72030  1.0000
  C   C41       1.0  0.38930  0.48370  0.27670  1.0000
  C   C42       1.0  0.61070  0.48370  0.22330  1.0000
  C   C43       1.0  0.88930  0.98370  0.27670  1.0000
  C   C44       1.0  0.11070  0.98370  0.22330  1.0000
  C   C45       1.0  0.61070  0.51630  0.72330  1.0000
  C   C46       1.0  0.38930  0.51630  0.77670  1.0000
  C   C47       1.0  0.11070  0.01630  0.72330  1.0000
  C   C48       1.0  0.88930  0.01630  0.77670  1.0000
  H   H17       1.0  0.41370  0.51930  0.35500  1.0000
  H   H18       1.0  0.58630  0.51930  0.14500  1.0000
  H   H19       1.0  0.91370  0.01930  0.35500  1.0000
  H   H20       1.0  0.08630  0.01930  0.14500  1.0000
  H   H21       1.0  0.58630  0.48070  0.64500  1.0000
  H   H22       1.0  0.41370  0.48070  0.85500  1.0000
  H   H23       1.0  0.08630  0.98070  0.64500  1.0000
  H   H24       1.0  0.91370  0.98070  0.85500  1.0000
  C   C49       1.0  0.29500  0.49800  0.21910  1.0000
  C   C50       1.0  0.70500  0.49800  0.28090  1.0000
  C   C51       1.0  0.79500  0.99800  0.21910  1.0000
  C   C52       1.0  0.20500  0.99800  0.28090  1.0000
  C   C53       1.0  0.70500  0.50200  0.78090  1.0000
  C   C54       1.0  0.29500  0.50200  0.71910  1.0000
  C   C55       1.0  0.20500  0.00200  0.78090  1.0000
  C   C56       1.0  0.79500  0.00200  0.71910  1.0000
  H   H25       1.0  0.25690  0.54260  0.25940  1.0000
  H   H26       1.0  0.74310  0.54260  0.24060  1.0000
  H   H27       1.0  0.75690  0.04260  0.25940  1.0000
  H   H28       1.0  0.24310  0.04260  0.24060  1.0000
  H   H29       1.0  0.74310  0.45740  0.74060  1.0000
  H   H30       1.0  0.25690  0.45740  0.75940  1.0000
  H   H31       1.0  0.24310  0.95740  0.74060  1.0000
  H   H32       1.0  0.75690  0.95740  0.75940  1.0000
