data_image0
_chemical_formula_structural       Eu4S8O12H8O32C24H8C24H8C8H8
_chemical_formula_sum              "Eu4 S8 O44 H32 C56"
_cell_length_a       14.154
_cell_length_b       13.408
_cell_length_c       9.92
_cell_angle_alpha    90
_cell_angle_beta     98.367
_cell_angle_gamma    90

_space_group_name_H-M_alt    "P 1"
_space_group_IT_number       1

loop_
  _space_group_symop_operation_xyz
  'x, y, z'

loop_
  _atom_site_type_symbol
  _atom_site_label
  _atom_site_symmetry_multiplicity
  _atom_site_fract_x
  _atom_site_fract_y
  _atom_site_fract_z
  _atom_site_occupancy
  Eu  Eu1       1.0  0.50000  0.06815  0.25000  1.0000
  Eu  Eu2       1.0  0.00000  0.56815  0.25000  1.0000
  Eu  Eu3       1.0  0.50000  0.93185  0.75000  1.0000
  Eu  Eu4       1.0  0.00000  0.43185  0.75000  1.0000
  S   S1        1.0  0.48302  0.28500  0.01788  1.0000
  S   S2        1.0  0.51698  0.28500  0.48212  1.0000
  S   S3        1.0  0.98302  0.78500  0.01788  1.0000
  S   S4        1.0  0.01698  0.78500  0.48212  1.0000
  S   S5        1.0  0.51698  0.71500  0.98212  1.0000
  S   S6        1.0  0.48302  0.71500  0.51788  1.0000
  S   S7        1.0  0.01698  0.21500  0.98212  1.0000
  S   S8        1.0  0.98302  0.21500  0.51788  1.0000
  O   O1        1.0  0.13365  0.43790  0.91518  1.0000
  O   O2        1.0  0.86635  0.43790  0.58482  1.0000
  O   O3        1.0  0.63365  0.93790  0.91518  1.0000
  O   O4        1.0  0.36635  0.93790  0.58482  1.0000
  O   O5        1.0  0.86635  0.56210  0.08482  1.0000
  O   O6        1.0  0.13365  0.56210  0.41518  1.0000
  O   O7        1.0  0.36635  0.06210  0.08482  1.0000
  O   O8        1.0  0.63365  0.06210  0.41518  1.0000
  O   O9        1.0  0.50000  0.89131  0.25000  1.0000
  O   O10       1.0  0.00000  0.39131  0.25000  1.0000
  O   O11       1.0  0.50000  0.10869  0.75000  1.0000
  O   O12       1.0  0.00000  0.60869  0.75000  1.0000
  H   H1        1.0  0.47720  0.86140  0.31420  1.0000
  H   H2        1.0  0.52280  0.86140  0.18580  1.0000
  H   H3        1.0  0.97720  0.36140  0.31420  1.0000
  H   H4        1.0  0.02280  0.36140  0.18580  1.0000
  H   H5        1.0  0.52280  0.13860  0.68580  1.0000
  H   H6        1.0  0.47720  0.13860  0.81420  1.0000
  H   H7        1.0  0.02280  0.63860  0.68580  1.0000
  H   H8        1.0  0.97720  0.63860  0.81420  1.0000
  O   O13       1.0  0.10493  0.51688  0.10179  1.0000
  O   O14       1.0  0.89507  0.51688  0.39821  1.0000
  O   O15       1.0  0.60493  0.01688  0.10179  1.0000
  O   O16       1.0  0.39507  0.01688  0.39821  1.0000
  O   O17       1.0  0.89507  0.48312  0.89821  1.0000
  O   O18       1.0  0.10493  0.48312  0.60179  1.0000
  O   O19       1.0  0.39507  0.98312  0.89821  1.0000
  O   O20       1.0  0.60493  0.98312  0.60179  1.0000
  O   O21       1.0  0.55415  0.34813  0.97096  1.0000
  O   O22       1.0  0.44585  0.34813  0.52904  1.0000
  O   O23       1.0  0.05415  0.84813  0.97096  1.0000
  O   O24       1.0  0.94585  0.84813  0.52904  1.0000
  O   O25       1.0  0.44585  0.65187  0.02904  1.0000
  O   O26       1.0  0.55415  0.65187  0.47096  1.0000
  O   O27       1.0  0.94585  0.15187  0.02904  1.0000
  O   O28       1.0  0.05415  0.15187  0.47096  1.0000
  O   O29       1.0  0.41890  0.23742  0.90980  1.0000
  O   O30       1.0  0.58110  0.23742  0.59020  1.0000
  O   O31       1.0  0.91890  0.73742  0.90980  1.0000
  O   O32       1.0  0.08110  0.73742  0.59020  1.0000
  O   O33       1.0  0.58110  0.76258  0.09020  1.0000
  O   O34       1.0  0.41890  0.76258  0.40980  1.0000
  O   O35       1.0  0.08110  0.26258  0.09020  1.0000
  O   O36       1.0  0.91890  0.26258  0.40980  1.0000
  O   O37       1.0  0.52772  0.21271  0.11941  1.0000
  O   O38       1.0  0.47228  0.21271  0.38059  1.0000
  O   O39       1.0  0.02772  0.71271  0.11941  1.0000
  O   O40       1.0  0.97228  0.71271  0.38059  1.0000
  O   O41       1.0  0.47228  0.78729  0.88059  1.0000
  O   O42       1.0  0.52772  0.78729  0.61941  1.0000
  O   O43       1.0  0.97228  0.28729  0.88059  1.0000
  O   O44       1.0  0.02772  0.28729  0.61941  1.0000
  C   C1        1.0  0.15781  0.46708  0.03590  1.0000
  C   C2        1.0  0.84219  0.46708  0.46410  1.0000
  C   C3        1.0  0.65781  0.96708  0.03590  1.0000
  C   C4        1.0  0.34219  0.96708  0.46410  1.0000
  C   C5        1.0  0.84219  0.53292  0.96410  1.0000
  C   C6        1.0  0.15781  0.53292  0.53590  1.0000
  C   C7        1.0  0.34219  0.03292  0.96410  1.0000
  C   C8        1.0  0.65781  0.03292  0.53590  1.0000
  C   C9        1.0  0.25765  0.44587  0.10230  1.0000
  C   C10       1.0  0.74235  0.44587  0.39770  1.0000
  C   C11       1.0  0.75765  0.94587  0.10230  1.0000
  C   C12       1.0  0.24235  0.94587  0.39770  1.0000
  C   C13       1.0  0.74235  0.55413  0.89770  1.0000
  C   C14       1.0  0.25765  0.55413  0.60230  1.0000
  C   C15       1.0  0.24235  0.05413  0.89770  1.0000
  C   C16       1.0  0.75765  0.05413  0.60230  1.0000
  C   C17       1.0  0.31542  0.37823  0.04540  1.0000
  C   C18       1.0  0.68458  0.37823  0.45460  1.0000
  C   C19       1.0  0.81542  0.87823  0.04540  1.0000
  C   C20       1.0  0.18458  0.87823  0.45460  1.0000
  C   C21       1.0  0.68458  0.62177  0.95460  1.0000
  C   C22       1.0  0.31542  0.62177  0.54540  1.0000
  C   C23       1.0  0.18458  0.12177  0.95460  1.0000
  C   C24       1.0  0.81542  0.12177  0.54540  1.0000
  H   H9        1.0  0.29060  0.34240  0.96800  1.0000
  H   H10       1.0  0.70940  0.34240  0.53200  1.0000
  H   H11       1.0  0.79060  0.84240  0.96800  1.0000
  H   H12       1.0  0.20940  0.84240  0.53200  1.0000
  H   H13       1.0  0.70940  0.65760  0.03200  1.0000
  H   H14       1.0  0.29060  0.65760  0.46800  1.0000
  H   H15       1.0  0.20940  0.15760  0.03200  1.0000
  H   H16       1.0  0.79060  0.15760  0.46800  1.0000
  C   C25       1.0  0.40966  0.36400  0.10330  1.0000
  C   C26       1.0  0.59034  0.36400  0.39670  1.0000
  C   C27       1.0  0.90966  0.86400  0.10330  1.0000
  C   C28       1.0  0.09034  0.86400  0.39670  1.0000
  C   C29       1.0  0.59034  0.63600  0.89670  1.0000
  C   C30       1.0  0.40966  0.63600  0.60330  1.0000
  C   C31       1.0  0.09034  0.13600  0.89670  1.0000
  C   C32       1.0  0.90966  0.13600  0.60330  1.0000
  C   C33       1.0  0.44833  0.41700  0.22010  1.0000
  C   C34       1.0  0.55167  0.41700  0.27990  1.0000
  C   C35       1.0  0.94833  0.91700  0.22010  1.0000
  C   C36       1.0  0.05167  0.91700  0.27990  1.0000
  C   C37       1.0  0.55167  0.58300  0.77990  1.0000
  C   C38       1.0  0.44833  0.58300  0.72010  1.0000
  C   C39       1.0  0.05167  0.08300  0.77990  1.0000
  C   C40       1.0  0.94833  0.08300  0.72010  1.0000
  C   C41       1.0  0.38939  0.48279  0.27700  1.0000
  C   C42       1.0  0.61061  0.48279  0.22300  1.0000
  C   C43       1.0  0.88939  0.98279  0.27700  1.0000
  C   C44       1.0  0.11061  0.98279  0.22300  1.0000
  C   C45       1.0  0.61061  0.51721  0.72300  1.0000
  C   C46       1.0  0.38939  0.51721  0.77700  1.0000
  C   C47       1.0  0.11061  0.01721  0.72300  1.0000
  C   C48       1.0  0.88939  0.01721  0.77700  1.0000
  H   H17       1.0  0.41360  0.51810  0.35510  1.0000
  H   H18       1.0  0.58640  0.51810  0.14490  1.0000
  H   H19       1.0  0.91360  0.01810  0.35510  1.0000
  H   H20       1.0  0.08640  0.01810  0.14490  1.0000
  H   H21       1.0  0.58640  0.48190  0.64490  1.0000
  H   H22       1.0  0.41360  0.48190  0.85510  1.0000
  H   H23       1.0  0.08640  0.98190  0.64490  1.0000
  H   H24       1.0  0.91360  0.98190  0.85510  1.0000
  C   C49       1.0  0.29530  0.49674  0.21960  1.0000
  C   C50       1.0  0.70470  0.49674  0.28040  1.0000
  C   C51       1.0  0.79530  0.99674  0.21960  1.0000
  C   C52       1.0  0.20470  0.99674  0.28040  1.0000
  C   C53       1.0  0.70470  0.50326  0.78040  1.0000
  C   C54       1.0  0.29530  0.50326  0.71960  1.0000
  C   C55       1.0  0.20470  0.00326  0.78040  1.0000
  C   C56       1.0  0.79530  0.00326  0.71960  1.0000
  H   H25       1.0  0.25690  0.54060  0.26000  1.0000
  H   H26       1.0  0.74310  0.54060  0.24000  1.0000
  H   H27       1.0  0.75690  0.04060  0.26000  1.0000
  H   H28       1.0  0.24310  0.04060  0.24000  1.0000
  H   H29       1.0  0.74310  0.45940  0.74000  1.0000
  H   H30       1.0  0.25690  0.45940  0.76000  1.0000
  H   H31       1.0  0.24310  0.95940  0.74000  1.0000
  H   H32       1.0  0.75690  0.95940  0.76000  1.0000
