data_image0
_chemical_formula_structural       Gd4S8O12H8O32C24H8C24H8C8H8
_chemical_formula_sum              "Gd4 S8 O44 H32 C56"
_cell_length_a       14.151
_cell_length_b       13.395
_cell_length_c       9.911
_cell_angle_alpha    90
_cell_angle_beta     98.331
_cell_angle_gamma    90

_space_group_name_H-M_alt    "P 1"
_space_group_IT_number       1

loop_
  _space_group_symop_operation_xyz
  'x, y, z'

loop_
  _atom_site_type_symbol
  _atom_site_label
  _atom_site_symmetry_multiplicity
  _atom_site_fract_x
  _atom_site_fract_y
  _atom_site_fract_z
  _atom_site_occupancy
  Gd  Gd1       1.0  0.50000  0.06804  0.25000  1.0000
  Gd  Gd2       1.0  0.00000  0.56804  0.25000  1.0000
  Gd  Gd3       1.0  0.50000  0.93196  0.75000  1.0000
  Gd  Gd4       1.0  0.00000  0.43196  0.75000  1.0000
  S   S1        1.0  0.48286  0.28448  0.01792  1.0000
  S   S2        1.0  0.51714  0.28448  0.48208  1.0000
  S   S3        1.0  0.98286  0.78448  0.01792  1.0000
  S   S4        1.0  0.01714  0.78448  0.48208  1.0000
  S   S5        1.0  0.51714  0.71552  0.98208  1.0000
  S   S6        1.0  0.48286  0.71552  0.51792  1.0000
  S   S7        1.0  0.01714  0.21552  0.98208  1.0000
  S   S8        1.0  0.98286  0.21552  0.51792  1.0000
  O   O1        1.0  0.13329  0.43807  0.91515  1.0000
  O   O2        1.0  0.86671  0.43807  0.58485  1.0000
  O   O3        1.0  0.63329  0.93807  0.91515  1.0000
  O   O4        1.0  0.36671  0.93807  0.58485  1.0000
  O   O5        1.0  0.86671  0.56193  0.08485  1.0000
  O   O6        1.0  0.13329  0.56193  0.41515  1.0000
  O   O7        1.0  0.36671  0.06193  0.08485  1.0000
  O   O8        1.0  0.63329  0.06193  0.41515  1.0000
  O   O9        1.0  0.50000  0.89240  0.25000  1.0000
  O   O10       1.0  0.00000  0.39240  0.25000  1.0000
  O   O11       1.0  0.50000  0.10760  0.75000  1.0000
  O   O12       1.0  0.00000  0.60760  0.75000  1.0000
  H   H1        1.0  0.47720  0.86250  0.31420  1.0000
  H   H2        1.0  0.52280  0.86250  0.18580  1.0000
  H   H3        1.0  0.97720  0.36250  0.31420  1.0000
  H   H4        1.0  0.02280  0.36250  0.18580  1.0000
  H   H5        1.0  0.52280  0.13750  0.68580  1.0000
  H   H6        1.0  0.47720  0.13750  0.81420  1.0000
  H   H7        1.0  0.02280  0.63750  0.68580  1.0000
  H   H8        1.0  0.97720  0.63750  0.81420  1.0000
  O   O13       1.0  0.10447  0.51723  0.10239  1.0000
  O   O14       1.0  0.89553  0.51723  0.39761  1.0000
  O   O15       1.0  0.60447  0.01723  0.10239  1.0000
  O   O16       1.0  0.39553  0.01723  0.39761  1.0000
  O   O17       1.0  0.89553  0.48277  0.89761  1.0000
  O   O18       1.0  0.10447  0.48277  0.60239  1.0000
  O   O19       1.0  0.39553  0.98277  0.89761  1.0000
  O   O20       1.0  0.60447  0.98277  0.60239  1.0000
  O   O21       1.0  0.55416  0.34743  0.97080  1.0000
  O   O22       1.0  0.44584  0.34743  0.52920  1.0000
  O   O23       1.0  0.05416  0.84743  0.97080  1.0000
  O   O24       1.0  0.94584  0.84743  0.52920  1.0000
  O   O25       1.0  0.44584  0.65257  0.02920  1.0000
  O   O26       1.0  0.55416  0.65257  0.47080  1.0000
  O   O27       1.0  0.94584  0.15257  0.02920  1.0000
  O   O28       1.0  0.05416  0.15257  0.47080  1.0000
  O   O29       1.0  0.41874  0.23708  0.90969  1.0000
  O   O30       1.0  0.58126  0.23708  0.59031  1.0000
  O   O31       1.0  0.91874  0.73708  0.90969  1.0000
  O   O32       1.0  0.08126  0.73708  0.59031  1.0000
  O   O33       1.0  0.58126  0.76292  0.09031  1.0000
  O   O34       1.0  0.41874  0.76292  0.40969  1.0000
  O   O35       1.0  0.08126  0.26292  0.09031  1.0000
  O   O36       1.0  0.91874  0.26292  0.40969  1.0000
  O   O37       1.0  0.52773  0.21209  0.11969  1.0000
  O   O38       1.0  0.47227  0.21209  0.38031  1.0000
  O   O39       1.0  0.02773  0.71209  0.11969  1.0000
  O   O40       1.0  0.97227  0.71209  0.38031  1.0000
  O   O41       1.0  0.47227  0.78791  0.88031  1.0000
  O   O42       1.0  0.52773  0.78791  0.61969  1.0000
  O   O43       1.0  0.97227  0.28791  0.88031  1.0000
  O   O44       1.0  0.02773  0.28791  0.61969  1.0000
  C   C1        1.0  0.15747  0.46762  0.03590  1.0000
  C   C2        1.0  0.84253  0.46762  0.46410  1.0000
  C   C3        1.0  0.65747  0.96762  0.03590  1.0000
  C   C4        1.0  0.34253  0.96762  0.46410  1.0000
  C   C5        1.0  0.84253  0.53238  0.96410  1.0000
  C   C6        1.0  0.15747  0.53238  0.53590  1.0000
  C   C7        1.0  0.34253  0.03238  0.96410  1.0000
  C   C8        1.0  0.65747  0.03238  0.53590  1.0000
  C   C9        1.0  0.25750  0.44611  0.10230  1.0000
  C   C10       1.0  0.74250  0.44611  0.39770  1.0000
  C   C11       1.0  0.75750  0.94611  0.10230  1.0000
  C   C12       1.0  0.24250  0.94611  0.39770  1.0000
  C   C13       1.0  0.74250  0.55389  0.89770  1.0000
  C   C14       1.0  0.25750  0.55389  0.60230  1.0000
  C   C15       1.0  0.24250  0.05389  0.89770  1.0000
  C   C16       1.0  0.75750  0.05389  0.60230  1.0000
  C   C17       1.0  0.31508  0.37806  0.04550  1.0000
  C   C18       1.0  0.68492  0.37806  0.45450  1.0000
  C   C19       1.0  0.81508  0.87806  0.04550  1.0000
  C   C20       1.0  0.18492  0.87806  0.45450  1.0000
  C   C21       1.0  0.68492  0.62194  0.95450  1.0000
  C   C22       1.0  0.31508  0.62194  0.54550  1.0000
  C   C23       1.0  0.18492  0.12194  0.95450  1.0000
  C   C24       1.0  0.81508  0.12194  0.54550  1.0000
  H   H9        1.0  0.29010  0.34190  0.96840  1.0000
  H   H10       1.0  0.70990  0.34190  0.53160  1.0000
  H   H11       1.0  0.79010  0.84190  0.96840  1.0000
  H   H12       1.0  0.20990  0.84190  0.53160  1.0000
  H   H13       1.0  0.70990  0.65810  0.03160  1.0000
  H   H14       1.0  0.29010  0.65810  0.46840  1.0000
  H   H15       1.0  0.20990  0.15810  0.03160  1.0000
  H   H16       1.0  0.79010  0.15810  0.46840  1.0000
  C   C25       1.0  0.40955  0.36398  0.10350  1.0000
  C   C26       1.0  0.59045  0.36398  0.39650  1.0000
  C   C27       1.0  0.90955  0.86398  0.10350  1.0000
  C   C28       1.0  0.09045  0.86398  0.39650  1.0000
  C   C29       1.0  0.59045  0.63602  0.89650  1.0000
  C   C30       1.0  0.40955  0.63602  0.60350  1.0000
  C   C31       1.0  0.09045  0.13602  0.89650  1.0000
  C   C32       1.0  0.90955  0.13602  0.60350  1.0000
  C   C33       1.0  0.44847  0.41720  0.22020  1.0000
  C   C34       1.0  0.55153  0.41720  0.27980  1.0000
  C   C35       1.0  0.94847  0.91720  0.22020  1.0000
  C   C36       1.0  0.05153  0.91720  0.27980  1.0000
  C   C37       1.0  0.55153  0.58280  0.77980  1.0000
  C   C38       1.0  0.44847  0.58280  0.72020  1.0000
  C   C39       1.0  0.05153  0.08280  0.77980  1.0000
  C   C40       1.0  0.94847  0.08280  0.72020  1.0000
  C   C41       1.0  0.38929  0.48320  0.27670  1.0000
  C   C42       1.0  0.61071  0.48320  0.22330  1.0000
  C   C43       1.0  0.88929  0.98320  0.27670  1.0000
  C   C44       1.0  0.11071  0.98320  0.22330  1.0000
  C   C45       1.0  0.61071  0.51680  0.72330  1.0000
  C   C46       1.0  0.38929  0.51680  0.77670  1.0000
  C   C47       1.0  0.11071  0.01680  0.72330  1.0000
  C   C48       1.0  0.88929  0.01680  0.77670  1.0000
  H   H17       1.0  0.41360  0.51850  0.35490  1.0000
  H   H18       1.0  0.58640  0.51850  0.14510  1.0000
  H   H19       1.0  0.91360  0.01850  0.35490  1.0000
  H   H20       1.0  0.08640  0.01850  0.14510  1.0000
  H   H21       1.0  0.58640  0.48150  0.64510  1.0000
  H   H22       1.0  0.41360  0.48150  0.85490  1.0000
  H   H23       1.0  0.08640  0.98150  0.64510  1.0000
  H   H24       1.0  0.91360  0.98150  0.85490  1.0000
  C   C49       1.0  0.29537  0.49750  0.21960  1.0000
  C   C50       1.0  0.70463  0.49750  0.28040  1.0000
  C   C51       1.0  0.79537  0.99750  0.21960  1.0000
  C   C52       1.0  0.20463  0.99750  0.28040  1.0000
  C   C53       1.0  0.70463  0.50250  0.78040  1.0000
  C   C54       1.0  0.29537  0.50250  0.71960  1.0000
  C   C55       1.0  0.20463  0.00250  0.78040  1.0000
  C   C56       1.0  0.79537  0.00250  0.71960  1.0000
  H   H25       1.0  0.25720  0.54180  0.25990  1.0000
  H   H26       1.0  0.74280  0.54180  0.24010  1.0000
  H   H27       1.0  0.75720  0.04180  0.25990  1.0000
  H   H28       1.0  0.24280  0.04180  0.24010  1.0000
  H   H29       1.0  0.74280  0.45820  0.74010  1.0000
  H   H30       1.0  0.25720  0.45820  0.75990  1.0000
  H   H31       1.0  0.24280  0.95820  0.74010  1.0000
  H   H32       1.0  0.75720  0.95820  0.75990  1.0000
