data_image0
_chemical_formula_structural       Cr4Mn4O52H4C28H8C4H12
_chemical_formula_sum              "Cr4 Mn4 O52 H24 C32"
_cell_length_a       8.6979
_cell_length_b       16.2111
_cell_length_c       15.9561
_cell_angle_alpha    90
_cell_angle_beta     90
_cell_angle_gamma    90

_space_group_name_H-M_alt    "P 1"
_space_group_IT_number       1

loop_
  _space_group_symop_operation_xyz
  'x, y, z'

loop_
  _atom_site_type_symbol
  _atom_site_label
  _atom_site_symmetry_multiplicity
  _atom_site_fract_x
  _atom_site_fract_y
  _atom_site_fract_z
  _atom_site_occupancy
  Cr  Cr1       1.0  0.17301  0.02283  0.45037  1.0000
  Cr  Cr2       1.0  0.82699  0.97718  0.95037  1.0000
  Cr  Cr3       1.0  0.32699  0.52282  0.95037  1.0000
  Cr  Cr4       1.0  0.67301  0.47718  0.45037  1.0000
  Mn  Mn1       1.0  0.33341  0.89286  0.75823  1.0000
  Mn  Mn2       1.0  0.66659  0.10714  0.25823  1.0000
  Mn  Mn3       1.0  0.16659  0.39286  0.25823  1.0000
  Mn  Mn4       1.0  0.83341  0.60714  0.75823  1.0000
  O   O1        1.0  0.26922  0.92312  0.49693  1.0000
  O   O2        1.0  0.73078  0.07688  0.99693  1.0000
  O   O3        1.0  0.23078  0.42312  0.99693  1.0000
  O   O4        1.0  0.76922  0.57688  0.49693  1.0000
  O   O5        1.0  0.12228  0.04539  0.56917  1.0000
  O   O6        1.0  0.87772  0.95461  0.06917  1.0000
  O   O7        1.0  0.37772  0.54539  0.06917  1.0000
  O   O8        1.0  0.62228  0.45461  0.56917  1.0000
  O   O9        1.0  0.25542  0.99627  0.33706  1.0000
  O   O10       1.0  0.74458  0.00373  0.83706  1.0000
  O   O11       1.0  0.24458  0.49627  0.83706  1.0000
  O   O12       1.0  0.75542  0.50373  0.33706  1.0000
  O   O13       1.0  0.36440  0.08693  0.46074  1.0000
  O   O14       1.0  0.63560  0.91307  0.96074  1.0000
  O   O15       1.0  0.13560  0.58693  0.96074  1.0000
  O   O16       1.0  0.86440  0.41307  0.46074  1.0000
  O   O17       1.0  0.97182  0.97127  0.42765  1.0000
  O   O18       1.0  0.02818  0.02873  0.92765  1.0000
  O   O19       1.0  0.52818  0.47127  0.92765  1.0000
  O   O20       1.0  0.47182  0.52873  0.42765  1.0000
  O   O21       1.0  0.07208  0.12094  0.40160  1.0000
  O   O22       1.0  0.92792  0.87906  0.90160  1.0000
  O   O23       1.0  0.42792  0.62094  0.90160  1.0000
  O   O24       1.0  0.57208  0.37906  0.40160  1.0000
  O   O25       1.0  0.34490  0.87443  0.62139  1.0000
  O   O26       1.0  0.65510  0.12557  0.12139  1.0000
  O   O27       1.0  0.15510  0.37443  0.12139  1.0000
  O   O28       1.0  0.84490  0.62557  0.62139  1.0000
  O   O29       1.0  0.18674  0.99678  0.69649  1.0000
  O   O30       1.0  0.81326  0.00322  0.19649  1.0000
  O   O31       1.0  0.31326  0.49678  0.19649  1.0000
  O   O32       1.0  0.68674  0.50322  0.69649  1.0000
  O   O33       1.0  0.45718  0.02953  0.25638  1.0000
  O   O34       1.0  0.54282  0.97047  0.75638  1.0000
  O   O35       1.0  0.04282  0.52953  0.75638  1.0000
  O   O36       1.0  0.95718  0.47047  0.25638  1.0000
  O   O37       1.0  0.54364  0.13977  0.37566  1.0000
  O   O38       1.0  0.45636  0.86023  0.87566  1.0000
  O   O39       1.0  0.95636  0.63977  0.87566  1.0000
  O   O40       1.0  0.04364  0.36023  0.37566  1.0000
  O   O41       1.0  0.87749  0.15000  0.31633  1.0000
  O   O42       1.0  0.12251  0.85000  0.81633  1.0000
  O   O43       1.0  0.62251  0.65000  0.81633  1.0000
  O   O44       1.0  0.37749  0.35000  0.31633  1.0000
  O   O45       1.0  0.74620  0.00152  0.36728  1.0000
  O   O46       1.0  0.25380  0.99848  0.86728  1.0000
  O   O47       1.0  0.75380  0.50152  0.86728  1.0000
  O   O48       1.0  0.24620  0.49848  0.36728  1.0000
  O   O49       1.0  0.38663  0.75959  0.74104  1.0000
  O   O50       1.0  0.61337  0.24041  0.24104  1.0000
  O   O51       1.0  0.11337  0.25959  0.24104  1.0000
  O   O52       1.0  0.88663  0.74041  0.74104  1.0000
  H   H1        1.0  0.43800  0.73670  0.77360  1.0000
  H   H2        1.0  0.56200  0.26330  0.27360  1.0000
  H   H3        1.0  0.06200  0.23670  0.27360  1.0000
  H   H4        1.0  0.93800  0.76330  0.77360  1.0000
  C   C1        1.0  0.27596  0.92411  0.57678  1.0000
  C   C2        1.0  0.72404  0.07589  0.07678  1.0000
  C   C3        1.0  0.22404  0.42411  0.07678  1.0000
  C   C4        1.0  0.77596  0.57589  0.57678  1.0000
  C   C5        1.0  0.18724  0.99479  0.61952  1.0000
  C   C6        1.0  0.81276  0.00521  0.11952  1.0000
  C   C7        1.0  0.31276  0.49479  0.11952  1.0000
  C   C8        1.0  0.68724  0.50521  0.61952  1.0000
  C   C9        1.0  0.37951  0.03469  0.32127  1.0000
  C   C10       1.0  0.62049  0.96531  0.82127  1.0000
  C   C11       1.0  0.12049  0.53469  0.82127  1.0000
  C   C12       1.0  0.87951  0.46531  0.32127  1.0000
  C   C13       1.0  0.43594  0.09302  0.39152  1.0000
  C   C14       1.0  0.56406  0.90698  0.89152  1.0000
  C   C15       1.0  0.06406  0.59302  0.89152  1.0000
  C   C16       1.0  0.93594  0.40698  0.39152  1.0000
  C   C17       1.0  0.87917  0.01817  0.38752  1.0000
  C   C18       1.0  0.12083  0.98183  0.88752  1.0000
  C   C19       1.0  0.62083  0.51817  0.88752  1.0000
  C   C20       1.0  0.37917  0.48183  0.38752  1.0000
  C   C21       1.0  0.94563  0.10390  0.36589  1.0000
  C   C22       1.0  0.05437  0.89610  0.86589  1.0000
  C   C23       1.0  0.55437  0.60390  0.86589  1.0000
  C   C24       1.0  0.44563  0.39610  0.36589  1.0000
  C   C25       1.0  0.28182  0.70348  0.70149  1.0000
  C   C26       1.0  0.71818  0.29652  0.20149  1.0000
  C   C27       1.0  0.21818  0.20348  0.20149  1.0000
  C   C28       1.0  0.78182  0.79652  0.70149  1.0000
  H   H5        1.0  0.21530  0.73480  0.66250  1.0000
  H   H6        1.0  0.78470  0.26520  0.16250  1.0000
  H   H7        1.0  0.28470  0.23480  0.16250  1.0000
  H   H8        1.0  0.71530  0.76520  0.66250  1.0000
  H   H9        1.0  0.21490  0.67870  0.74490  1.0000
  H   H10       1.0  0.78510  0.32130  0.24490  1.0000
  H   H11       1.0  0.28510  0.17870  0.24490  1.0000
  H   H12       1.0  0.71490  0.82130  0.74490  1.0000
  C   C29       1.0  0.35940  0.63579  0.65406  1.0000
  C   C30       1.0  0.64060  0.36421  0.15406  1.0000
  C   C31       1.0  0.14060  0.13579  0.15406  1.0000
  C   C32       1.0  0.85940  0.86421  0.65406  1.0000
  H   H13       1.0  0.43060  0.65960  0.61310  1.0000
  H   H14       1.0  0.56940  0.34040  0.11310  1.0000
  H   H15       1.0  0.06940  0.15960  0.11310  1.0000
  H   H16       1.0  0.93060  0.84040  0.61310  1.0000
  H   H17       1.0  0.28190  0.60270  0.62480  1.0000
  H   H18       1.0  0.71810  0.39730  0.12480  1.0000
  H   H19       1.0  0.21810  0.10270  0.12480  1.0000
  H   H20       1.0  0.78190  0.89730  0.62480  1.0000
  H   H21       1.0  0.41650  0.60060  0.69320  1.0000
  H   H22       1.0  0.58350  0.39940  0.19320  1.0000
  H   H23       1.0  0.08350  0.10060  0.19320  1.0000
  H   H24       1.0  0.91650  0.89940  0.69320  1.0000
