data_image0
_chemical_formula_structural       Zn16C8O4C8O36C4H4C4O8C8H4O8C12H4C8H4C4H4C4H4C12O4C8H4C8H4C8H4C4H4C8H4C8H4C4H4C4H4C4H4C4H4C4
_chemical_formula_sum              "Zn16 C136 O60 H64"
_cell_length_a       10.283
_cell_length_b       27.339
_cell_length_c       27.246
_cell_angle_alpha    90
_cell_angle_beta     92.806
_cell_angle_gamma    90

_space_group_name_H-M_alt    "P 1"
_space_group_IT_number       1

loop_
  _space_group_symop_operation_xyz
  'x, y, z'

loop_
  _atom_site_type_symbol
  _atom_site_label
  _atom_site_symmetry_multiplicity
  _atom_site_fract_x
  _atom_site_fract_y
  _atom_site_fract_z
  _atom_site_occupancy
  Zn  Zn1       1.0  0.81821  0.30195  0.19714  1.0000
  Zn  Zn2       1.0  0.68179  0.80195  0.30286  1.0000
  Zn  Zn3       1.0  0.18179  0.69805  0.80286  1.0000
  Zn  Zn4       1.0  0.31821  0.19805  0.69714  1.0000
  Zn  Zn5       1.0  0.95259  0.32177  0.09907  1.0000
  Zn  Zn6       1.0  0.54741  0.82177  0.40093  1.0000
  Zn  Zn7       1.0  0.04741  0.67823  0.90093  1.0000
  Zn  Zn8       1.0  0.45259  0.17823  0.59907  1.0000
  Zn  Zn9       1.0  0.10928  0.30834  0.20377  1.0000
  Zn  Zn10      1.0  0.39072  0.80834  0.29623  1.0000
  Zn  Zn11      1.0  0.89072  0.69166  0.79623  1.0000
  Zn  Zn12      1.0  0.60928  0.19166  0.70377  1.0000
  Zn  Zn13      1.0  0.95995  0.40630  0.18166  1.0000
  Zn  Zn14      1.0  0.54005  0.90630  0.31834  1.0000
  Zn  Zn15      1.0  0.04005  0.59370  0.81834  1.0000
  Zn  Zn16      1.0  0.45995  0.09370  0.68166  1.0000
  C   C1        1.0  0.68910  0.28261  0.10011  1.0000
  C   C2        1.0  0.81090  0.78261  0.39989  1.0000
  C   C3        1.0  0.31090  0.71739  0.89989  1.0000
  C   C4        1.0  0.18910  0.21739  0.60011  1.0000
  C   C5        1.0  0.20610  0.28806  0.09723  1.0000
  C   C6        1.0  0.29390  0.78806  0.40277  1.0000
  C   C7        1.0  0.79390  0.71194  0.90277  1.0000
  C   C8        1.0  0.70610  0.21194  0.59723  1.0000
  O   O1        1.0  0.23540  0.35939  0.22494  1.0000
  O   O2        1.0  0.26460  0.85939  0.27506  1.0000
  O   O3        1.0  0.76460  0.64061  0.77506  1.0000
  O   O4        1.0  0.73540  0.14061  0.72494  1.0000
  C   C9        1.0  0.22600  0.40497  0.22244  1.0000
  C   C10       1.0  0.27400  0.90497  0.27756  1.0000
  C   C11       1.0  0.77400  0.59503  0.77756  1.0000
  C   C12       1.0  0.72600  0.09503  0.72244  1.0000
  C   C13       1.0  0.41960  0.20355  0.79076  1.0000
  C   C14       1.0  0.08040  0.70355  0.70924  1.0000
  C   C15       1.0  0.58040  0.79645  0.20924  1.0000
  C   C16       1.0  0.91960  0.29645  0.29076  1.0000
  O   O5        1.0  0.68750  0.28140  0.14640  1.0000
  O   O6        1.0  0.81250  0.78140  0.35360  1.0000
  O   O7        1.0  0.31250  0.71860  0.85360  1.0000
  O   O8        1.0  0.18750  0.21860  0.64640  1.0000
  O   O9        1.0  0.81140  0.43338  0.21292  1.0000
  O   O10       1.0  0.68860  0.93338  0.28708  1.0000
  O   O11       1.0  0.18860  0.56662  0.78708  1.0000
  O   O12       1.0  0.31140  0.06662  0.71292  1.0000
  O   O13       1.0  0.96550  0.44238  0.11918  1.0000
  O   O14       1.0  0.53450  0.94238  0.38082  1.0000
  O   O15       1.0  0.03450  0.55762  0.88082  1.0000
  O   O16       1.0  0.46550  0.05762  0.61918  1.0000
  O   O17       1.0  0.38000  0.73978  0.27773  1.0000
  O   O18       1.0  0.12000  0.23978  0.22227  1.0000
  O   O19       1.0  0.62000  0.26022  0.72227  1.0000
  O   O20       1.0  0.88000  0.76022  0.77773  1.0000
  O   O21       1.0  0.95882  0.33756  0.16762  1.0000
  O   O22       1.0  0.54118  0.83756  0.33238  1.0000
  O   O23       1.0  0.04118  0.66244  0.83238  1.0000
  O   O24       1.0  0.45882  0.16244  0.66762  1.0000
  O   O25       1.0  0.32250  0.21914  0.76509  1.0000
  O   O26       1.0  0.17750  0.71914  0.73491  1.0000
  O   O27       1.0  0.67750  0.78086  0.23491  1.0000
  O   O28       1.0  0.82250  0.28086  0.26509  1.0000
  O   O29       1.0  0.10080  0.28889  0.07214  1.0000
  O   O30       1.0  0.39920  0.78889  0.42786  1.0000
  O   O31       1.0  0.89920  0.71111  0.92786  1.0000
  O   O32       1.0  0.60080  0.21111  0.57214  1.0000
  O   O33       1.0  0.78850  0.29117  0.07619  1.0000
  O   O34       1.0  0.71150  0.79117  0.42381  1.0000
  O   O35       1.0  0.21150  0.70883  0.92381  1.0000
  O   O36       1.0  0.28850  0.20883  0.57619  1.0000
  O   O37       1.0  0.12310  0.42914  0.21444  1.0000
  O   O38       1.0  0.37690  0.92914  0.28556  1.0000
  O   O39       1.0  0.87690  0.57086  0.78556  1.0000
  O   O40       1.0  0.62310  0.07086  0.71444  1.0000
  C   C17       1.0  0.46790  0.40941  0.22364  1.0000
  C   C18       1.0  0.03210  0.90941  0.27636  1.0000
  C   C19       1.0  0.53210  0.59059  0.77636  1.0000
  C   C20       1.0  0.96790  0.09059  0.72364  1.0000
  H   H1        1.0  0.46760  0.37620  0.21630  1.0000
  H   H2        1.0  0.03240  0.87620  0.28370  1.0000
  H   H3        1.0  0.53240  0.62380  0.78370  1.0000
  H   H4        1.0  0.96760  0.12380  0.71630  1.0000
  C   C21       1.0  0.35050  0.43296  0.22998  1.0000
  C   C22       1.0  0.14950  0.93296  0.27002  1.0000
  C   C23       1.0  0.64950  0.56704  0.77002  1.0000
  C   C24       1.0  0.85050  0.06704  0.72998  1.0000
  O   O41       1.0  0.51000  0.17980  0.77492  1.0000
  O   O42       1.0  0.99000  0.67980  0.72508  1.0000
  O   O43       1.0  0.49000  0.82020  0.22508  1.0000
  O   O44       1.0  0.01000  0.32020  0.27492  1.0000
  O   O45       1.0  0.70070  0.36291  0.21121  1.0000
  O   O46       1.0  0.79930  0.86291  0.28879  1.0000
  O   O47       1.0  0.29930  0.63709  0.78879  1.0000
  O   O48       1.0  0.20070  0.13709  0.71121  1.0000
  C   C25       1.0  0.56380  0.27432  0.07290  1.0000
  C   C26       1.0  0.93620  0.77432  0.42710  1.0000
  C   C27       1.0  0.43620  0.72568  0.92710  1.0000
  C   C28       1.0  0.06380  0.22568  0.57290  1.0000
  C   C29       1.0  0.44770  0.28130  0.09591  1.0000
  C   C30       1.0  0.05230  0.78130  0.40409  1.0000
  C   C31       1.0  0.55230  0.71870  0.90409  1.0000
  C   C32       1.0  0.94770  0.21870  0.59591  1.0000
  H   H5        1.0  0.45050  0.28910  0.12920  1.0000
  H   H6        1.0  0.04950  0.78910  0.37080  1.0000
  H   H7        1.0  0.54950  0.71090  0.87080  1.0000
  H   H8        1.0  0.95050  0.21090  0.62920  1.0000
  O   O49       1.0  0.22020  0.29736  0.14171  1.0000
  O   O50       1.0  0.27980  0.79736  0.35829  1.0000
  O   O51       1.0  0.77980  0.70264  0.85829  1.0000
  O   O52       1.0  0.72020  0.20264  0.64171  1.0000
  O   O53       1.0  0.57190  0.73152  0.31833  1.0000
  O   O54       1.0  0.92810  0.23152  0.18167  1.0000
  O   O55       1.0  0.42810  0.26848  0.68167  1.0000
  O   O56       1.0  0.07190  0.76848  0.81833  1.0000
  C   C33       1.0  0.46930  0.50814  0.24682  1.0000
  C   C34       1.0  0.03070  0.00814  0.25318  1.0000
  C   C35       1.0  0.53070  0.49186  0.75318  1.0000
  C   C36       1.0  0.96930  0.99186  0.74682  1.0000
  C   C37       1.0  0.43710  0.25537  0.99742  1.0000
  C   C38       1.0  0.06290  0.75537  0.50258  1.0000
  C   C39       1.0  0.56290  0.74463  0.00258  1.0000
  C   C40       1.0  0.93710  0.24463  0.49742  1.0000
  C   C41       1.0  0.55780  0.26155  0.02346  1.0000
  C   C42       1.0  0.94220  0.76155  0.47654  1.0000
  C   C43       1.0  0.44220  0.73845  0.97654  1.0000
  C   C44       1.0  0.05780  0.23845  0.52346  1.0000
  H   H9        1.0  0.63460  0.25700  0.00730  1.0000
  H   H10       1.0  0.86540  0.75700  0.49270  1.0000
  H   H11       1.0  0.36540  0.74300  0.99270  1.0000
  H   H12       1.0  0.13460  0.24300  0.50730  1.0000
  C   C45       1.0  0.58470  0.43382  0.22792  1.0000
  C   C46       1.0  0.91530  0.93382  0.27208  1.0000
  C   C47       1.0  0.41530  0.56618  0.77208  1.0000
  C   C48       1.0  0.08470  0.06618  0.72792  1.0000
  C   C49       1.0  0.52350  0.20079  0.87546  1.0000
  C   C50       1.0  0.97650  0.70079  0.62454  1.0000
  C   C51       1.0  0.47650  0.79921  0.12454  1.0000
  C   C52       1.0  0.02350  0.29921  0.37546  1.0000
  H   H13       1.0  0.58910  0.18140  0.86340  1.0000
  H   H14       1.0  0.91090  0.68140  0.63660  1.0000
  H   H15       1.0  0.41090  0.81860  0.13660  1.0000
  H   H16       1.0  0.08910  0.31860  0.36340  1.0000
  C   C53       1.0  0.32320  0.26447  0.02192  1.0000
  C   C54       1.0  0.17680  0.76447  0.47808  1.0000
  C   C55       1.0  0.67680  0.73553  0.97808  1.0000
  C   C56       1.0  0.82320  0.23553  0.52192  1.0000
  H   H17       1.0  0.24290  0.26200  0.00490  1.0000
  H   H18       1.0  0.25710  0.76200  0.49510  1.0000
  H   H19       1.0  0.75710  0.73800  0.99510  1.0000
  H   H20       1.0  0.74290  0.23800  0.50490  1.0000
  C   C57       1.0  0.58400  0.48369  0.23930  1.0000
  C   C58       1.0  0.91600  0.98369  0.26070  1.0000
  C   C59       1.0  0.41600  0.51631  0.76070  1.0000
  C   C60       1.0  0.08400  0.01631  0.73930  1.0000
  H   H21       1.0  0.66230  0.50070  0.24190  1.0000
  H   H22       1.0  0.83770  0.00070  0.25810  1.0000
  H   H23       1.0  0.33770  0.49930  0.75810  1.0000
  H   H24       1.0  0.16230  0.99930  0.74190  1.0000
  C   C61       1.0  0.32850  0.27708  0.07103  1.0000
  C   C62       1.0  0.17150  0.77708  0.42897  1.0000
  C   C63       1.0  0.67150  0.72292  0.92897  1.0000
  C   C64       1.0  0.82850  0.22292  0.57103  1.0000
  C   C65       1.0  0.47750  0.71473  0.29484  1.0000
  C   C66       1.0  0.02250  0.21473  0.20516  1.0000
  C   C67       1.0  0.52250  0.28527  0.70516  1.0000
  C   C68       1.0  0.97750  0.78527  0.79484  1.0000
  C   C69       1.0  0.70910  0.40782  0.21639  1.0000
  C   C70       1.0  0.79090  0.90782  0.28361  1.0000
  C   C71       1.0  0.29090  0.59218  0.78361  1.0000
  C   C72       1.0  0.20910  0.09218  0.71639  1.0000
  O   O57       1.0  0.95220  0.38373  0.06162  1.0000
  O   O58       1.0  0.54780  0.88373  0.43838  1.0000
  O   O59       1.0  0.04780  0.61627  0.93838  1.0000
  O   O60       1.0  0.45220  0.11627  0.56162  1.0000
  C   C73       1.0  0.46970  0.56105  0.25840  1.0000
  C   C74       1.0  0.03030  0.06105  0.24160  1.0000
  C   C75       1.0  0.53030  0.43895  0.74160  1.0000
  C   C76       1.0  0.96970  0.93895  0.75840  1.0000
  C   C77       1.0  0.52640  0.21361  0.92525  1.0000
  C   C78       1.0  0.97360  0.71361  0.57475  1.0000
  C   C79       1.0  0.47360  0.78639  0.07475  1.0000
  C   C80       1.0  0.02640  0.28639  0.42525  1.0000
  H   H25       1.0  0.59500  0.20280  0.94590  1.0000
  H   H26       1.0  0.90500  0.70280  0.55410  1.0000
  H   H27       1.0  0.40500  0.79720  0.05410  1.0000
  H   H28       1.0  0.09500  0.29720  0.44590  1.0000
  C   C81       1.0  0.43110  0.24160  0.94418  1.0000
  C   C82       1.0  0.06890  0.74160  0.55582  1.0000
  C   C83       1.0  0.56890  0.75840  0.05582  1.0000
  C   C84       1.0  0.93110  0.25840  0.44418  1.0000
  C   C85       1.0  0.35310  0.48262  0.24130  1.0000
  C   C86       1.0  0.14690  0.98262  0.25870  1.0000
  C   C87       1.0  0.64690  0.51738  0.75870  1.0000
  C   C88       1.0  0.85310  0.01738  0.74130  1.0000
  H   H29       1.0  0.27510  0.49900  0.24520  1.0000
  H   H30       1.0  0.22490  0.99900  0.25480  1.0000
  H   H31       1.0  0.72490  0.50100  0.75480  1.0000
  H   H32       1.0  0.77510  0.00100  0.74520  1.0000
  C   C89       1.0  0.47320  0.66106  0.28216  1.0000
  C   C90       1.0  0.02680  0.16106  0.21784  1.0000
  C   C91       1.0  0.52680  0.33894  0.71784  1.0000
  C   C92       1.0  0.97320  0.83894  0.78216  1.0000
  C   C93       1.0  0.33470  0.25792  0.91232  1.0000
  C   C94       1.0  0.16530  0.75792  0.58768  1.0000
  C   C95       1.0  0.66530  0.74208  0.08768  1.0000
  C   C96       1.0  0.83470  0.24208  0.41232  1.0000
  H   H33       1.0  0.26980  0.27780  0.92410  1.0000
  H   H34       1.0  0.23020  0.77780  0.57590  1.0000
  H   H35       1.0  0.73020  0.72220  0.07590  1.0000
  H   H36       1.0  0.76980  0.22220  0.42410  1.0000
  C   C97       1.0  0.37080  0.59166  0.24303  1.0000
  C   C98       1.0  0.12920  0.09166  0.25697  1.0000
  C   C99       1.0  0.62920  0.40834  0.75697  1.0000
  C   C100      1.0  0.87080  0.90834  0.74303  1.0000
  H   H37       1.0  0.29960  0.57890  0.22500  1.0000
  H   H38       1.0  0.20040  0.07890  0.27500  1.0000
  H   H39       1.0  0.70040  0.42110  0.77500  1.0000
  H   H40       1.0  0.79960  0.92110  0.72500  1.0000
  C   C101      1.0  0.42390  0.21685  0.84483  1.0000
  C   C102      1.0  0.07610  0.71685  0.65517  1.0000
  C   C103      1.0  0.57610  0.78315  0.15517  1.0000
  C   C104      1.0  0.92390  0.28315  0.34483  1.0000
  C   C105      1.0  0.37400  0.64097  0.25368  1.0000
  C   C106      1.0  0.12600  0.14097  0.24632  1.0000
  C   C107      1.0  0.62600  0.35903  0.74632  1.0000
  C   C108      1.0  0.87400  0.85903  0.75368  1.0000
  H   H41       1.0  0.30710  0.66100  0.24120  1.0000
  H   H42       1.0  0.19290  0.16100  0.25880  1.0000
  H   H43       1.0  0.69290  0.33900  0.75880  1.0000
  H   H44       1.0  0.80710  0.83900  0.74120  1.0000
  C   C109      1.0  0.98280  0.46487  0.03584  1.0000
  C   C110      1.0  0.51720  0.96487  0.46416  1.0000
  C   C111      1.0  0.01720  0.53513  0.96416  1.0000
  C   C112      1.0  0.48280  0.03513  0.53584  1.0000
  C   C113      1.0  0.98340  0.45195  0.98769  1.0000
  C   C114      1.0  0.51660  0.95195  0.51231  1.0000
  C   C115      1.0  0.01660  0.54805  0.01231  1.0000
  C   C116      1.0  0.48340  0.04805  0.48769  1.0000
  H   H45       1.0  0.97240  0.41930  0.97890  1.0000
  H   H46       1.0  0.52760  0.91930  0.52110  1.0000
  H   H47       1.0  0.02760  0.58070  0.02110  1.0000
  H   H48       1.0  0.47240  0.08070  0.47890  1.0000
  C   C117      1.0  0.57070  0.63118  0.29844  1.0000
  C   C118      1.0  0.92930  0.13118  0.20156  1.0000
  C   C119      1.0  0.42930  0.36882  0.70156  1.0000
  C   C120      1.0  0.07070  0.86882  0.79844  1.0000
  H   H49       1.0  0.63940  0.64390  0.31790  1.0000
  H   H50       1.0  0.86060  0.14390  0.18210  1.0000
  H   H51       1.0  0.36060  0.35610  0.68210  1.0000
  H   H52       1.0  0.13940  0.85610  0.81790  1.0000
  C   C121      1.0  0.56970  0.58171  0.28646  1.0000
  C   C122      1.0  0.93030  0.08171  0.21354  1.0000
  C   C123      1.0  0.43030  0.41829  0.71354  1.0000
  C   C124      1.0  0.06970  0.91829  0.78646  1.0000
  H   H53       1.0  0.63870  0.56210  0.29780  1.0000
  H   H54       1.0  0.86130  0.06210  0.20220  1.0000
  H   H55       1.0  0.36130  0.43790  0.70220  1.0000
  H   H56       1.0  0.13870  0.93790  0.79780  1.0000
  C   C125      1.0  0.32990  0.24607  0.86336  1.0000
  C   C126      1.0  0.17010  0.74607  0.63664  1.0000
  C   C127      1.0  0.67010  0.75393  0.13664  1.0000
  C   C128      1.0  0.82990  0.25393  0.36336  1.0000
  H   H57       1.0  0.26250  0.25790  0.84270  1.0000
  H   H58       1.0  0.23750  0.75790  0.65730  1.0000
  H   H59       1.0  0.73750  0.74210  0.15730  1.0000
  H   H60       1.0  0.76250  0.24210  0.34270  1.0000
  C   C129      1.0  0.00010  0.51361  0.04823  1.0000
  C   C130      1.0  0.49990  0.01361  0.45177  1.0000
  C   C131      1.0  0.99990  0.48639  0.95177  1.0000
  C   C132      1.0  0.50010  0.98639  0.54823  1.0000
  H   H61       1.0  0.00040  0.52310  0.08100  1.0000
  H   H62       1.0  0.49960  0.02310  0.41900  1.0000
  H   H63       1.0  0.99960  0.47690  0.91900  1.0000
  H   H64       1.0  0.50040  0.97690  0.58100  1.0000
  C   C133      1.0  0.96600  0.42745  0.07529  1.0000
  C   C134      1.0  0.53400  0.92745  0.42471  1.0000
  C   C135      1.0  0.03400  0.57255  0.92471  1.0000
  C   C136      1.0  0.46600  0.07255  0.57529  1.0000
