data_image0
_chemical_formula_structural       CaO2H4O2H2O6H2O8C6H2C4H2C4H2C6H2C2H2C4H2C6
_chemical_formula_sum              "Ca1 O18 H20 C32"
_cell_length_a       7.2548
_cell_length_b       11.7056
_cell_length_c       14.6024
_cell_angle_alpha    72.687
_cell_angle_beta     82.667
_cell_angle_gamma    73.303

_space_group_name_H-M_alt    "P 1"
_space_group_IT_number       1

loop_
  _space_group_symop_operation_xyz
  'x, y, z'

loop_
  _atom_site_type_symbol
  _atom_site_label
  _atom_site_symmetry_multiplicity
  _atom_site_fract_x
  _atom_site_fract_y
  _atom_site_fract_z
  _atom_site_occupancy
  Ca  Ca1       1.0  0.00000  0.00000  0.00000  1.0000
  O   O1        1.0  0.80530  0.86810  0.01694  1.0000
  O   O2        1.0  0.19470  0.13190  0.98306  1.0000
  H   H1        1.0  0.69330  0.85640  0.05460  1.0000
  H   H2        1.0  0.30670  0.14360  0.94540  1.0000
  H   H3        1.0  0.76560  0.86530  0.95850  1.0000
  H   H4        1.0  0.23440  0.13470  0.04150  1.0000
  O   O3        1.0  0.69410  0.12995  0.22316  1.0000
  O   O4        1.0  0.30590  0.87005  0.77684  1.0000
  H   H5        1.0  0.77100  0.06130  0.23320  1.0000
  H   H6        1.0  0.22900  0.93870  0.76680  1.0000
  O   O5        1.0  0.75440  0.12476  0.07079  1.0000
  O   O6        1.0  0.24560  0.87524  0.92921  1.0000
  O   O7        1.0  0.32330  0.44671  0.82007  1.0000
  O   O8        1.0  0.67670  0.55329  0.17993  1.0000
  O   O9        1.0  0.13780  0.61116  0.86462  1.0000
  O   O10       1.0  0.86220  0.38884  0.13538  1.0000
  H   H7        1.0  0.09940  0.63170  0.81010  1.0000
  H   H8        1.0  0.90060  0.36830  0.18990  1.0000
  O   O11       1.0  0.03410  0.27860  0.29264  1.0000
  O   O12       1.0  0.96590  0.72140  0.70736  1.0000
  O   O13       1.0  0.19610  0.26086  0.41699  1.0000
  O   O14       1.0  0.80390  0.73914  0.58301  1.0000
  O   O15       1.0  0.91010  0.91697  0.28802  1.0000
  O   O16       1.0  0.08990  0.08303  0.71198  1.0000
  O   O17       1.0  0.10010  0.90262  0.15765  1.0000
  O   O18       1.0  0.89990  0.09738  0.84235  1.0000
  C   C1        1.0  0.66250  0.17342  0.13190  1.0000
  C   C2        1.0  0.33750  0.82658  0.86810  1.0000
  C   C3        1.0  0.50370  0.28865  0.10597  1.0000
  C   C4        1.0  0.49630  0.71135  0.89403  1.0000
  C   C5        1.0  0.40780  0.34745  0.17488  1.0000
  C   C6        1.0  0.59220  0.65255  0.82512  1.0000
  H   H9        1.0  0.44180  0.31340  0.23850  1.0000
  H   H10       1.0  0.55820  0.68660  0.76150  1.0000
  C   C7        1.0  0.26180  0.45656  0.14985  1.0000
  C   C8        1.0  0.73820  0.54344  0.85015  1.0000
  C   C9        1.0  0.21470  0.50630  0.05356  1.0000
  C   C10       1.0  0.78530  0.49370  0.94644  1.0000
  H   H11       1.0  0.11870  0.58000  0.03550  1.0000
  H   H12       1.0  0.88130  0.42000  0.96450  1.0000
  C   C11       1.0  0.30900  0.44742  0.98451  1.0000
  C   C12       1.0  0.69100  0.55258  0.01549  1.0000
  C   C13       1.0  0.45350  0.33835  0.01096  1.0000
  C   C14       1.0  0.54650  0.66165  0.98904  1.0000
  H   H13       1.0  0.51680  0.29840  0.96500  1.0000
  H   H14       1.0  0.48320  0.70160  0.03500  1.0000
  C   C15       1.0  0.15990  0.52225  0.22214  1.0000
  C   C16       1.0  0.84010  0.47775  0.77786  1.0000
  C   C17       1.0  0.09000  0.46126  0.31216  1.0000
  C   C18       1.0  0.91000  0.53874  0.68784  1.0000
  C   C19       1.0  0.99500  0.52967  0.37542  1.0000
  C   C20       1.0  0.00500  0.47033  0.62458  1.0000
  H   H15       1.0  0.94770  0.48920  0.43470  1.0000
  H   H16       1.0  0.05230  0.51080  0.56530  1.0000
  C   C21       1.0  0.96910  0.65637  0.35245  1.0000
  C   C22       1.0  0.03090  0.34363  0.64755  1.0000
  H   H17       1.0  0.90470  0.70050  0.39570  1.0000
  H   H18       1.0  0.09530  0.29950  0.60430  1.0000
  C   C23       1.0  0.04030  0.71765  0.26370  1.0000
  C   C24       1.0  0.95970  0.28235  0.73630  1.0000
  C   C25       1.0  0.13400  0.64953  0.20039  1.0000
  C   C26       1.0  0.86600  0.35047  0.79961  1.0000
  H   H19       1.0  0.18110  0.69050  0.14130  1.0000
  H   H20       1.0  0.81890  0.30950  0.85870  1.0000
  C   C27       1.0  0.10830  0.32310  0.34219  1.0000
  C   C28       1.0  0.89170  0.67690  0.65781  1.0000
  C   C29       1.0  0.01430  0.85504  0.23481  1.0000
  C   C30       1.0  0.98570  0.14496  0.76519  1.0000
  C   C31       1.0  0.25830  0.50040  0.88136  1.0000
  C   C32       1.0  0.74170  0.49960  0.11864  1.0000
