data_image0
_chemical_formula_structural       Pb2O12H2O2C2O2C2H2C6H2C2H2C4H2C4H2C2H2C4H2C2H2C10H2C8H2C2H2C2H2C2H6C2H2C2H2C4H6
_chemical_formula_sum              "Pb2 O16 H42 C60"
_cell_length_a       10.3025
_cell_length_b       14.174
_cell_length_c       16.0428
_cell_angle_alpha    115.835
_cell_angle_beta     97.68
_cell_angle_gamma    90.493

_space_group_name_H-M_alt    "P 1"
_space_group_IT_number       1

loop_
  _space_group_symop_operation_xyz
  'x, y, z'

loop_
  _atom_site_type_symbol
  _atom_site_label
  _atom_site_symmetry_multiplicity
  _atom_site_fract_x
  _atom_site_fract_y
  _atom_site_fract_z
  _atom_site_occupancy
  Pb  Pb1       1.0  0.10828  0.86472  0.50799  1.0000
  Pb  Pb2       1.0  0.89172  0.13528  0.49201  1.0000
  O   O1        1.0  0.96670  0.99670  0.59290  1.0000
  O   O2        1.0  0.03330  0.00330  0.40710  1.0000
  O   O3        1.0  0.83600  0.85020  0.51570  1.0000
  O   O4        1.0  0.16400  0.14980  0.48430  1.0000
  O   O5        1.0  0.02740  0.34560  0.67480  1.0000
  O   O6        1.0  0.97260  0.65440  0.32520  1.0000
  O   O7        1.0  0.36370  0.85700  0.53010  1.0000
  O   O8        1.0  0.63630  0.14300  0.46990  1.0000
  O   O9        1.0  0.27600  0.00490  0.60960  1.0000
  O   O10       1.0  0.72400  0.99510  0.39040  1.0000
  O   O11       1.0  0.14620  0.35500  0.57160  1.0000
  O   O12       1.0  0.85380  0.64500  0.42840  1.0000
  H   H1        1.0  0.15080  0.29190  0.55600  1.0000
  H   H2        1.0  0.84920  0.70810  0.44400  1.0000
  O   O13       1.0  0.10740  0.82250  0.63250  1.0000
  O   O14       1.0  0.89260  0.17750  0.36750  1.0000
  C   C1        1.0  0.12110  0.72400  0.59820  1.0000
  C   C2        1.0  0.87890  0.27600  0.40180  1.0000
  O   O15       1.0  0.14860  0.67280  0.51790  1.0000
  O   O16       1.0  0.85140  0.32720  0.48210  1.0000
  C   C3        1.0  0.61850  0.95560  0.58350  1.0000
  C   C4        1.0  0.38150  0.04440  0.41650  1.0000
  H   H3        1.0  0.60590  0.88610  0.53810  1.0000
  H   H4        1.0  0.39410  0.11390  0.46190  1.0000
  C   C5        1.0  0.85770  0.94540  0.57100  1.0000
  C   C6        1.0  0.14230  0.05460  0.42900  1.0000
  C   C7        1.0  0.65690  0.16280  0.72380  1.0000
  C   C8        1.0  0.34310  0.83720  0.27620  1.0000
  C   C9        1.0  0.62460  0.39780  0.95150  1.0000
  C   C10       1.0  0.37540  0.60220  0.04850  1.0000
  H   H5        1.0  0.56830  0.41750  0.99610  1.0000
  H   H6        1.0  0.43170  0.58250  0.00390  1.0000
  C   C11       1.0  0.10240  0.56120  0.62260  1.0000
  C   C12       1.0  0.89760  0.43880  0.37740  1.0000
  H   H7        1.0  0.12830  0.52240  0.56450  1.0000
  H   H8        1.0  0.87170  0.47760  0.43550  1.0000
  C   C13       1.0  0.07080  0.51170  0.67480  1.0000
  C   C14       1.0  0.92920  0.48830  0.32520  1.0000
  C   C15       1.0  0.53230  0.11230  0.68990  1.0000
  C   C16       1.0  0.46770  0.88770  0.31010  1.0000
  H   H9        1.0  0.46090  0.14840  0.71440  1.0000
  H   H10       1.0  0.53910  0.85160  0.28560  1.0000
  C   C17       1.0  0.02990  0.67900  0.79940  1.0000
  C   C18       1.0  0.97010  0.32100  0.20060  1.0000
  C   C19       1.0  0.06050  0.72580  0.74480  1.0000
  C   C20       1.0  0.93950  0.27420  0.25520  1.0000
  H   H11       1.0  0.05760  0.79830  0.76770  1.0000
  H   H12       1.0  0.94240  0.20170  0.23230  1.0000
  C   C21       1.0  0.76240  0.10850  0.68310  1.0000
  C   C22       1.0  0.23760  0.89150  0.31690  1.0000
  H   H13       1.0  0.84640  0.14200  0.70240  1.0000
  H   H14       1.0  0.15360  0.85800  0.29760  1.0000
  C   C23       1.0  0.74280  0.00460  0.61390  1.0000
  C   C24       1.0  0.25720  0.99540  0.38610  1.0000
  C   C25       1.0  0.02920  0.71480  0.96760  1.0000
  C   C26       1.0  0.97080  0.28520  0.03240  1.0000
  H   H15       1.0  0.06950  0.65280  0.95580  1.0000
  H   H16       1.0  0.93050  0.34720  0.04420  1.0000
  C   C27       1.0  0.93660  0.83570  0.91590  1.0000
  C   C28       1.0  0.06340  0.16430  0.08410  1.0000
  H   H17       1.0  0.91400  0.85670  0.86880  1.0000
  H   H18       1.0  0.08600  0.14330  0.13120  1.0000
  C   C29       1.0  0.07630  0.39550  0.64180  1.0000
  C   C30       1.0  0.92370  0.60450  0.35820  1.0000
  C   C31       1.0  0.68080  0.27050  0.80390  1.0000
  C   C32       1.0  0.31920  0.72950  0.19610  1.0000
  C   C33       1.0  0.37610  0.95470  0.58490  1.0000
  C   C34       1.0  0.62390  0.04530  0.41510  1.0000
  C   C35       1.0  0.99650  0.74250  0.89580  1.0000
  C   C36       1.0  0.00350  0.25750  0.10420  1.0000
  C   C37       1.0  0.00310  0.77780  0.05740  1.0000
  C   C38       1.0  0.99690  0.22220  0.94260  1.0000
  H   H19       1.0  0.02520  0.75700  0.10470  1.0000
  H   H20       1.0  0.97480  0.24300  0.89530  1.0000
  C   C39       1.0  0.09580  0.66890  0.65610  1.0000
  C   C40       1.0  0.90420  0.33110  0.34390  1.0000
  C   C41       1.0  0.94450  0.87150  0.07720  1.0000
  C   C42       1.0  0.05550  0.12850  0.92280  1.0000
  C   C43       1.0  0.51040  0.00930  0.62030  1.0000
  C   C44       1.0  0.48960  0.99070  0.37970  1.0000
  C   C45       1.0  0.59720  0.30220  0.87160  1.0000
  C   C46       1.0  0.40280  0.69780  0.12840  1.0000
  H   H21       1.0  0.52300  0.25940  0.86330  1.0000
  H   H22       1.0  0.47700  0.74060  0.13670  1.0000
  C   C47       1.0  0.03150  0.56860  0.76270  1.0000
  C   C48       1.0  0.96850  0.43140  0.23730  1.0000
  H   H23       1.0  0.00680  0.53400  0.79650  1.0000
  H   H24       1.0  0.99320  0.46600  0.20350  1.0000
  C   C49       1.0  0.90990  0.89810  0.00580  1.0000
  C   C50       1.0  0.09010  0.10190  0.99420  1.0000
  H   H25       1.0  0.86750  0.95930  0.01730  1.0000
  H   H26       1.0  0.13250  0.04070  0.98270  1.0000
  C   C51       1.0  0.91800  0.94140  0.17620  1.0000
  C   C52       1.0  0.08200  0.05860  0.82380  1.0000
  H   H27       1.0  0.88280  0.89870  0.20190  1.0000
  H   H28       1.0  0.11720  0.10130  0.79810  1.0000
  H   H29       1.0  0.85610  0.99090  0.17420  1.0000
  H   H30       1.0  0.14390  0.00910  0.82580  1.0000
  H   H31       1.0  0.99860  0.97870  0.21480  1.0000
  H   H32       1.0  0.00140  0.02130  0.78520  1.0000
  C   C53       1.0  0.81300  0.43350  0.89690  1.0000
  C   C54       1.0  0.18700  0.56650  0.10310  1.0000
  H   H33       1.0  0.88500  0.47790  0.90420  1.0000
  H   H34       1.0  0.11500  0.52210  0.09580  1.0000
  C   C55       1.0  0.78690  0.33840  0.81730  1.0000
  C   C56       1.0  0.21310  0.66160  0.18270  1.0000
  H   H35       1.0  0.84210  0.31990  0.77200  1.0000
  H   H36       1.0  0.15790  0.68010  0.22800  1.0000
  C   C57       1.0  0.73230  0.46340  0.96600  1.0000
  C   C58       1.0  0.26770  0.53660  0.03400  1.0000
  C   C59       1.0  0.76440  0.56350  0.05750  1.0000
  C   C60       1.0  0.23560  0.43650  0.94250  1.0000
  H   H37       1.0  0.68450  0.59490  0.07630  1.0000
  H   H38       1.0  0.31550  0.40510  0.92370  1.0000
  H   H39       1.0  0.82000  0.61190  0.04870  1.0000
  H   H40       1.0  0.18000  0.38810  0.95130  1.0000
  H   H41       1.0  0.80870  0.54660  0.10530  1.0000
  H   H42       1.0  0.19130  0.45340  0.89470  1.0000
