data_image0
_chemical_formula_structural       Zr2P6O14H2O4F4N2C4H2C42H26
_chemical_formula_sum              "Zr2 P6 O18 H30 F4 N2 C46"
_cell_length_a       8.28
_cell_length_b       13.9085
_cell_length_c       15.2215
_cell_angle_alpha    78.687
_cell_angle_beta     83.336
_cell_angle_gamma    88.497

_space_group_name_H-M_alt    "P 1"
_space_group_IT_number       1

loop_
  _space_group_symop_operation_xyz
  'x, y, z'

loop_
  _atom_site_type_symbol
  _atom_site_label
  _atom_site_symmetry_multiplicity
  _atom_site_fract_x
  _atom_site_fract_y
  _atom_site_fract_z
  _atom_site_occupancy
  Zr  Zr1       1.0  0.87118  0.61539  0.11889  1.0000
  Zr  Zr2       1.0  0.12882  0.38461  0.88111  1.0000
  P   P1        1.0  0.90346  0.37205  0.09616  1.0000
  P   P2        1.0  0.09654  0.62795  0.90384  1.0000
  P   P3        1.0  0.66603  0.56199  0.34024  1.0000
  P   P4        1.0  0.33397  0.43801  0.65976  1.0000
  P   P5        1.0  0.10115  0.12582  0.92105  1.0000
  P   P6        1.0  0.89885  0.87418  0.07895  1.0000
  O   O1        1.0  0.73480  0.34855  0.07967  1.0000
  O   O2        1.0  0.26520  0.65145  0.92033  1.0000
  O   O3        1.0  0.02900  0.37438  0.01437  1.0000
  O   O4        1.0  0.97100  0.62562  0.98563  1.0000
  O   O5        1.0  0.90580  0.46647  0.13365  1.0000
  O   O6        1.0  0.09420  0.53353  0.86635  1.0000
  O   O7        1.0  0.76220  0.51014  0.41286  1.0000
  O   O8        1.0  0.23780  0.48986  0.58714  1.0000
  O   O9        1.0  0.52630  0.50343  0.32130  1.0000
  O   O10       1.0  0.47370  0.49657  0.67870  1.0000
  O   O11       1.0  0.77530  0.60145  0.25137  1.0000
  O   O12       1.0  0.22470  0.39855  0.74863  1.0000
  O   O13       1.0  0.21370  0.05791  0.98299  1.0000
  O   O14       1.0  0.78630  0.94209  0.01701  1.0000
  H   H1        1.0  0.16590  0.00480  0.00570  1.0000
  H   H2        1.0  0.83410  0.99520  0.99430  1.0000
  O   O15       1.0  0.92510  0.11102  0.95879  1.0000
  O   O16       1.0  0.07490  0.88898  0.04121  1.0000
  O   O17       1.0  0.16340  0.22921  0.90958  1.0000
  O   O18       1.0  0.83660  0.77079  0.09042  1.0000
  F   F1        1.0  0.08911  0.63995  0.15251  1.0000
  F   F2        1.0  0.91089  0.36005  0.84749  1.0000
  F   F3        1.0  0.65161  0.60636  0.08053  1.0000
  F   F4        1.0  0.34839  0.39364  0.91947  1.0000
  N   N1        1.0  0.15410  0.09051  0.47826  1.0000
  N   N2        1.0  0.84590  0.90949  0.52174  1.0000
  C   C1        1.0  0.16910  0.07064  0.39361  1.0000
  C   C2        1.0  0.83090  0.92936  0.60639  1.0000
  C   C3        1.0  0.24600  0.98717  0.37574  1.0000
  C   C4        1.0  0.75400  0.01283  0.62426  1.0000
  H   H3        1.0  0.25280  0.97300  0.31680  1.0000
  H   H4        1.0  0.74720  0.02700  0.68320  1.0000
  C   C5        1.0  0.31350  0.92378  0.44297  1.0000
  C   C6        1.0  0.68650  0.07622  0.55703  1.0000
  C   C7        1.0  0.29700  0.94319  0.52939  1.0000
  C   C8        1.0  0.70300  0.05681  0.47061  1.0000
  C   C9        1.0  0.21420  0.02570  0.54662  1.0000
  C   C10       1.0  0.78580  0.97430  0.45338  1.0000
  C   C11       1.0  0.09970  0.14104  0.32091  1.0000
  C   C12       1.0  0.90030  0.85896  0.67909  1.0000
  C   C13       1.0  0.99490  0.21621  0.34136  1.0000
  C   C14       1.0  0.00510  0.78379  0.65864  1.0000
  C   C15       1.0  0.93440  0.28435  0.27450  1.0000
  C   C16       1.0  0.06560  0.71565  0.72550  1.0000
  C   C17       1.0  0.97520  0.27947  0.18353  1.0000
  C   C18       1.0  0.02480  0.72053  0.81647  1.0000
  C   C19       1.0  0.07710  0.20334  0.16279  1.0000
  C   C20       1.0  0.92290  0.79666  0.83721  1.0000
  C   C21       1.0  0.13750  0.13576  0.23006  1.0000
  C   C22       1.0  0.86250  0.86424  0.76994  1.0000
  C   C23       1.0  0.40330  0.83589  0.42143  1.0000
  C   C24       1.0  0.59670  0.16411  0.57857  1.0000
  C   C25       1.0  0.47060  0.83554  0.33300  1.0000
  C   C26       1.0  0.52940  0.16446  0.66700  1.0000
  C   C27       1.0  0.55480  0.75543  0.31037  1.0000
  C   C28       1.0  0.44520  0.24457  0.68963  1.0000
  C   C29       1.0  0.57270  0.67063  0.37447  1.0000
  C   C30       1.0  0.42730  0.32937  0.62553  1.0000
  C   C31       1.0  0.50670  0.67019  0.46339  1.0000
  C   C32       1.0  0.49330  0.32981  0.53661  1.0000
  C   C33       1.0  0.42340  0.75153  0.48634  1.0000
  C   C34       1.0  0.57660  0.24847  0.51366  1.0000
  C   C35       1.0  0.18550  0.04669  0.63911  1.0000
  C   C36       1.0  0.81450  0.95331  0.36089  1.0000
  C   C37       1.0  0.24130  0.98542  0.71243  1.0000
  C   C38       1.0  0.75870  0.01458  0.28757  1.0000
  C   C39       1.0  0.21530  0.00724  0.79800  1.0000
  C   C40       1.0  0.78470  0.99276  0.20200  1.0000
  C   C41       1.0  0.13190  0.09165  0.81262  1.0000
  C   C42       1.0  0.86810  0.90835  0.18738  1.0000
  C   C43       1.0  0.07250  0.15220  0.73980  1.0000
  C   C44       1.0  0.92750  0.84780  0.26020  1.0000
  C   C45       1.0  0.09820  0.13020  0.65440  1.0000
  C   C46       1.0  0.90180  0.86980  0.34560  1.0000
  H   H5        1.0  0.34600  0.90500  0.57430  1.0000
  H   H6        1.0  0.65400  0.09500  0.42570  1.0000
  H   H7        1.0  0.96400  0.22000  0.40190  1.0000
  H   H8        1.0  0.03600  0.78000  0.59810  1.0000
  H   H9        1.0  0.86300  0.33460  0.29000  1.0000
  H   H10       1.0  0.13700  0.66540  0.71000  1.0000
  H   H11       1.0  0.09900  0.19800  0.10170  1.0000
  H   H12       1.0  0.90100  0.80200  0.89830  1.0000
  H   H13       1.0  0.20400  0.08410  0.21400  1.0000
  H   H14       1.0  0.79600  0.91590  0.78600  1.0000
  H   H15       1.0  0.46500  0.89200  0.28860  1.0000
  H   H16       1.0  0.53500  0.10800  0.71140  1.0000
  H   H17       1.0  0.60700  0.75800  0.25220  1.0000
  H   H18       1.0  0.39300  0.24200  0.74780  1.0000
  H   H19       1.0  0.51200  0.61360  0.50790  1.0000
  H   H20       1.0  0.48800  0.38640  0.49210  1.0000
  H   H21       1.0  0.38100  0.74900  0.54550  1.0000
  H   H22       1.0  0.61900  0.25100  0.45450  1.0000
  H   H23       1.0  0.29200  0.92470  0.70600  1.0000
  H   H24       1.0  0.70800  0.07530  0.29400  1.0000
  H   H25       1.0  0.25500  0.96800  0.84880  1.0000
  H   H26       1.0  0.74500  0.03200  0.15120  1.0000
  H   H27       1.0  0.01200  0.20880  0.74900  1.0000
  H   H28       1.0  0.98800  0.79120  0.25100  1.0000
  H   H29       1.0  0.05600  0.16600  0.60440  1.0000
  H   H30       1.0  0.94400  0.83400  0.39560  1.0000
