data_image0
_chemical_formula_structural       Co4P4O12H4O12C8H4O4H8
_chemical_formula_sum              "Co4 P4 O28 H16 C8"
_cell_length_a       8.4216
_cell_length_b       9.7851
_cell_length_c       10.7969
_cell_angle_alpha    90
_cell_angle_beta     106.232
_cell_angle_gamma    90

_space_group_name_H-M_alt    "P 1"
_space_group_IT_number       1

loop_
  _space_group_symop_operation_xyz
  'x, y, z'

loop_
  _atom_site_type_symbol
  _atom_site_label
  _atom_site_symmetry_multiplicity
  _atom_site_fract_x
  _atom_site_fract_y
  _atom_site_fract_z
  _atom_site_occupancy
  Co  Co1       1.0  0.05845  0.79210  0.16193  1.0000
  Co  Co2       1.0  0.44155  0.29210  0.33807  1.0000
  Co  Co3       1.0  0.94155  0.20790  0.83807  1.0000
  Co  Co4       1.0  0.55845  0.70790  0.66194  1.0000
  P   P1        1.0  0.57208  0.61489  0.37790  1.0000
  P   P2        1.0  0.92792  0.11489  0.12210  1.0000
  P   P3        1.0  0.42792  0.38511  0.62210  1.0000
  P   P4        1.0  0.07208  0.88511  0.87790  1.0000
  O   O1        1.0  0.23708  0.87978  0.32101  1.0000
  O   O2        1.0  0.26292  0.37978  0.17899  1.0000
  O   O3        1.0  0.76292  0.12022  0.67899  1.0000
  O   O4        1.0  0.73708  0.62022  0.82101  1.0000
  O   O5        1.0  0.39681  0.82955  0.51664  1.0000
  O   O6        1.0  0.10319  0.32955  0.98336  1.0000
  O   O7        1.0  0.60319  0.17045  0.48336  1.0000
  O   O8        1.0  0.89681  0.67045  0.01664  1.0000
  O   O9        1.0  0.25766  0.64484  0.22198  1.0000
  O   O10       1.0  0.24234  0.14484  0.27802  1.0000
  O   O11       1.0  0.74234  0.35516  0.77802  1.0000
  O   O12       1.0  0.75766  0.85516  0.72198  1.0000
  H   H1        1.0  0.24900  0.56080  0.20300  1.0000
  H   H2        1.0  0.25100  0.06080  0.29700  1.0000
  H   H3        1.0  0.75100  0.43920  0.79700  1.0000
  H   H4        1.0  0.74900  0.93920  0.70300  1.0000
  O   O13       1.0  0.65452  0.63532  0.52128  1.0000
  O   O14       1.0  0.84548  0.13532  0.97872  1.0000
  O   O15       1.0  0.34548  0.36468  0.47872  1.0000
  O   O16       1.0  0.15452  0.86468  0.02128  1.0000
  O   O17       1.0  0.63807  0.71318  0.29496  1.0000
  O   O18       1.0  0.86193  0.21318  0.20504  1.0000
  O   O19       1.0  0.36193  0.28682  0.70504  1.0000
  O   O20       1.0  0.13807  0.78682  0.79496  1.0000
  O   O21       1.0  0.58083  0.46804  0.33392  1.0000
  O   O22       1.0  0.91917  0.96804  0.16608  1.0000
  O   O23       1.0  0.41917  0.53196  0.66608  1.0000
  O   O24       1.0  0.08083  0.03196  0.83392  1.0000
  C   C1        1.0  0.32840  0.79879  0.40090  1.0000
  C   C2        1.0  0.17160  0.29879  0.09910  1.0000
  C   C3        1.0  0.67160  0.20121  0.59910  1.0000
  C   C4        1.0  0.82840  0.70121  0.90090  1.0000
  C   C5        1.0  0.35165  0.65644  0.35479  1.0000
  C   C6        1.0  0.14835  0.15644  0.14521  1.0000
  C   C7        1.0  0.64835  0.34356  0.64521  1.0000
  C   C8        1.0  0.85165  0.84356  0.85479  1.0000
  H   H5        1.0  0.30660  0.59130  0.40510  1.0000
  H   H6        1.0  0.19340  0.09130  0.09490  1.0000
  H   H7        1.0  0.69340  0.40870  0.59490  1.0000
  H   H8        1.0  0.80660  0.90870  0.90510  1.0000
  O   O25       1.0  0.95339  0.68740  0.28724  1.0000
  O   O26       1.0  0.54661  0.18740  0.21276  1.0000
  O   O27       1.0  0.04661  0.31260  0.71276  1.0000
  O   O28       1.0  0.45339  0.81260  0.78724  1.0000
  H   H9        1.0  0.97900  0.60840  0.31500  1.0000
  H   H10       1.0  0.52100  0.10840  0.18500  1.0000
  H   H11       1.0  0.02100  0.39160  0.68500  1.0000
  H   H12       1.0  0.47900  0.89160  0.81500  1.0000
  H   H13       1.0  0.85410  0.69600  0.28800  1.0000
  H   H14       1.0  0.64590  0.19600  0.21200  1.0000
  H   H15       1.0  0.14590  0.30400  0.71200  1.0000
  H   H16       1.0  0.35410  0.80400  0.78800  1.0000
