data_image0
_chemical_formula_structural       C64Cu48N64
_chemical_formula_sum              "C64 Cu48 N64"
_cell_length_a       35.529
_cell_length_b       18.5537
_cell_length_c       16.2503
_cell_angle_alpha    90
_cell_angle_beta     103.733
_cell_angle_gamma    90

_space_group_name_H-M_alt    "P 1"
_space_group_IT_number       1

loop_
  _space_group_symop_operation_xyz
  'x, y, z'

loop_
  _atom_site_type_symbol
  _atom_site_label
  _atom_site_symmetry_multiplicity
  _atom_site_fract_x
  _atom_site_fract_y
  _atom_site_fract_z
  _atom_site_occupancy
  C   C1        1.0  0.46843  0.05480  0.14400  1.0000
  C   C2        1.0  0.96843  0.55480  0.14400  1.0000
  C   C3        1.0  0.53157  0.05480  0.35600  1.0000
  C   C4        1.0  0.03157  0.55480  0.35600  1.0000
  C   C5        1.0  0.53157  0.94520  0.85600  1.0000
  C   C6        1.0  0.03157  0.44520  0.85600  1.0000
  C   C7        1.0  0.46843  0.94520  0.64400  1.0000
  C   C8        1.0  0.96843  0.44520  0.64400  1.0000
  C   C9        1.0  0.45443  0.09450  0.88430  1.0000
  C   C10       1.0  0.95443  0.59450  0.88430  1.0000
  C   C11       1.0  0.54557  0.09450  0.61570  1.0000
  C   C12       1.0  0.04557  0.59450  0.61570  1.0000
  C   C13       1.0  0.54557  0.90550  0.11570  1.0000
  C   C14       1.0  0.04557  0.40550  0.11570  1.0000
  C   C15       1.0  0.45443  0.90550  0.38430  1.0000
  C   C16       1.0  0.95443  0.40550  0.38430  1.0000
  C   C17       1.0  0.37367  0.02560  0.90260  1.0000
  C   C18       1.0  0.87367  0.52560  0.90260  1.0000
  C   C19       1.0  0.62633  0.02560  0.59740  1.0000
  C   C20       1.0  0.12633  0.52560  0.59740  1.0000
  C   C21       1.0  0.62633  0.97440  0.09740  1.0000
  C   C22       1.0  0.12633  0.47440  0.09740  1.0000
  C   C23       1.0  0.37367  0.97440  0.40260  1.0000
  C   C24       1.0  0.87367  0.47440  0.40260  1.0000
  C   C25       1.0  0.26405  0.97110  0.69270  1.0000
  C   C26       1.0  0.76405  0.47110  0.69270  1.0000
  C   C27       1.0  0.73595  0.97110  0.80730  1.0000
  C   C28       1.0  0.23595  0.47110  0.80730  1.0000
  C   C29       1.0  0.73595  0.02890  0.30730  1.0000
  C   C30       1.0  0.23595  0.52890  0.30730  1.0000
  C   C31       1.0  0.26405  0.02890  0.19270  1.0000
  C   C32       1.0  0.76405  0.52890  0.19270  1.0000
  C   C33       1.0  0.23522  0.99150  0.92960  1.0000
  C   C34       1.0  0.73522  0.49150  0.92960  1.0000
  C   C35       1.0  0.76478  0.99150  0.57040  1.0000
  C   C36       1.0  0.26478  0.49150  0.57040  1.0000
  C   C37       1.0  0.76478  0.00850  0.07040  1.0000
  C   C38       1.0  0.26478  0.50850  0.07040  1.0000
  C   C39       1.0  0.23522  0.00850  0.42960  1.0000
  C   C40       1.0  0.73522  0.50850  0.42960  1.0000
  C   C41       1.0  0.15747  0.98480  0.02570  1.0000
  C   C42       1.0  0.65747  0.48480  0.02570  1.0000
  C   C43       1.0  0.84253  0.98480  0.47430  1.0000
  C   C44       1.0  0.34253  0.48480  0.47430  1.0000
  C   C45       1.0  0.84253  0.01520  0.97430  1.0000
  C   C46       1.0  0.34253  0.51520  0.97430  1.0000
  C   C47       1.0  0.15747  0.01520  0.52570  1.0000
  C   C48       1.0  0.65747  0.51520  0.52570  1.0000
  C   C49       1.0  0.02747  0.88550  0.86190  1.0000
  C   C50       1.0  0.52747  0.38550  0.86190  1.0000
  C   C51       1.0  0.97253  0.88550  0.63810  1.0000
  C   C52       1.0  0.47253  0.38550  0.63810  1.0000
  C   C53       1.0  0.97253  0.11450  0.13810  1.0000
  C   C54       1.0  0.47253  0.61450  0.13810  1.0000
  C   C55       1.0  0.02747  0.11450  0.36190  1.0000
  C   C56       1.0  0.52747  0.61450  0.36190  1.0000
  C   C57       1.0  0.04871  0.94550  0.12260  1.0000
  C   C58       1.0  0.54871  0.44550  0.12260  1.0000
  C   C59       1.0  0.95129  0.94550  0.37740  1.0000
  C   C60       1.0  0.45129  0.44550  0.37740  1.0000
  C   C61       1.0  0.95129  0.05450  0.87740  1.0000
  C   C62       1.0  0.45129  0.55450  0.87740  1.0000
  C   C63       1.0  0.04871  0.05450  0.62260  1.0000
  C   C64       1.0  0.54871  0.55450  0.62260  1.0000
  Cu  Cu1       1.0  0.50000  0.10808  0.75000  1.0000
  Cu  Cu2       1.0  0.00000  0.60808  0.75000  1.0000
  Cu  Cu3       1.0  0.50000  0.89192  0.25000  1.0000
  Cu  Cu4       1.0  0.00000  0.39192  0.25000  1.0000
  Cu  Cu5       1.0  0.50000  0.05262  0.25000  1.0000
  Cu  Cu6       1.0  0.00000  0.55262  0.25000  1.0000
  Cu  Cu7       1.0  0.50000  0.94738  0.75000  1.0000
  Cu  Cu8       1.0  0.00000  0.44738  0.75000  1.0000
  Cu  Cu9       1.0  0.42337  0.05857  0.95881  1.0000
  Cu  Cu10      1.0  0.92337  0.55857  0.95881  1.0000
  Cu  Cu11      1.0  0.57663  0.05857  0.54119  1.0000
  Cu  Cu12      1.0  0.07663  0.55857  0.54119  1.0000
  Cu  Cu13      1.0  0.57663  0.94143  0.04119  1.0000
  Cu  Cu14      1.0  0.07663  0.44143  0.04119  1.0000
  Cu  Cu15      1.0  0.42337  0.94143  0.45881  1.0000
  Cu  Cu16      1.0  0.92337  0.44143  0.45881  1.0000
  Cu  Cu17      1.0  0.29103  0.98472  0.80697  1.0000
  Cu  Cu18      1.0  0.79103  0.48472  0.80697  1.0000
  Cu  Cu19      1.0  0.70897  0.98472  0.69303  1.0000
  Cu  Cu20      1.0  0.20897  0.48472  0.69303  1.0000
  Cu  Cu21      1.0  0.70897  0.01528  0.19303  1.0000
  Cu  Cu22      1.0  0.20897  0.51528  0.19303  1.0000
  Cu  Cu23      1.0  0.29103  0.01528  0.30697  1.0000
  Cu  Cu24      1.0  0.79103  0.51528  0.30697  1.0000
  Cu  Cu25      1.0  0.20859  0.00205  0.01605  1.0000
  Cu  Cu26      1.0  0.70859  0.50205  0.01605  1.0000
  Cu  Cu27      1.0  0.79141  0.00205  0.48395  1.0000
  Cu  Cu28      1.0  0.29141  0.50205  0.48395  1.0000
  Cu  Cu29      1.0  0.79141  0.99795  0.98395  1.0000
  Cu  Cu30      1.0  0.29141  0.49795  0.98395  1.0000
  Cu  Cu31      1.0  0.20859  0.99795  0.51605  1.0000
  Cu  Cu32      1.0  0.70859  0.49795  0.51605  1.0000
  Cu  Cu33      1.0  0.07572  0.93806  0.03673  1.0000
  Cu  Cu34      1.0  0.57572  0.43806  0.03673  1.0000
  Cu  Cu35      1.0  0.92428  0.93806  0.46327  1.0000
  Cu  Cu36      1.0  0.42428  0.43806  0.46327  1.0000
  Cu  Cu37      1.0  0.92428  0.06194  0.96327  1.0000
  Cu  Cu38      1.0  0.42428  0.56194  0.96327  1.0000
  Cu  Cu39      1.0  0.07572  0.06194  0.53673  1.0000
  Cu  Cu40      1.0  0.57572  0.56194  0.53673  1.0000
  Cu  Cu41      1.0  0.00000  0.95372  0.25000  1.0000
  Cu  Cu42      1.0  0.50000  0.45372  0.25000  1.0000
  Cu  Cu43      1.0  0.00000  0.04628  0.75000  1.0000
  Cu  Cu44      1.0  0.50000  0.54628  0.75000  1.0000
  Cu  Cu45      1.0  0.00000  0.88273  0.75000  1.0000
  Cu  Cu46      1.0  0.50000  0.38273  0.75000  1.0000
  Cu  Cu47      1.0  0.00000  0.11727  0.25000  1.0000
  Cu  Cu48      1.0  0.50000  0.61727  0.25000  1.0000
  N   N1        1.0  0.47181  0.10530  0.83590  1.0000
  N   N2        1.0  0.97181  0.60530  0.83590  1.0000
  N   N3        1.0  0.52819  0.10530  0.66410  1.0000
  N   N4        1.0  0.02819  0.60530  0.66410  1.0000
  N   N5        1.0  0.52819  0.89470  0.16410  1.0000
  N   N6        1.0  0.02819  0.39470  0.16410  1.0000
  N   N7        1.0  0.47181  0.89470  0.33590  1.0000
  N   N8        1.0  0.97181  0.39470  0.33590  1.0000
  N   N9        1.0  0.45039  0.05710  0.07560  1.0000
  N   N10       1.0  0.95039  0.55710  0.07560  1.0000
  N   N11       1.0  0.54961  0.05710  0.42440  1.0000
  N   N12       1.0  0.04961  0.55710  0.42440  1.0000
  N   N13       1.0  0.54961  0.94290  0.92440  1.0000
  N   N14       1.0  0.04961  0.44290  0.92440  1.0000
  N   N15       1.0  0.45039  0.94290  0.57560  1.0000
  N   N16       1.0  0.95039  0.44290  0.57560  1.0000
  N   N17       1.0  0.34305  0.00760  0.86590  1.0000
  N   N18       1.0  0.84305  0.50760  0.86590  1.0000
  N   N19       1.0  0.65695  0.00760  0.63410  1.0000
  N   N20       1.0  0.15695  0.50760  0.63410  1.0000
  N   N21       1.0  0.65695  0.99240  0.13410  1.0000
  N   N22       1.0  0.15695  0.49240  0.13410  1.0000
  N   N23       1.0  0.34305  0.99240  0.36590  1.0000
  N   N24       1.0  0.84305  0.49240  0.36590  1.0000
  N   N25       1.0  0.25516  0.98510  0.88310  1.0000
  N   N26       1.0  0.75516  0.48510  0.88310  1.0000
  N   N27       1.0  0.74484  0.98510  0.61690  1.0000
  N   N28       1.0  0.24484  0.48510  0.61690  1.0000
  N   N29       1.0  0.74484  0.01490  0.11690  1.0000
  N   N30       1.0  0.24484  0.51490  0.11690  1.0000
  N   N31       1.0  0.25516  0.01490  0.38310  1.0000
  N   N32       1.0  0.75516  0.51490  0.38310  1.0000
  N   N33       1.0  0.24370  0.97124  0.62530  1.0000
  N   N34       1.0  0.74370  0.47124  0.62530  1.0000
  N   N35       1.0  0.75630  0.97124  0.87470  1.0000
  N   N36       1.0  0.25630  0.47124  0.87470  1.0000
  N   N37       1.0  0.75630  0.02876  0.37470  1.0000
  N   N38       1.0  0.25630  0.52876  0.37470  1.0000
  N   N39       1.0  0.24370  0.02876  0.12530  1.0000
  N   N40       1.0  0.74370  0.52876  0.12530  1.0000
  N   N41       1.0  0.12651  0.96900  0.03190  1.0000
  N   N42       1.0  0.62651  0.46900  0.03190  1.0000
  N   N43       1.0  0.87349  0.96900  0.46810  1.0000
  N   N44       1.0  0.37349  0.46900  0.46810  1.0000
  N   N45       1.0  0.87349  0.03100  0.96810  1.0000
  N   N46       1.0  0.37349  0.53100  0.96810  1.0000
  N   N47       1.0  0.12651  0.03100  0.53190  1.0000
  N   N48       1.0  0.62651  0.53100  0.53190  1.0000
  N   N49       1.0  0.04503  0.89690  0.93000  1.0000
  N   N50       1.0  0.54503  0.39690  0.93000  1.0000
  N   N51       1.0  0.95497  0.89690  0.57000  1.0000
  N   N52       1.0  0.45497  0.39690  0.57000  1.0000
  N   N53       1.0  0.95497  0.10310  0.07000  1.0000
  N   N54       1.0  0.45497  0.60310  0.07000  1.0000
  N   N55       1.0  0.04503  0.10310  0.43000  1.0000
  N   N56       1.0  0.54503  0.60310  0.43000  1.0000
  N   N57       1.0  0.03084  0.95000  0.17330  1.0000
  N   N58       1.0  0.53084  0.45000  0.17330  1.0000
  N   N59       1.0  0.96916  0.95000  0.32670  1.0000
  N   N60       1.0  0.46916  0.45000  0.32670  1.0000
  N   N61       1.0  0.96916  0.05000  0.82670  1.0000
  N   N62       1.0  0.46916  0.55000  0.82670  1.0000
  N   N63       1.0  0.03084  0.05000  0.67330  1.0000
  N   N64       1.0  0.53084  0.55000  0.67330  1.0000
