data_image0
_chemical_formula_structural       In8S4O64C24
_chemical_formula_sum              "In8 S4 O64 C24"
_cell_length_a       10.7581
_cell_length_b       12.9985
_cell_length_c       19.9093
_cell_angle_alpha    90
_cell_angle_beta     92.8759
_cell_angle_gamma    90

_space_group_name_H-M_alt    "P 1"
_space_group_IT_number       1

loop_
  _space_group_symop_operation_xyz
  'x, y, z'

loop_
  _atom_site_type_symbol
  _atom_site_label
  _atom_site_symmetry_multiplicity
  _atom_site_fract_x
  _atom_site_fract_y
  _atom_site_fract_z
  _atom_site_occupancy
  In  In1       1.0  0.24856  0.59194  0.64926  1.0000
  In  In2       1.0  0.75144  0.09194  0.85074  1.0000
  In  In3       1.0  0.75144  0.40806  0.35074  1.0000
  In  In4       1.0  0.24856  0.90806  0.14926  1.0000
  In  In5       1.0  0.24830  0.56987  0.33752  1.0000
  In  In6       1.0  0.75170  0.06987  0.16248  1.0000
  In  In7       1.0  0.75170  0.43013  0.66248  1.0000
  In  In8       1.0  0.24830  0.93013  0.83752  1.0000
  S   S1        1.0  0.24269  0.54062  0.49594  1.0000
  S   S2        1.0  0.75731  0.04062  0.00406  1.0000
  S   S3        1.0  0.75731  0.45938  0.50406  1.0000
  S   S4        1.0  0.24269  0.95938  0.99594  1.0000
  O   O1        1.0  0.19640  0.61730  0.54547  1.0000
  O   O2        1.0  0.80360  0.11730  0.95453  1.0000
  O   O3        1.0  0.80360  0.38270  0.45453  1.0000
  O   O4        1.0  0.19640  0.88270  0.04547  1.0000
  O   O5        1.0  0.29390  0.60500  0.44124  1.0000
  O   O6        1.0  0.70610  0.10500  0.05876  1.0000
  O   O7        1.0  0.70610  0.39500  0.55876  1.0000
  O   O8        1.0  0.29390  0.89500  0.94124  1.0000
  O   O9        1.0  0.34060  0.48070  0.52956  1.0000
  O   O10       1.0  0.65940  0.98070  0.97044  1.0000
  O   O11       1.0  0.65940  0.51930  0.47044  1.0000
  O   O12       1.0  0.34060  0.01930  0.02956  1.0000
  O   O13       1.0  0.14120  0.47870  0.46734  1.0000
  O   O14       1.0  0.85880  0.97870  0.03266  1.0000
  O   O15       1.0  0.85880  0.52130  0.53266  1.0000
  O   O16       1.0  0.14120  0.02130  0.96734  1.0000
  O   O17       1.0  0.23810  0.76600  0.65372  1.0000
  O   O18       1.0  0.76190  0.26600  0.84628  1.0000
  O   O19       1.0  0.76190  0.23400  0.34628  1.0000
  O   O20       1.0  0.23810  0.73400  0.15372  1.0000
  O   O21       1.0  0.21870  0.89370  0.72758  1.0000
  O   O22       1.0  0.78130  0.39370  0.77242  1.0000
  O   O23       1.0  0.78130  0.10630  0.27242  1.0000
  O   O24       1.0  0.21870  0.60630  0.22758  1.0000
  O   O25       1.0  0.28110  0.63300  0.75584  1.0000
  O   O26       1.0  0.71890  0.13300  0.74416  1.0000
  O   O27       1.0  0.71890  0.36700  0.24416  1.0000
  O   O28       1.0  0.28110  0.86700  0.25584  1.0000
  O   O29       1.0  0.25990  0.75890  0.82919  1.0000
  O   O30       1.0  0.74010  0.25890  0.67081  1.0000
  O   O31       1.0  0.74010  0.24110  0.17081  1.0000
  O   O32       1.0  0.25990  0.74110  0.32919  1.0000
  O   O33       1.0  0.44340  0.63680  0.62638  1.0000
  O   O34       1.0  0.55660  0.13680  0.87362  1.0000
  O   O35       1.0  0.55660  0.36320  0.37362  1.0000
  O   O36       1.0  0.44340  0.86320  0.12638  1.0000
  O   O37       1.0  0.63750  0.57540  0.63183  1.0000
  O   O38       1.0  0.36250  0.07540  0.86817  1.0000
  O   O39       1.0  0.36250  0.42460  0.36817  1.0000
  O   O40       1.0  0.63750  0.92460  0.13183  1.0000
  O   O41       1.0  0.36620  0.46400  0.68558  1.0000
  O   O42       1.0  0.63380  0.96400  0.81442  1.0000
  O   O43       1.0  0.63380  0.53600  0.31442  1.0000
  O   O44       1.0  0.36620  0.03600  0.18558  1.0000
  O   O45       1.0  0.55960  0.40450  0.69087  1.0000
  O   O46       1.0  0.44040  0.90450  0.80913  1.0000
  O   O47       1.0  0.44040  0.59550  0.30913  1.0000
  O   O48       1.0  0.55960  0.09550  0.19087  1.0000
  O   O49       1.0  0.05520  0.61880  0.35674  1.0000
  O   O50       1.0  0.94480  0.11880  0.14326  1.0000
  O   O51       1.0  0.94480  0.38120  0.64326  1.0000
  O   O52       1.0  0.05520  0.88120  0.85674  1.0000
  O   O53       1.0  0.86550  0.55240  0.36484  1.0000
  O   O54       1.0  0.13450  0.05240  0.13516  1.0000
  O   O55       1.0  0.13450  0.44760  0.63516  1.0000
  O   O56       1.0  0.86550  0.94760  0.86484  1.0000
  O   O57       1.0  0.13290  0.43860  0.30652  1.0000
  O   O58       1.0  0.86710  0.93860  0.19348  1.0000
  O   O59       1.0  0.86710  0.56140  0.69348  1.0000
  O   O60       1.0  0.13290  0.06140  0.80652  1.0000
  O   O61       1.0  0.94460  0.37290  0.31917  1.0000
  O   O62       1.0  0.05540  0.87290  0.18083  1.0000
  O   O63       1.0  0.05540  0.62710  0.68083  1.0000
  O   O64       1.0  0.94460  0.12710  0.81917  1.0000
  C   C1        1.0  0.23740  0.80220  0.71230  1.0000
  C   C2        1.0  0.76260  0.30220  0.78770  1.0000
  C   C3        1.0  0.76260  0.19780  0.28770  1.0000
  C   C4        1.0  0.23740  0.69780  0.21230  1.0000
  C   C5        1.0  0.26160  0.72440  0.77110  1.0000
  C   C6        1.0  0.73840  0.22440  0.72890  1.0000
  C   C7        1.0  0.73840  0.27560  0.22890  1.0000
  C   C8        1.0  0.26160  0.77560  0.27110  1.0000
  C   C9        1.0  0.52460  0.56960  0.64150  1.0000
  C   C10       1.0  0.47540  0.06960  0.85850  1.0000
  C   C11       1.0  0.47540  0.43040  0.35850  1.0000
  C   C12       1.0  0.52460  0.93040  0.14150  1.0000
  C   C13       1.0  0.47910  0.47140  0.67540  1.0000
  C   C14       1.0  0.52090  0.97140  0.82460  1.0000
  C   C15       1.0  0.52090  0.52860  0.32460  1.0000
  C   C16       1.0  0.47910  0.02860  0.17540  1.0000
  C   C17       1.0  0.97670  0.54800  0.35130  1.0000
  C   C18       1.0  0.02330  0.04800  0.14870  1.0000
  C   C19       1.0  0.02330  0.45200  0.64870  1.0000
  C   C20       1.0  0.97670  0.95200  0.85130  1.0000
  C   C21       1.0  0.02290  0.44410  0.32350  1.0000
  C   C22       1.0  0.97710  0.94410  0.17650  1.0000
  C   C23       1.0  0.97710  0.55590  0.67650  1.0000
  C   C24       1.0  0.02290  0.05590  0.82350  1.0000
