data_image0
_chemical_formula_structural       Mn8S4O52H8C16
_chemical_formula_sum              "Mn8 S4 O52 H8 C16"
_cell_length_a       9.9066
_cell_length_b       12.4496
_cell_length_c       13.664
_cell_angle_alpha    90
_cell_angle_beta     90
_cell_angle_gamma    90

_space_group_name_H-M_alt    "P 1"
_space_group_IT_number       1

loop_
  _space_group_symop_operation_xyz
  'x, y, z'

loop_
  _atom_site_type_symbol
  _atom_site_label
  _atom_site_symmetry_multiplicity
  _atom_site_fract_x
  _atom_site_fract_y
  _atom_site_fract_z
  _atom_site_occupancy
  Mn  Mn1       1.0  0.76248  0.33351  0.22498  1.0000
  Mn  Mn2       1.0  0.73752  0.66649  0.72498  1.0000
  Mn  Mn3       1.0  0.23752  0.83351  0.27502  1.0000
  Mn  Mn4       1.0  0.26248  0.16649  0.77502  1.0000
  Mn  Mn5       1.0  0.72735  0.67940  0.42718  1.0000
  Mn  Mn6       1.0  0.77265  0.32060  0.92718  1.0000
  Mn  Mn7       1.0  0.27265  0.17940  0.07282  1.0000
  Mn  Mn8       1.0  0.22735  0.82060  0.57282  1.0000
  S   S1        1.0  0.75856  0.41335  0.46085  1.0000
  S   S2        1.0  0.74144  0.58665  0.96085  1.0000
  S   S3        1.0  0.24144  0.91335  0.03915  1.0000
  S   S4        1.0  0.25856  0.08665  0.53915  1.0000
  O   O1        1.0  0.70400  0.35960  0.37380  1.0000
  O   O2        1.0  0.79600  0.64040  0.87380  1.0000
  O   O3        1.0  0.29600  0.85960  0.12620  1.0000
  O   O4        1.0  0.20400  0.14040  0.62620  1.0000
  O   O5        1.0  0.80890  0.52110  0.43630  1.0000
  O   O6        1.0  0.69110  0.47890  0.93630  1.0000
  O   O7        1.0  0.19110  0.02110  0.06370  1.0000
  O   O8        1.0  0.30890  0.97890  0.56370  1.0000
  O   O9        1.0  0.87300  0.35260  0.50010  1.0000
  O   O10       1.0  0.62700  0.64740  0.00010  1.0000
  O   O11       1.0  0.12700  0.85260  0.99990  1.0000
  O   O12       1.0  0.37300  0.14740  0.49990  1.0000
  O   O13       1.0  0.65000  0.42000  0.53330  1.0000
  O   O14       1.0  0.85000  0.58000  0.03330  1.0000
  O   O15       1.0  0.35000  0.92000  0.96670  1.0000
  O   O16       1.0  0.15000  0.08000  0.46670  1.0000
  O   O17       1.0  0.87370  0.30430  0.07460  1.0000
  O   O18       1.0  0.62630  0.69570  0.57460  1.0000
  O   O19       1.0  0.12630  0.80430  0.42540  1.0000
  O   O20       1.0  0.37370  0.19570  0.92540  1.0000
  O   O21       1.0  0.08510  0.26560  0.02700  1.0000
  O   O22       1.0  0.41490  0.73440  0.52700  1.0000
  O   O23       1.0  0.91490  0.76560  0.47300  1.0000
  O   O24       1.0  0.58510  0.23440  0.97300  1.0000
  O   O25       1.0  0.94320  0.24640  0.26020  1.0000
  O   O26       1.0  0.55680  0.75360  0.76020  1.0000
  O   O27       1.0  0.05680  0.74640  0.23980  1.0000
  O   O28       1.0  0.44320  0.25360  0.73980  1.0000
  O   O29       1.0  0.14360  0.19270  0.20460  1.0000
  O   O30       1.0  0.35640  0.80730  0.70460  1.0000
  O   O31       1.0  0.85640  0.69270  0.29540  1.0000
  O   O32       1.0  0.64360  0.30730  0.79540  1.0000
  O   O33       1.0  0.64480  0.18600  0.21160  1.0000
  O   O34       1.0  0.85520  0.81400  0.71160  1.0000
  O   O35       1.0  0.35520  0.68600  0.28840  1.0000
  O   O36       1.0  0.14480  0.31400  0.78840  1.0000
  O   O37       1.0  0.44610  0.12660  0.15530  1.0000
  O   O38       1.0  0.05390  0.87340  0.65530  1.0000
  O   O39       1.0  0.55390  0.62660  0.34470  1.0000
  O   O40       1.0  0.94610  0.37340  0.84470  1.0000
  O   O41       1.0  0.57600  0.38760  0.15890  1.0000
  O   O42       1.0  0.92400  0.61240  0.65890  1.0000
  O   O43       1.0  0.42400  0.88760  0.34110  1.0000
  O   O44       1.0  0.07600  0.11240  0.84110  1.0000
  O   O45       1.0  0.37440  0.32930  0.11010  1.0000
  O   O46       1.0  0.12560  0.67070  0.61010  1.0000
  O   O47       1.0  0.62560  0.82930  0.38990  1.0000
  O   O48       1.0  0.87440  0.17070  0.88990  1.0000
  O   O49       1.0  0.85930  0.48780  0.20870  1.0000
  O   O50       1.0  0.64070  0.51220  0.70870  1.0000
  O   O51       1.0  0.14070  0.98780  0.29130  1.0000
  O   O52       1.0  0.35930  0.01220  0.79130  1.0000
  H   H1        1.0  0.94370  0.47890  0.20300  1.0000
  H   H2        1.0  0.55630  0.52110  0.70300  1.0000
  H   H3        1.0  0.05630  0.97890  0.29700  1.0000
  H   H4        1.0  0.44370  0.02110  0.79700  1.0000
  H   H5        1.0  0.84310  0.52550  0.25900  1.0000
  H   H6        1.0  0.65690  0.47450  0.75900  1.0000
  H   H7        1.0  0.15690  0.02550  0.24100  1.0000
  H   H8        1.0  0.34310  0.97450  0.74100  1.0000
  C   C1        1.0  0.99360  0.27220  0.08900  1.0000
  C   C2        1.0  0.50640  0.72780  0.58900  1.0000
  C   C3        1.0  0.00640  0.77220  0.41100  1.0000
  C   C4        1.0  0.49360  0.22780  0.91100  1.0000
  C   C5        1.0  0.02970  0.23430  0.19510  1.0000
  C   C6        1.0  0.47030  0.76570  0.69510  1.0000
  C   C7        1.0  0.97030  0.73430  0.30490  1.0000
  C   C8        1.0  0.52970  0.26570  0.80490  1.0000
  C   C9        1.0  0.53050  0.19850  0.17340  1.0000
  C   C10       1.0  0.96950  0.80150  0.67340  1.0000
  C   C11       1.0  0.46950  0.69850  0.32660  1.0000
  C   C12       1.0  0.03050  0.30150  0.82660  1.0000
  C   C13       1.0  0.49160  0.31520  0.14590  1.0000
  C   C14       1.0  0.00840  0.68480  0.64590  1.0000
  C   C15       1.0  0.50840  0.81520  0.35410  1.0000
  C   C16       1.0  0.99160  0.18480  0.85410  1.0000
