data_image0
_chemical_formula_structural       Bi4O36H8N8C12H4C4H4C4H4C20H4C4H4C4H4C8
_chemical_formula_sum              "Bi4 O36 H32 N8 C56"
_cell_length_a       9.3948
_cell_length_b       23.351
_cell_length_c       9.95
_cell_angle_alpha    90
_cell_angle_beta     111.88
_cell_angle_gamma    90

_space_group_name_H-M_alt    "P 1"
_space_group_IT_number       1

loop_
  _space_group_symop_operation_xyz
  'x, y, z'

loop_
  _atom_site_type_symbol
  _atom_site_label
  _atom_site_symmetry_multiplicity
  _atom_site_fract_x
  _atom_site_fract_y
  _atom_site_fract_z
  _atom_site_occupancy
  Bi  Bi1       1.0  0.55281  0.80698  0.43918  1.0000
  Bi  Bi2       1.0  0.44719  0.30698  0.06082  1.0000
  Bi  Bi3       1.0  0.44719  0.19302  0.56082  1.0000
  Bi  Bi4       1.0  0.55281  0.69302  0.93918  1.0000
  O   O1        1.0  0.61110  0.89502  0.55810  1.0000
  O   O2        1.0  0.38890  0.39502  0.94190  1.0000
  O   O3        1.0  0.38890  0.10498  0.44190  1.0000
  O   O4        1.0  0.61110  0.60498  0.05810  1.0000
  O   O5        1.0  0.69800  0.71302  0.48130  1.0000
  O   O6        1.0  0.30200  0.21302  0.01870  1.0000
  O   O7        1.0  0.30200  0.28698  0.51870  1.0000
  O   O8        1.0  0.69800  0.78698  0.98130  1.0000
  O   O9        1.0  0.77700  0.95105  0.72310  1.0000
  O   O10       1.0  0.22300  0.45105  0.77690  1.0000
  O   O11       1.0  0.22300  0.04895  0.27690  1.0000
  O   O12       1.0  0.77700  0.54895  0.22310  1.0000
  O   O13       1.0  0.87480  0.65878  0.64530  1.0000
  O   O14       1.0  0.12520  0.15878  0.85470  1.0000
  O   O15       1.0  0.12520  0.34122  0.35470  1.0000
  O   O16       1.0  0.87480  0.84122  0.14530  1.0000
  O   O17       1.0  0.39520  0.87120  0.24000  1.0000
  O   O18       1.0  0.60480  0.37120  0.26000  1.0000
  O   O19       1.0  0.60480  0.12880  0.76000  1.0000
  O   O20       1.0  0.39520  0.62880  0.74000  1.0000
  O   O21       1.0  0.49410  0.76363  0.62810  1.0000
  O   O22       1.0  0.50590  0.26363  0.87190  1.0000
  O   O23       1.0  0.50590  0.23637  0.37190  1.0000
  O   O24       1.0  0.49410  0.73637  0.12810  1.0000
  O   O25       1.0  0.18970  0.92681  0.14340  1.0000
  O   O26       1.0  0.81030  0.42681  0.35660  1.0000
  O   O27       1.0  0.81030  0.07319  0.85660  1.0000
  O   O28       1.0  0.18970  0.57319  0.64340  1.0000
  O   O29       1.0  0.35500  0.76332  0.76810  1.0000
  O   O30       1.0  0.64500  0.26332  0.73190  1.0000
  O   O31       1.0  0.64500  0.23668  0.23190  1.0000
  O   O32       1.0  0.35500  0.73668  0.26810  1.0000
  O   O33       1.0  0.74440  0.86309  0.35250  1.0000
  O   O34       1.0  0.25560  0.36309  0.14750  1.0000
  O   O35       1.0  0.25560  0.13691  0.64750  1.0000
  O   O36       1.0  0.74440  0.63691  0.85250  1.0000
  H   H1        1.0  0.70390  0.89220  0.30110  1.0000
  H   H2        1.0  0.29610  0.39220  0.19890  1.0000
  H   H3        1.0  0.29610  0.10780  0.69890  1.0000
  H   H4        1.0  0.70390  0.60780  0.80110  1.0000
  H   H5        1.0  0.82350  0.85360  0.33570  1.0000
  H   H6        1.0  0.17650  0.35360  0.16430  1.0000
  H   H7        1.0  0.17650  0.14640  0.66430  1.0000
  H   H8        1.0  0.82350  0.64640  0.83570  1.0000
  N   N1        1.0  0.79280  0.80496  0.65140  1.0000
  N   N2        1.0  0.20720  0.30496  0.84860  1.0000
  N   N3        1.0  0.20720  0.19504  0.34860  1.0000
  N   N4        1.0  0.79280  0.69504  0.15140  1.0000
  N   N5        1.0  0.31850  0.84472  0.46050  1.0000
  N   N6        1.0  0.68150  0.34472  0.03950  1.0000
  N   N7        1.0  0.68150  0.15528  0.53950  1.0000
  N   N8        1.0  0.31850  0.65528  0.96050  1.0000
  C   C1        1.0  0.73560  0.90434  0.66710  1.0000
  C   C2        1.0  0.26440  0.40434  0.83290  1.0000
  C   C3        1.0  0.26440  0.09566  0.33290  1.0000
  C   C4        1.0  0.73560  0.59566  0.16710  1.0000
  C   C5        1.0  0.83470  0.85296  0.72940  1.0000
  C   C6        1.0  0.16530  0.35296  0.77060  1.0000
  C   C7        1.0  0.16530  0.14704  0.27060  1.0000
  C   C8        1.0  0.83470  0.64704  0.22940  1.0000
  C   C9        1.0  0.96370  0.85410  0.85590  1.0000
  C   C10       1.0  0.03630  0.35410  0.64410  1.0000
  C   C11       1.0  0.03630  0.14590  0.14410  1.0000
  C   C12       1.0  0.96370  0.64590  0.35590  1.0000
  H   H9        1.0  0.99370  0.88780  0.90890  1.0000
  H   H10       1.0  0.00630  0.38780  0.59110  1.0000
  H   H11       1.0  0.00630  0.11220  0.09110  1.0000
  H   H12       1.0  0.99370  0.61220  0.40890  1.0000
  C   C13       1.0  0.04640  0.80460  0.90160  1.0000
  C   C14       1.0  0.95360  0.30460  0.59840  1.0000
  C   C15       1.0  0.95360  0.19540  0.09840  1.0000
  C   C16       1.0  0.04640  0.69540  0.40160  1.0000
  H   H13       1.0  0.13210  0.80420  0.98740  1.0000
  H   H14       1.0  0.86790  0.30420  0.51260  1.0000
  H   H15       1.0  0.86790  0.19580  0.01260  1.0000
  H   H16       1.0  0.13210  0.69580  0.48740  1.0000
  C   C17       1.0  0.00200  0.75560  0.81990  1.0000
  C   C18       1.0  0.99800  0.25560  0.68010  1.0000
  C   C19       1.0  0.99800  0.24440  0.18010  1.0000
  C   C20       1.0  0.00200  0.74440  0.31990  1.0000
  H   H17       1.0  0.05800  0.72190  0.84870  1.0000
  H   H18       1.0  0.94200  0.22190  0.65130  1.0000
  H   H19       1.0  0.94200  0.27810  0.15130  1.0000
  H   H20       1.0  0.05800  0.77810  0.34870  1.0000
  C   C21       1.0  0.87230  0.75733  0.69390  1.0000
  C   C22       1.0  0.12770  0.25733  0.80610  1.0000
  C   C23       1.0  0.12770  0.24267  0.30610  1.0000
  C   C24       1.0  0.87230  0.74267  0.19390  1.0000
  C   C25       1.0  0.81050  0.70553  0.59850  1.0000
  C   C26       1.0  0.18950  0.20553  0.90150  1.0000
  C   C27       1.0  0.18950  0.29447  0.40150  1.0000
  C   C28       1.0  0.81050  0.79447  0.09850  1.0000
  C   C29       1.0  0.27480  0.89617  0.24070  1.0000
  C   C30       1.0  0.72520  0.39617  0.25930  1.0000
  C   C31       1.0  0.72520  0.10383  0.75930  1.0000
  C   C32       1.0  0.27480  0.60383  0.74070  1.0000
  C   C33       1.0  0.23700  0.88601  0.37320  1.0000
  C   C34       1.0  0.76300  0.38601  0.12680  1.0000
  C   C35       1.0  0.76300  0.11399  0.62680  1.0000
  C   C36       1.0  0.23700  0.61399  0.87320  1.0000
  C   C37       1.0  0.12670  0.91650  0.40230  1.0000
  C   C38       1.0  0.87330  0.41650  0.09770  1.0000
  C   C39       1.0  0.87330  0.08350  0.59770  1.0000
  C   C40       1.0  0.12670  0.58350  0.90230  1.0000
  H   H21       1.0  0.07320  0.94600  0.34180  1.0000
  H   H22       1.0  0.92680  0.44600  0.15820  1.0000
  H   H23       1.0  0.92680  0.05400  0.65820  1.0000
  H   H24       1.0  0.07320  0.55400  0.84180  1.0000
  C   C41       1.0  0.09750  0.90170  0.52560  1.0000
  C   C42       1.0  0.90250  0.40170  0.97440  1.0000
  C   C43       1.0  0.90250  0.09830  0.47440  1.0000
  C   C44       1.0  0.09750  0.59830  0.02560  1.0000
  H   H25       1.0  0.02420  0.92160  0.54900  1.0000
  H   H26       1.0  0.97580  0.42160  0.95100  1.0000
  H   H27       1.0  0.97580  0.07840  0.45100  1.0000
  H   H28       1.0  0.02420  0.57840  0.04900  1.0000
  C   C45       1.0  0.17690  0.85790  0.61130  1.0000
  C   C46       1.0  0.82310  0.35790  0.88870  1.0000
  C   C47       1.0  0.82310  0.14210  0.38870  1.0000
  C   C48       1.0  0.17690  0.64210  0.11130  1.0000
  H   H29       1.0  0.15640  0.84690  0.69210  1.0000
  H   H30       1.0  0.84360  0.34690  0.80790  1.0000
  H   H31       1.0  0.84360  0.15310  0.30790  1.0000
  H   H32       1.0  0.15640  0.65310  0.19210  1.0000
  C   C49       1.0  0.28880  0.82990  0.57630  1.0000
  C   C50       1.0  0.71120  0.32990  0.92370  1.0000
  C   C51       1.0  0.71120  0.17010  0.42370  1.0000
  C   C52       1.0  0.28880  0.67010  0.07630  1.0000
  C   C53       1.0  0.38630  0.78180  0.66540  1.0000
  C   C54       1.0  0.61370  0.28180  0.83460  1.0000
  C   C55       1.0  0.61370  0.21820  0.33460  1.0000
  C   C56       1.0  0.38630  0.71820  0.16540  1.0000
