data_image0
_chemical_formula_structural       Cu8O16N64C16
_chemical_formula_sum              "Cu8 O16 N64 C16"
_cell_length_a       11.85
_cell_length_b       11.85
_cell_length_c       13.084
_cell_angle_alpha    90
_cell_angle_beta     90
_cell_angle_gamma    90

_space_group_name_H-M_alt    "P 1"
_space_group_IT_number       1

loop_
  _space_group_symop_operation_xyz
  'x, y, z'

loop_
  _atom_site_type_symbol
  _atom_site_label
  _atom_site_symmetry_multiplicity
  _atom_site_fract_x
  _atom_site_fract_y
  _atom_site_fract_z
  _atom_site_occupancy
  Cu  Cu1       1.0  1.00000  0.50000  0.16974  1.0000
  Cu  Cu2       1.0  0.50000  0.50000  0.41974  1.0000
  Cu  Cu3       1.0  0.50000  0.00000  0.66974  1.0000
  Cu  Cu4       1.0  0.00000  1.00000  0.91974  1.0000
  Cu  Cu5       1.0  1.00000  0.50000  0.91385  1.0000
  Cu  Cu6       1.0  0.50000  0.50000  0.16385  1.0000
  Cu  Cu7       1.0  0.50000  0.00000  0.41385  1.0000
  Cu  Cu8       1.0  0.00000  1.00000  0.66385  1.0000
  O   O1        1.0  0.92040  0.60690  0.04460  1.0000
  O   O2        1.0  0.39310  0.42040  0.29460  1.0000
  O   O3        1.0  0.07960  0.39310  0.04460  1.0000
  O   O4        1.0  0.60690  0.57960  0.29460  1.0000
  O   O5        1.0  0.42040  0.10690  0.54460  1.0000
  O   O6        1.0  0.89310  0.92040  0.79460  1.0000
  O   O7        1.0  0.57960  0.89310  0.54460  1.0000
  O   O8        1.0  0.10690  0.07960  0.79460  1.0000
  O   O9        1.0  0.58310  0.35930  0.16730  1.0000
  O   O10       1.0  0.64070  0.08310  0.41730  1.0000
  O   O11       1.0  0.41690  0.64070  0.16730  1.0000
  O   O12       1.0  0.35930  0.91690  0.41730  1.0000
  O   O13       1.0  0.08310  0.85930  0.66730  1.0000
  O   O14       1.0  0.14070  0.58310  0.91730  1.0000
  O   O15       1.0  0.91690  0.14070  0.66730  1.0000
  O   O16       1.0  0.85930  0.41690  0.91730  1.0000
  N   N1        1.0  0.80750  0.60990  0.04650  1.0000
  N   N2        1.0  0.39010  0.30750  0.29650  1.0000
  N   N3        1.0  0.19250  0.39010  0.04650  1.0000
  N   N4        1.0  0.60990  0.69250  0.29650  1.0000
  N   N5        1.0  0.30750  0.10990  0.54650  1.0000
  N   N6        1.0  0.89010  0.80750  0.79650  1.0000
  N   N7        1.0  0.69250  0.89010  0.54650  1.0000
  N   N8        1.0  0.10990  0.19250  0.79650  1.0000
  N   N9        1.0  0.74900  0.68670  0.99480  1.0000
  N   N10       1.0  0.31330  0.24900  0.24480  1.0000
  N   N11       1.0  0.25100  0.31330  0.99480  1.0000
  N   N12       1.0  0.68670  0.75100  0.24480  1.0000
  N   N13       1.0  0.24900  0.18670  0.49480  1.0000
  N   N14       1.0  0.81330  0.74900  0.74480  1.0000
  N   N15       1.0  0.75100  0.81330  0.49480  1.0000
  N   N16       1.0  0.18670  0.25100  0.74480  1.0000
  N   N17       1.0  0.64300  0.66450  0.01140  1.0000
  N   N18       1.0  0.33550  0.14300  0.26140  1.0000
  N   N19       1.0  0.35700  0.33550  0.01140  1.0000
  N   N20       1.0  0.66450  0.85700  0.26140  1.0000
  N   N21       1.0  0.14300  0.16450  0.51140  1.0000
  N   N22       1.0  0.83550  0.64300  0.76140  1.0000
  N   N23       1.0  0.85700  0.83550  0.51140  1.0000
  N   N24       1.0  0.16450  0.35700  0.76140  1.0000
  N   N25       1.0  0.63350  0.57230  0.06950  1.0000
  N   N26       1.0  0.42770  0.13350  0.31950  1.0000
  N   N27       1.0  0.36650  0.42770  0.06950  1.0000
  N   N28       1.0  0.57230  0.86650  0.31950  1.0000
  N   N29       1.0  0.13350  0.07230  0.56950  1.0000
  N   N30       1.0  0.92770  0.63350  0.81950  1.0000
  N   N31       1.0  0.86650  0.92770  0.56950  1.0000
  N   N32       1.0  0.07230  0.36650  0.81950  1.0000
  N   N33       1.0  0.69310  0.36930  0.18840  1.0000
  N   N34       1.0  0.63070  0.19310  0.43840  1.0000
  N   N35       1.0  0.30690  0.63070  0.18840  1.0000
  N   N36       1.0  0.36930  0.80690  0.43840  1.0000
  N   N37       1.0  0.19310  0.86930  0.68840  1.0000
  N   N38       1.0  0.13070  0.69310  0.93840  1.0000
  N   N39       1.0  0.80690  0.13070  0.68840  1.0000
  N   N40       1.0  0.86930  0.30690  0.93840  1.0000
  N   N41       1.0  0.74430  0.29380  0.24600  1.0000
  N   N42       1.0  0.70620  0.24430  0.49600  1.0000
  N   N43       1.0  0.25570  0.70620  0.24600  1.0000
  N   N44       1.0  0.29380  0.75570  0.49600  1.0000
  N   N45       1.0  0.24430  0.79380  0.74600  1.0000
  N   N46       1.0  0.20620  0.74430  0.99600  1.0000
  N   N47       1.0  0.75570  0.20620  0.74600  1.0000
  N   N48       1.0  0.79380  0.25570  0.99600  1.0000
  N   N49       1.0  0.85020  0.32540  0.25110  1.0000
  N   N50       1.0  0.67460  0.35020  0.50110  1.0000
  N   N51       1.0  0.14980  0.67460  0.25110  1.0000
  N   N52       1.0  0.32540  0.64980  0.50110  1.0000
  N   N53       1.0  0.35020  0.82540  0.75110  1.0000
  N   N54       1.0  0.17460  0.85020  0.00110  1.0000
  N   N55       1.0  0.64980  0.17460  0.75110  1.0000
  N   N56       1.0  0.82540  0.14980  0.00110  1.0000
  N   N57       1.0  0.86620  0.41870  0.19460  1.0000
  N   N58       1.0  0.58130  0.36620  0.44460  1.0000
  N   N59       1.0  0.13380  0.58130  0.19460  1.0000
  N   N60       1.0  0.41870  0.63380  0.44460  1.0000
  N   N61       1.0  0.36620  0.91870  0.69460  1.0000
  N   N62       1.0  0.08130  0.86620  0.94460  1.0000
  N   N63       1.0  0.63380  0.08130  0.69460  1.0000
  N   N64       1.0  0.91870  0.13380  0.94460  1.0000
  C   C1        1.0  0.73740  0.53900  0.09240  1.0000
  C   C2        1.0  0.46100  0.23740  0.34240  1.0000
  C   C3        1.0  0.26260  0.46100  0.09240  1.0000
  C   C4        1.0  0.53900  0.76260  0.34240  1.0000
  C   C5        1.0  0.23740  0.03900  0.59240  1.0000
  C   C6        1.0  0.96100  0.73740  0.84240  1.0000
  C   C7        1.0  0.76260  0.96100  0.59240  1.0000
  C   C8        1.0  0.03900  0.26260  0.84240  1.0000
  C   C9        1.0  0.76580  0.44550  0.15610  1.0000
  C   C10       1.0  0.55450  0.26580  0.40610  1.0000
  C   C11       1.0  0.23420  0.55450  0.15610  1.0000
  C   C12       1.0  0.44550  0.73420  0.40610  1.0000
  C   C13       1.0  0.26580  0.94550  0.65610  1.0000
  C   C14       1.0  0.05450  0.76580  0.90610  1.0000
  C   C15       1.0  0.73420  0.05450  0.65610  1.0000
  C   C16       1.0  0.94550  0.23420  0.90610  1.0000
