data_image0
_chemical_formula_structural       Eu4C4O4H8O8C8O12C8O8C40H12C4H12C8H12O4H8C8H12C4H12C4H12C4H8O4
_chemical_formula_sum              "Eu4 C92 O40 H96"
_cell_length_a       8.976
_cell_length_b       25.7636
_cell_length_c       11.828
_cell_angle_alpha    90
_cell_angle_beta     90.323
_cell_angle_gamma    90

_space_group_name_H-M_alt    "P 1"
_space_group_IT_number       1

loop_
  _space_group_symop_operation_xyz
  'x, y, z'

loop_
  _atom_site_type_symbol
  _atom_site_label
  _atom_site_symmetry_multiplicity
  _atom_site_fract_x
  _atom_site_fract_y
  _atom_site_fract_z
  _atom_site_occupancy
  Eu  Eu1       1.0  0.98860  0.37785  0.99028  1.0000
  Eu  Eu2       1.0  0.51140  0.87785  0.50972  1.0000
  Eu  Eu3       1.0  0.01140  0.62215  0.00972  1.0000
  Eu  Eu4       1.0  0.48860  0.12215  0.49028  1.0000
  C   C1        1.0  0.50870  0.32671  0.54480  1.0000
  C   C2        1.0  0.99130  0.82671  0.95520  1.0000
  C   C3        1.0  0.49130  0.67329  0.45520  1.0000
  C   C4        1.0  0.00870  0.17329  0.04480  1.0000
  O   O1        1.0  0.06550  0.45869  0.90780  1.0000
  O   O2        1.0  0.43450  0.95869  0.59220  1.0000
  O   O3        1.0  0.93450  0.54131  0.09220  1.0000
  O   O4        1.0  0.56550  0.04131  0.40780  1.0000
  H   H1        1.0  0.10620  0.47840  0.95860  1.0000
  H   H2        1.0  0.39380  0.97840  0.54140  1.0000
  H   H3        1.0  0.89380  0.52160  0.04140  1.0000
  H   H4        1.0  0.60620  0.02160  0.45860  1.0000
  H   H5        1.0  0.98940  0.47480  0.87930  1.0000
  H   H6        1.0  0.51060  0.97480  0.62070  1.0000
  H   H7        1.0  0.01060  0.52520  0.12070  1.0000
  H   H8        1.0  0.48940  0.02520  0.37930  1.0000
  O   O5        1.0  0.53570  0.20038  0.60970  1.0000
  O   O6        1.0  0.96430  0.70038  0.89030  1.0000
  O   O7        1.0  0.46430  0.79962  0.39030  1.0000
  O   O8        1.0  0.03570  0.29962  0.10970  1.0000
  O   O9        1.0  0.23840  0.34486  0.91380  1.0000
  O   O10       1.0  0.26160  0.84486  0.58620  1.0000
  O   O11       1.0  0.76160  0.65514  0.08620  1.0000
  O   O12       1.0  0.73840  0.15514  0.41380  1.0000
  C   C5        1.0  0.47760  0.37734  0.58030  1.0000
  C   C6        1.0  0.02240  0.87734  0.91970  1.0000
  C   C7        1.0  0.52240  0.62266  0.41970  1.0000
  C   C8        1.0  0.97760  0.12266  0.08030  1.0000
  C   C9        1.0  0.52600  0.42754  0.39440  1.0000
  C   C10       1.0  0.97400  0.92754  0.10560  1.0000
  C   C11       1.0  0.47400  0.57246  0.60560  1.0000
  C   C12       1.0  0.02600  0.07246  0.89440  1.0000
  O   O13       1.0  0.76400  0.36523  0.10170  1.0000
  O   O14       1.0  0.73600  0.86523  0.39830  1.0000
  O   O15       1.0  0.23600  0.63477  0.89830  1.0000
  O   O16       1.0  0.26400  0.13477  0.60170  1.0000
  O   O17       1.0  0.81350  0.44623  0.07230  1.0000
  O   O18       1.0  0.68650  0.94623  0.42770  1.0000
  O   O19       1.0  0.18650  0.55377  0.92770  1.0000
  O   O20       1.0  0.31350  0.05377  0.57230  1.0000
  O   O21       1.0  0.06270  0.35976  0.78980  1.0000
  O   O22       1.0  0.43730  0.85976  0.71020  1.0000
  O   O23       1.0  0.93730  0.64024  0.21020  1.0000
  O   O24       1.0  0.56270  0.14024  0.28980  1.0000
  C   C13       1.0  0.73920  0.41255  0.12190  1.0000
  C   C14       1.0  0.76080  0.91255  0.37810  1.0000
  C   C15       1.0  0.26080  0.58745  0.87810  1.0000
  C   C16       1.0  0.23920  0.08745  0.62190  1.0000
  C   C17       1.0  0.42880  0.28468  0.59150  1.0000
  C   C18       1.0  0.07120  0.78468  0.90850  1.0000
  C   C19       1.0  0.57120  0.71532  0.40850  1.0000
  C   C20       1.0  0.92880  0.21532  0.09150  1.0000
  O   O25       1.0  0.40240  0.21474  0.45820  1.0000
  O   O26       1.0  0.09760  0.71474  0.04180  1.0000
  O   O27       1.0  0.59760  0.78526  0.54180  1.0000
  O   O28       1.0  0.90240  0.28526  0.95820  1.0000
  O   O29       1.0  0.14840  0.49188  0.19920  1.0000
  O   O30       1.0  0.35160  0.99188  0.30080  1.0000
  O   O31       1.0  0.85160  0.50812  0.80080  1.0000
  O   O32       1.0  0.64840  0.00812  0.69920  1.0000
  C   C21       1.0  0.47320  0.43213  0.15880  1.0000
  C   C22       1.0  0.02680  0.93213  0.34120  1.0000
  C   C23       1.0  0.52680  0.56787  0.84120  1.0000
  C   C24       1.0  0.97320  0.06787  0.65880  1.0000
  C   C25       1.0  0.20180  0.44779  0.18690  1.0000
  C   C26       1.0  0.29820  0.94779  0.31310  1.0000
  C   C27       1.0  0.79820  0.55221  0.81310  1.0000
  C   C28       1.0  0.70180  0.05221  0.68690  1.0000
  C   C29       1.0  0.35570  0.43798  0.23570  1.0000
  C   C30       1.0  0.14430  0.93798  0.26430  1.0000
  C   C31       1.0  0.64430  0.56202  0.76430  1.0000
  C   C32       1.0  0.85570  0.06202  0.73570  1.0000
  C   C33       1.0  0.64520  0.42425  0.31870  1.0000
  C   C34       1.0  0.85480  0.92425  0.18130  1.0000
  C   C35       1.0  0.35480  0.57575  0.68130  1.0000
  C   C36       1.0  0.14520  0.07575  0.81870  1.0000
  C   C37       1.0  0.19670  0.34984  0.81360  1.0000
  C   C38       1.0  0.30330  0.84984  0.68640  1.0000
  C   C39       1.0  0.80330  0.65016  0.18640  1.0000
  C   C40       1.0  0.69670  0.15016  0.31360  1.0000
  C   C41       1.0  0.61520  0.42447  0.20210  1.0000
  C   C42       1.0  0.88480  0.92447  0.29790  1.0000
  C   C43       1.0  0.38480  0.57553  0.79790  1.0000
  C   C44       1.0  0.11520  0.07553  0.70210  1.0000
  C   C45       1.0  0.38170  0.43580  0.35220  1.0000
  C   C46       1.0  0.11830  0.93580  0.14780  1.0000
  C   C47       1.0  0.61830  0.56420  0.64780  1.0000
  C   C48       1.0  0.88170  0.06420  0.85220  1.0000
  C   C49       1.0  0.45720  0.23029  0.54990  1.0000
  C   C50       1.0  0.04280  0.73029  0.95010  1.0000
  C   C51       1.0  0.54280  0.76971  0.45010  1.0000
  C   C52       1.0  0.95720  0.26971  0.04990  1.0000
  C   C53       1.0  0.30570  0.34236  0.71770  1.0000
  C   C54       1.0  0.19430  0.84236  0.78230  1.0000
  C   C55       1.0  0.69430  0.65764  0.28230  1.0000
  C   C56       1.0  0.80570  0.15764  0.21770  1.0000
  C   C57       1.0  0.44510  0.43467  0.03390  1.0000
  C   C58       1.0  0.05490  0.93467  0.46610  1.0000
  C   C59       1.0  0.55490  0.56533  0.96610  1.0000
  C   C60       1.0  0.94510  0.06533  0.53390  1.0000
  H   H9        1.0  0.39020  0.40450  0.01040  1.0000
  H   H10       1.0  0.10980  0.90450  0.48960  1.0000
  H   H11       1.0  0.60980  0.59550  0.98960  1.0000
  H   H12       1.0  0.89020  0.09550  0.51040  1.0000
  H   H13       1.0  0.53850  0.43580  0.99480  1.0000
  H   H14       1.0  0.96150  0.93580  0.50520  1.0000
  H   H15       1.0  0.46150  0.56420  0.00520  1.0000
  H   H16       1.0  0.03850  0.06420  0.49480  1.0000
  H   H17       1.0  0.38860  0.46530  0.01650  1.0000
  H   H18       1.0  0.11140  0.96530  0.48350  1.0000
  H   H19       1.0  0.61140  0.53470  0.98350  1.0000
  H   H20       1.0  0.88860  0.03470  0.51650  1.0000
  C   C61       1.0  0.80750  0.42162  0.35480  1.0000
  C   C62       1.0  0.69250  0.92162  0.14520  1.0000
  C   C63       1.0  0.19250  0.57838  0.64520  1.0000
  C   C64       1.0  0.30750  0.07838  0.85480  1.0000
  H   H21       1.0  0.81790  0.43500  0.43020  1.0000
  H   H22       1.0  0.68210  0.93500  0.06980  1.0000
  H   H23       1.0  0.18210  0.56500  0.56980  1.0000
  H   H24       1.0  0.31790  0.06500  0.93020  1.0000
  H   H25       1.0  0.86670  0.44200  0.30400  1.0000
  H   H26       1.0  0.63330  0.94200  0.19600  1.0000
  H   H27       1.0  0.13330  0.55800  0.69600  1.0000
  H   H28       1.0  0.36670  0.05800  0.80400  1.0000
  H   H29       1.0  0.84060  0.38620  0.35310  1.0000
  H   H30       1.0  0.65940  0.88620  0.14690  1.0000
  H   H31       1.0  0.15940  0.61380  0.64690  1.0000
  H   H32       1.0  0.34060  0.11380  0.85310  1.0000
  C   C65       1.0  0.38220  0.38516  0.67210  1.0000
  C   C66       1.0  0.11780  0.88516  0.82790  1.0000
  C   C67       1.0  0.61780  0.61484  0.32790  1.0000
  C   C68       1.0  0.88220  0.11484  0.17210  1.0000
  C   C69       1.0  0.25110  0.44430  0.43170  1.0000
  C   C70       1.0  0.24890  0.94430  0.06830  1.0000
  C   C71       1.0  0.74890  0.55570  0.56830  1.0000
  C   C72       1.0  0.75110  0.05570  0.93170  1.0000
  H   H33       1.0  0.24960  0.41720  0.48740  1.0000
  H   H34       1.0  0.25040  0.91720  0.01260  1.0000
  H   H35       1.0  0.75040  0.58280  0.51260  1.0000
  H   H36       1.0  0.74960  0.08280  0.98740  1.0000
  H   H37       1.0  0.15970  0.44380  0.38930  1.0000
  H   H38       1.0  0.34030  0.94380  0.11070  1.0000
  H   H39       1.0  0.84030  0.55620  0.61070  1.0000
  H   H40       1.0  0.65970  0.05620  0.88930  1.0000
  H   H41       1.0  0.26180  0.47730  0.46860  1.0000
  H   H42       1.0  0.23820  0.97730  0.03140  1.0000
  H   H43       1.0  0.73820  0.52270  0.53140  1.0000
  H   H44       1.0  0.76180  0.02270  0.96860  1.0000
  O   O33       1.0  0.77920  0.39249  0.85580  1.0000
  O   O34       1.0  0.72080  0.89249  0.64420  1.0000
  O   O35       1.0  0.22080  0.60751  0.14420  1.0000
  O   O36       1.0  0.27920  0.10751  0.35580  1.0000
  H   H45       1.0  0.72310  0.41640  0.88070  1.0000
  H   H46       1.0  0.77690  0.91640  0.61930  1.0000
  H   H47       1.0  0.27690  0.58360  0.11930  1.0000
  H   H48       1.0  0.22310  0.08360  0.38070  1.0000
  H   H49       1.0  0.72770  0.36500  0.84900  1.0000
  H   H50       1.0  0.77230  0.86500  0.65100  1.0000
  H   H51       1.0  0.27230  0.63500  0.15100  1.0000
  H   H52       1.0  0.22770  0.13500  0.34900  1.0000
  C   C73       1.0  0.32480  0.29232  0.67550  1.0000
  C   C74       1.0  0.17520  0.79232  0.82450  1.0000
  C   C75       1.0  0.67520  0.70768  0.32450  1.0000
  C   C76       1.0  0.82480  0.20768  0.17550  1.0000
  C   C77       1.0  0.63260  0.31499  0.46330  1.0000
  C   C78       1.0  0.86740  0.81499  0.03670  1.0000
  C   C79       1.0  0.36740  0.68501  0.53670  1.0000
  C   C80       1.0  0.13260  0.18501  0.96330  1.0000
  H   H53       1.0  0.60230  0.32470  0.38820  1.0000
  H   H54       1.0  0.89770  0.82470  0.11180  1.0000
  H   H55       1.0  0.39770  0.67530  0.61180  1.0000
  H   H56       1.0  0.10230  0.17530  0.88820  1.0000
  H   H57       1.0  0.65450  0.27850  0.46510  1.0000
  H   H58       1.0  0.84550  0.77850  0.03490  1.0000
  H   H59       1.0  0.34550  0.72150  0.53490  1.0000
  H   H60       1.0  0.15450  0.22150  0.96510  1.0000
  H   H61       1.0  0.71990  0.33430  0.48450  1.0000
  H   H62       1.0  0.78010  0.83430  0.01550  1.0000
  H   H63       1.0  0.28010  0.66570  0.51550  1.0000
  H   H64       1.0  0.21990  0.16570  0.98450  1.0000
  C   C81       1.0  0.35800  0.43775  0.72490  1.0000
  C   C82       1.0  0.14200  0.93775  0.77510  1.0000
  C   C83       1.0  0.64200  0.56225  0.27510  1.0000
  C   C84       1.0  0.85800  0.06225  0.22490  1.0000
  H   H65       1.0  0.45260  0.45380  0.73970  1.0000
  H   H66       1.0  0.04740  0.95380  0.76030  1.0000
  H   H67       1.0  0.54740  0.54620  0.26030  1.0000
  H   H68       1.0  0.95260  0.04620  0.23970  1.0000
  H   H69       1.0  0.30470  0.43380  0.79450  1.0000
  H   H70       1.0  0.19530  0.93380  0.70550  1.0000
  H   H71       1.0  0.69530  0.56620  0.20550  1.0000
  H   H72       1.0  0.80470  0.06620  0.29450  1.0000
  H   H73       1.0  0.30120  0.45910  0.67400  1.0000
  H   H74       1.0  0.19880  0.95910  0.82600  1.0000
  H   H75       1.0  0.69880  0.54090  0.32600  1.0000
  H   H76       1.0  0.80120  0.04090  0.17400  1.0000
  C   C85       1.0  0.23740  0.24756  0.72390  1.0000
  C   C86       1.0  0.26260  0.74756  0.77610  1.0000
  C   C87       1.0  0.76260  0.75244  0.27610  1.0000
  C   C88       1.0  0.73740  0.25244  0.22390  1.0000
  H   H77       1.0  0.21220  0.22370  0.66460  1.0000
  H   H78       1.0  0.28780  0.72370  0.83540  1.0000
  H   H79       1.0  0.78780  0.77630  0.33540  1.0000
  H   H80       1.0  0.71220  0.27630  0.16460  1.0000
  H   H81       1.0  0.14790  0.26040  0.75790  1.0000
  H   H82       1.0  0.35210  0.76040  0.74210  1.0000
  H   H83       1.0  0.85210  0.73960  0.24210  1.0000
  H   H84       1.0  0.64790  0.23960  0.25790  1.0000
  H   H85       1.0  0.29660  0.23010  0.78010  1.0000
  H   H86       1.0  0.20340  0.73010  0.71990  1.0000
  H   H87       1.0  0.70340  0.76990  0.21990  1.0000
  H   H88       1.0  0.79660  0.26990  0.28010  1.0000
  C   C89       1.0  0.55310  0.42323  0.52200  1.0000
  C   C90       1.0  0.94690  0.92323  0.97800  1.0000
  C   C91       1.0  0.44690  0.57677  0.47800  1.0000
  C   C92       1.0  0.05310  0.07677  0.02200  1.0000
  H   H89       1.0  0.65960  0.42080  0.53530  1.0000
  H   H90       1.0  0.84040  0.92080  0.96470  1.0000
  H   H91       1.0  0.34040  0.57920  0.46470  1.0000
  H   H92       1.0  0.15960  0.07920  0.03530  1.0000
  H   H93       1.0  0.51890  0.45500  0.55740  1.0000
  H   H94       1.0  0.98110  0.95500  0.94260  1.0000
  H   H95       1.0  0.48110  0.54500  0.44260  1.0000
  H   H96       1.0  0.01890  0.04500  0.05740  1.0000
  O   O37       1.0  0.13810  0.41075  0.13680  1.0000
  O   O38       1.0  0.36190  0.91075  0.36320  1.0000
  O   O39       1.0  0.86190  0.58925  0.86320  1.0000
  O   O40       1.0  0.63810  0.08925  0.63680  1.0000
