data_image0
_chemical_formula_structural       Al4O16C64F144
_chemical_formula_sum              "Al4 O16 C64 F144"
_cell_length_a       18.1526
_cell_length_b       18.9664
_cell_length_c       18.8938
_cell_angle_alpha    90
_cell_angle_beta     110.424
_cell_angle_gamma    90

_space_group_name_H-M_alt    "P 1"
_space_group_IT_number       1

loop_
  _space_group_symop_operation_xyz
  'x, y, z'

loop_
  _atom_site_type_symbol
  _atom_site_label
  _atom_site_symmetry_multiplicity
  _atom_site_fract_x
  _atom_site_fract_y
  _atom_site_fract_z
  _atom_site_occupancy
  Al  Al1       1.0  0.69728  0.06598  0.38120  1.0000
  Al  Al2       1.0  0.30272  0.56598  0.11880  1.0000
  Al  Al3       1.0  0.30272  0.93402  0.61880  1.0000
  Al  Al4       1.0  0.69728  0.43402  0.88120  1.0000
  O   O1        1.0  0.78250  0.02750  0.37850  1.0000
  O   O2        1.0  0.21750  0.52750  0.12150  1.0000
  O   O3        1.0  0.21750  0.97250  0.62150  1.0000
  O   O4        1.0  0.78250  0.47250  0.87850  1.0000
  O   O5        1.0  0.71250  0.11820  0.45960  1.0000
  O   O6        1.0  0.28750  0.61820  0.04040  1.0000
  O   O7        1.0  0.28750  0.88180  0.54040  1.0000
  O   O8        1.0  0.71250  0.38180  0.95960  1.0000
  O   O9        1.0  0.66190  0.12020  0.30290  1.0000
  O   O10       1.0  0.33810  0.62020  0.19710  1.0000
  O   O11       1.0  0.33810  0.87980  0.69710  1.0000
  O   O12       1.0  0.66190  0.37980  0.80290  1.0000
  O   O13       1.0  0.63470  0.99860  0.38400  1.0000
  O   O14       1.0  0.36530  0.49860  0.11600  1.0000
  O   O15       1.0  0.36530  0.00140  0.61600  1.0000
  O   O16       1.0  0.63470  0.50140  0.88400  1.0000
  C   C1        1.0  0.84550  0.03470  0.35840  1.0000
  C   C2        1.0  0.15450  0.53470  0.14160  1.0000
  C   C3        1.0  0.15450  0.96530  0.64160  1.0000
  C   C4        1.0  0.84550  0.46530  0.85840  1.0000
  C   C5        1.0  0.89600  0.96670  0.38380  1.0000
  C   C6        1.0  0.10400  0.46670  0.11620  1.0000
  C   C7        1.0  0.10400  0.03330  0.61620  1.0000
  C   C8        1.0  0.89600  0.53330  0.88380  1.0000
  C   C9        1.0  0.89610  0.09940  0.39770  1.0000
  C   C10       1.0  0.10390  0.59940  0.10230  1.0000
  C   C11       1.0  0.10390  0.90060  0.60230  1.0000
  C   C12       1.0  0.89610  0.40060  0.89770  1.0000
  C   C13       1.0  0.82010  0.04370  0.27020  1.0000
  C   C14       1.0  0.17990  0.54370  0.22980  1.0000
  C   C15       1.0  0.17990  0.95630  0.72980  1.0000
  C   C16       1.0  0.82010  0.45630  0.77020  1.0000
  C   C17       1.0  0.72610  0.12320  0.53340  1.0000
  C   C18       1.0  0.27390  0.62320  0.96660  1.0000
  C   C19       1.0  0.27390  0.87680  0.46660  1.0000
  C   C20       1.0  0.72610  0.37680  0.03340  1.0000
  C   C21       1.0  0.79890  0.08100  0.58060  1.0000
  C   C22       1.0  0.20110  0.58100  0.91940  1.0000
  C   C23       1.0  0.20110  0.91900  0.41940  1.0000
  C   C24       1.0  0.79890  0.41900  0.08060  1.0000
  C   C25       1.0  0.65340  0.09770  0.55270  1.0000
  C   C26       1.0  0.34660  0.59770  0.94730  1.0000
  C   C27       1.0  0.34660  0.90230  0.44730  1.0000
  C   C28       1.0  0.65340  0.40230  0.05270  1.0000
  C   C29       1.0  0.74070  0.20260  0.55530  1.0000
  C   C30       1.0  0.25930  0.70260  0.94470  1.0000
  C   C31       1.0  0.25930  0.79740  0.44470  1.0000
  C   C32       1.0  0.74070  0.29740  0.05530  1.0000
  C   C33       1.0  0.61630  0.17530  0.27090  1.0000
  C   C34       1.0  0.38370  0.67530  0.22910  1.0000
  C   C35       1.0  0.38370  0.82470  0.72910  1.0000
  C   C36       1.0  0.61630  0.32470  0.77090  1.0000
  C   C37       1.0  0.55140  0.18750  0.30490  1.0000
  C   C38       1.0  0.44860  0.68750  0.19510  1.0000
  C   C39       1.0  0.44860  0.81250  0.69510  1.0000
  C   C40       1.0  0.55140  0.31250  0.80490  1.0000
  C   C41       1.0  0.57770  0.15910  0.18530  1.0000
  C   C42       1.0  0.42230  0.65910  0.31470  1.0000
  C   C43       1.0  0.42230  0.84090  0.81470  1.0000
  C   C44       1.0  0.57770  0.34090  0.68530  1.0000
  C   C45       1.0  0.66660  0.24320  0.28040  1.0000
  C   C46       1.0  0.33340  0.74320  0.21960  1.0000
  C   C47       1.0  0.33340  0.75680  0.71960  1.0000
  C   C48       1.0  0.66660  0.25680  0.78040  1.0000
  C   C49       1.0  0.60210  0.93510  0.35730  1.0000
  C   C50       1.0  0.39790  0.43510  0.14270  1.0000
  C   C51       1.0  0.39790  0.06490  0.64270  1.0000
  C   C52       1.0  0.60210  0.56490  0.85730  1.0000
  C   C53       1.0  0.55260  0.93930  0.27230  1.0000
  C   C54       1.0  0.44740  0.43930  0.22770  1.0000
  C   C55       1.0  0.44740  0.06070  0.72770  1.0000
  C   C56       1.0  0.55260  0.56070  0.77230  1.0000
  C   C57       1.0  0.54870  0.91320  0.40150  1.0000
  C   C58       1.0  0.45130  0.41320  0.09850  1.0000
  C   C59       1.0  0.45130  0.08680  0.59850  1.0000
  C   C60       1.0  0.54870  0.58680  0.90150  1.0000
  C   C61       1.0  0.66630  0.87900  0.36830  1.0000
  C   C62       1.0  0.33370  0.37900  0.13170  1.0000
  C   C63       1.0  0.33370  0.12100  0.63170  1.0000
  C   C64       1.0  0.66630  0.62100  0.86830  1.0000
  F   F1        1.0  0.84970  0.15520  0.39310  1.0000
  F   F2        1.0  0.15030  0.65520  0.10690  1.0000
  F   F3        1.0  0.15030  0.84480  0.60690  1.0000
  F   F4        1.0  0.84970  0.34480  0.89310  1.0000
  F   F5        1.0  0.80160  0.11030  0.25020  1.0000
  F   F6        1.0  0.19840  0.61030  0.24980  1.0000
  F   F7        1.0  0.19840  0.88970  0.74980  1.0000
  F   F8        1.0  0.80160  0.38970  0.75020  1.0000
  F   F9        1.0  0.88110  0.02700  0.24640  1.0000
  F   F10       1.0  0.11890  0.52700  0.25360  1.0000
  F   F11       1.0  0.11890  0.97300  0.75360  1.0000
  F   F12       1.0  0.88110  0.47300  0.74640  1.0000
  F   F13       1.0  0.76120  0.00340  0.23500  1.0000
  F   F14       1.0  0.23880  0.50340  0.26500  1.0000
  F   F15       1.0  0.23880  0.99660  0.76500  1.0000
  F   F16       1.0  0.76120  0.49660  0.73500  1.0000
  F   F17       1.0  0.93330  0.08770  0.47030  1.0000
  F   F18       1.0  0.06670  0.58770  0.02970  1.0000
  F   F19       1.0  0.06670  0.91230  0.52970  1.0000
  F   F20       1.0  0.93330  0.41230  0.97030  1.0000
  F   F21       1.0  0.96870  0.97420  0.38300  1.0000
  F   F22       1.0  0.03130  0.47420  0.11700  1.0000
  F   F23       1.0  0.03130  0.02580  0.61700  1.0000
  F   F24       1.0  0.96870  0.52580  0.88300  1.0000
  F   F25       1.0  0.86290  0.91360  0.33630  1.0000
  F   F26       1.0  0.13710  0.41360  0.16370  1.0000
  F   F27       1.0  0.13710  0.08640  0.66370  1.0000
  F   F28       1.0  0.86290  0.58640  0.83630  1.0000
  F   F29       1.0  0.94960  0.11770  0.36750  1.0000
  F   F30       1.0  0.05040  0.61770  0.13250  1.0000
  F   F31       1.0  0.05040  0.88230  0.63250  1.0000
  F   F32       1.0  0.94960  0.38230  0.86750  1.0000
  F   F33       1.0  0.90110  0.94770  0.45170  1.0000
  F   F34       1.0  0.09890  0.44770  0.04830  1.0000
  F   F35       1.0  0.09890  0.05230  0.54830  1.0000
  F   F36       1.0  0.90110  0.55230  0.95170  1.0000
  F   F37       1.0  0.78760  0.23150  0.52300  1.0000
  F   F38       1.0  0.21240  0.73150  0.97700  1.0000
  F   F39       1.0  0.21240  0.76850  0.47700  1.0000
  F   F40       1.0  0.78760  0.26850  0.02300  1.0000
  F   F41       1.0  0.77410  0.21290  0.62980  1.0000
  F   F42       1.0  0.22590  0.71290  0.87020  1.0000
  F   F43       1.0  0.22590  0.78710  0.37020  1.0000
  F   F44       1.0  0.77410  0.28710  0.12980  1.0000
  F   F45       1.0  0.86520  0.11180  0.58180  1.0000
  F   F46       1.0  0.13480  0.61180  0.91820  1.0000
  F   F47       1.0  0.13480  0.88820  0.41820  1.0000
  F   F48       1.0  0.86520  0.38820  0.08180  1.0000
  F   F49       1.0  0.58750  0.11970  0.50190  1.0000
  F   F50       1.0  0.41250  0.61970  0.99810  1.0000
  F   F51       1.0  0.41250  0.88030  0.49810  1.0000
  F   F52       1.0  0.58750  0.38030  0.00190  1.0000
  F   F53       1.0  0.79720  0.01690  0.55090  1.0000
  F   F54       1.0  0.20280  0.51690  0.94910  1.0000
  F   F55       1.0  0.20280  0.98310  0.44910  1.0000
  F   F56       1.0  0.79720  0.48310  0.05090  1.0000
  F   F57       1.0  0.65170  0.02730  0.55510  1.0000
  F   F58       1.0  0.34830  0.52730  0.94490  1.0000
  F   F59       1.0  0.34830  0.97270  0.44490  1.0000
  F   F60       1.0  0.65170  0.47270  0.05510  1.0000
  F   F61       1.0  0.80510  0.07130  0.65320  1.0000
  F   F62       1.0  0.19490  0.57130  0.84680  1.0000
  F   F63       1.0  0.19490  0.92870  0.34680  1.0000
  F   F64       1.0  0.80510  0.42870  0.15320  1.0000
  F   F65       1.0  0.65530  0.12100  0.62050  1.0000
  F   F66       1.0  0.34470  0.62100  0.87950  1.0000
  F   F67       1.0  0.34470  0.87900  0.37950  1.0000
  F   F68       1.0  0.65530  0.37900  0.12050  1.0000
  F   F69       1.0  0.67280  0.23890  0.53200  1.0000
  F   F70       1.0  0.32720  0.73890  0.96800  1.0000
  F   F71       1.0  0.32720  0.76110  0.46800  1.0000
  F   F72       1.0  0.67280  0.26110  0.03200  1.0000
  F   F73       1.0  0.57810  0.22550  0.36940  1.0000
  F   F74       1.0  0.42190  0.72550  0.13060  1.0000
  F   F75       1.0  0.42190  0.77450  0.63060  1.0000
  F   F76       1.0  0.57810  0.27450  0.86940  1.0000
  F   F77       1.0  0.48860  0.22350  0.25720  1.0000
  F   F78       1.0  0.51140  0.72350  0.24280  1.0000
  F   F79       1.0  0.51140  0.77650  0.74280  1.0000
  F   F80       1.0  0.48860  0.27650  0.75720  1.0000
  F   F81       1.0  0.52470  0.12760  0.32160  1.0000
  F   F82       1.0  0.47530  0.62760  0.17840  1.0000
  F   F83       1.0  0.47530  0.87240  0.67840  1.0000
  F   F84       1.0  0.52470  0.37240  0.82160  1.0000
  F   F85       1.0  0.51820  0.11250  0.17400  1.0000
  F   F86       1.0  0.48180  0.61250  0.32600  1.0000
  F   F87       1.0  0.48180  0.88750  0.82600  1.0000
  F   F88       1.0  0.51820  0.38750  0.67400  1.0000
  F   F89       1.0  0.71100  0.24090  0.23750  1.0000
  F   F90       1.0  0.28900  0.74090  0.26250  1.0000
  F   F91       1.0  0.28900  0.75910  0.76250  1.0000
  F   F92       1.0  0.71100  0.25910  0.73750  1.0000
  F   F93       1.0  0.71570  0.24940  0.35220  1.0000
  F   F94       1.0  0.28430  0.74940  0.14780  1.0000
  F   F95       1.0  0.28430  0.75060  0.64780  1.0000
  F   F96       1.0  0.71570  0.25060  0.85220  1.0000
  F   F97       1.0  0.62310  0.30180  0.26320  1.0000
  F   F98       1.0  0.37690  0.80180  0.23680  1.0000
  F   F99       1.0  0.37690  0.69820  0.73680  1.0000
  F   F100      1.0  0.62310  0.19820  0.76320  1.0000
  F   F101      1.0  0.54670  0.21620  0.14380  1.0000
  F   F102      1.0  0.45330  0.71620  0.35620  1.0000
  F   F103      1.0  0.45330  0.78380  0.85620  1.0000
  F   F104      1.0  0.54670  0.28380  0.64380  1.0000
  F   F105      1.0  0.62780  0.13080  0.15780  1.0000
  F   F106      1.0  0.37220  0.63080  0.34220  1.0000
  F   F107      1.0  0.37220  0.86920  0.84220  1.0000
  F   F108      1.0  0.62780  0.36920  0.65780  1.0000
  F   F109      1.0  0.50050  0.86110  0.36870  1.0000
  F   F110      1.0  0.49950  0.36110  0.13130  1.0000
  F   F111      1.0  0.49950  0.13890  0.63130  1.0000
  F   F112      1.0  0.50050  0.63890  0.86870  1.0000
  F   F113      1.0  0.50480  0.96800  0.40800  1.0000
  F   F114      1.0  0.49520  0.46800  0.09200  1.0000
  F   F115      1.0  0.49520  0.03200  0.59200  1.0000
  F   F116      1.0  0.50480  0.53200  0.90800  1.0000
  F   F117      1.0  0.59260  0.97370  0.23560  1.0000
  F   F118      1.0  0.40740  0.47370  0.26440  1.0000
  F   F119      1.0  0.40740  0.02630  0.76440  1.0000
  F   F120      1.0  0.59260  0.52630  0.73560  1.0000
  F   F121      1.0  0.53310  0.87660  0.24010  1.0000
  F   F122      1.0  0.46690  0.37660  0.25990  1.0000
  F   F123      1.0  0.46690  0.12340  0.75990  1.0000
  F   F124      1.0  0.53310  0.62340  0.74010  1.0000
  F   F125      1.0  0.69930  0.88340  0.31500  1.0000
  F   F126      1.0  0.30070  0.38340  0.18500  1.0000
  F   F127      1.0  0.30070  0.11660  0.68500  1.0000
  F   F128      1.0  0.69930  0.61660  0.81500  1.0000
  F   F129      1.0  0.48650  0.97570  0.26170  1.0000
  F   F130      1.0  0.51350  0.47570  0.23830  1.0000
  F   F131      1.0  0.51350  0.02430  0.73830  1.0000
  F   F132      1.0  0.48650  0.52430  0.76170  1.0000
  F   F133      1.0  0.59320  0.89370  0.47220  1.0000
  F   F134      1.0  0.40680  0.39370  0.02780  1.0000
  F   F135      1.0  0.40680  0.10630  0.52780  1.0000
  F   F136      1.0  0.59320  0.60630  0.97220  1.0000
  F   F137      1.0  0.72430  0.88730  0.43470  1.0000
  F   F138      1.0  0.27570  0.38730  0.06530  1.0000
  F   F139      1.0  0.27570  0.11270  0.56530  1.0000
  F   F140      1.0  0.72430  0.61270  0.93470  1.0000
  F   F141      1.0  0.63890  0.81310  0.36480  1.0000
  F   F142      1.0  0.36110  0.31310  0.13520  1.0000
  F   F143      1.0  0.36110  0.18690  0.63520  1.0000
  F   F144      1.0  0.63890  0.68690  0.86480  1.0000
