data_image0
_chemical_formula_structural       Cr6Na6O72C36
_chemical_formula_sum              "Cr6 Na6 O72 C36"
_cell_length_a       16.969
_cell_length_b       16.969
_cell_length_c       12.521
_cell_angle_alpha    90
_cell_angle_beta     90
_cell_angle_gamma    120

_space_group_name_H-M_alt    "P 1"
_space_group_IT_number       1

loop_
  _space_group_symop_operation_xyz
  'x, y, z'

loop_
  _atom_site_type_symbol
  _atom_site_label
  _atom_site_symmetry_multiplicity
  _atom_site_fract_x
  _atom_site_fract_y
  _atom_site_fract_z
  _atom_site_occupancy
  Cr  Cr1       1.0  0.00000  0.65990  0.25000  1.0000
  Cr  Cr2       1.0  0.34010  0.34010  0.25000  1.0000
  Cr  Cr3       1.0  0.65990  0.00000  0.25000  1.0000
  Cr  Cr4       1.0  0.00000  0.34010  0.75000  1.0000
  Cr  Cr5       1.0  0.65990  0.65990  0.75000  1.0000
  Cr  Cr6       1.0  0.34010  0.00000  0.75000  1.0000
  Na  Na1       1.0  0.67540  0.67540  0.25000  1.0000
  Na  Na2       1.0  0.32460  0.00000  0.25000  1.0000
  Na  Na3       1.0  0.00000  0.32460  0.25000  1.0000
  Na  Na4       1.0  0.32460  0.32460  0.75000  1.0000
  Na  Na5       1.0  0.67540  0.00000  0.75000  1.0000
  Na  Na6       1.0  0.00000  0.67540  0.75000  1.0000
  O   O1        1.0  0.88580  0.60890  0.33280  1.0000
  O   O2        1.0  0.39110  0.27690  0.33280  1.0000
  O   O3        1.0  0.60890  0.88580  0.16720  1.0000
  O   O4        1.0  0.72310  0.11420  0.33280  1.0000
  O   O5        1.0  0.11420  0.72310  0.16720  1.0000
  O   O6        1.0  0.27690  0.39110  0.16720  1.0000
  O   O7        1.0  0.11420  0.39110  0.66720  1.0000
  O   O8        1.0  0.60890  0.72310  0.66720  1.0000
  O   O9        1.0  0.39110  0.11420  0.83280  1.0000
  O   O10       1.0  0.27690  0.88580  0.66720  1.0000
  O   O11       1.0  0.88580  0.27690  0.83280  1.0000
  O   O12       1.0  0.72310  0.60890  0.83280  1.0000
  O   O13       1.0  0.94060  0.71180  0.16240  1.0000
  O   O14       1.0  0.28820  0.22880  0.16240  1.0000
  O   O15       1.0  0.71180  0.94060  0.33760  1.0000
  O   O16       1.0  0.77120  0.05940  0.16240  1.0000
  O   O17       1.0  0.05940  0.77120  0.33760  1.0000
  O   O18       1.0  0.22880  0.28820  0.33760  1.0000
  O   O19       1.0  0.05940  0.28820  0.83760  1.0000
  O   O20       1.0  0.71180  0.77120  0.83760  1.0000
  O   O21       1.0  0.28820  0.05940  0.66240  1.0000
  O   O22       1.0  0.22880  0.94060  0.83760  1.0000
  O   O23       1.0  0.94060  0.22880  0.66240  1.0000
  O   O24       1.0  0.77120  0.71180  0.66240  1.0000
  O   O25       1.0  0.04760  0.59590  0.33770  1.0000
  O   O26       1.0  0.40410  0.45170  0.33770  1.0000
  O   O27       1.0  0.59590  0.04760  0.16230  1.0000
  O   O28       1.0  0.54830  0.95240  0.33770  1.0000
  O   O29       1.0  0.95240  0.54830  0.16230  1.0000
  O   O30       1.0  0.45170  0.40410  0.16230  1.0000
  O   O31       1.0  0.95240  0.40410  0.66230  1.0000
  O   O32       1.0  0.59590  0.54830  0.66230  1.0000
  O   O33       1.0  0.40410  0.95240  0.83770  1.0000
  O   O34       1.0  0.45170  0.04760  0.66230  1.0000
  O   O35       1.0  0.04760  0.45170  0.83770  1.0000
  O   O36       1.0  0.54830  0.59590  0.83770  1.0000
  O   O37       1.0  0.81490  0.72230  0.15880  1.0000
  O   O38       1.0  0.27770  0.09260  0.15880  1.0000
  O   O39       1.0  0.72230  0.81490  0.34120  1.0000
  O   O40       1.0  0.90740  0.18510  0.15880  1.0000
  O   O41       1.0  0.18510  0.90740  0.34120  1.0000
  O   O42       1.0  0.09260  0.27770  0.34120  1.0000
  O   O43       1.0  0.18510  0.27770  0.84120  1.0000
  O   O44       1.0  0.72230  0.90740  0.84120  1.0000
  O   O45       1.0  0.27770  0.18510  0.65880  1.0000
  O   O46       1.0  0.09260  0.81490  0.84120  1.0000
  O   O47       1.0  0.81490  0.09260  0.65880  1.0000
  O   O48       1.0  0.90740  0.72230  0.65880  1.0000
  O   O49       1.0  0.76180  0.62420  0.34550  1.0000
  O   O50       1.0  0.37580  0.13760  0.34550  1.0000
  O   O51       1.0  0.62420  0.76180  0.15450  1.0000
  O   O52       1.0  0.86240  0.23820  0.34550  1.0000
  O   O53       1.0  0.23820  0.86240  0.15450  1.0000
  O   O54       1.0  0.13760  0.37580  0.15450  1.0000
  O   O55       1.0  0.23820  0.37580  0.65450  1.0000
  O   O56       1.0  0.62420  0.86240  0.65450  1.0000
  O   O57       1.0  0.37580  0.23820  0.84550  1.0000
  O   O58       1.0  0.13760  0.76180  0.65450  1.0000
  O   O59       1.0  0.76180  0.13760  0.84550  1.0000
  O   O60       1.0  0.86240  0.62420  0.84550  1.0000
  O   O61       1.0  0.05850  0.47050  0.33720  1.0000
  O   O62       1.0  0.52950  0.58800  0.33720  1.0000
  O   O63       1.0  0.47050  0.05850  0.16280  1.0000
  O   O64       1.0  0.41200  0.94150  0.33720  1.0000
  O   O65       1.0  0.94150  0.41200  0.16280  1.0000
  O   O66       1.0  0.58800  0.52950  0.16280  1.0000
  O   O67       1.0  0.94150  0.52950  0.66280  1.0000
  O   O68       1.0  0.47050  0.41200  0.66280  1.0000
  O   O69       1.0  0.52950  0.94150  0.83720  1.0000
  O   O70       1.0  0.58800  0.05850  0.66280  1.0000
  O   O71       1.0  0.05850  0.58800  0.83720  1.0000
  O   O72       1.0  0.41200  0.47050  0.83720  1.0000
  C   C1        1.0  0.86290  0.69510  0.19740  1.0000
  C   C2        1.0  0.30490  0.16780  0.19740  1.0000
  C   C3        1.0  0.69510  0.86290  0.30260  1.0000
  C   C4        1.0  0.83220  0.13710  0.19740  1.0000
  C   C5        1.0  0.13710  0.83220  0.30260  1.0000
  C   C6        1.0  0.16780  0.30490  0.30260  1.0000
  C   C7        1.0  0.13710  0.30490  0.80260  1.0000
  C   C8        1.0  0.69510  0.83220  0.80260  1.0000
  C   C9        1.0  0.30490  0.13710  0.69740  1.0000
  C   C10       1.0  0.16780  0.86290  0.80260  1.0000
  C   C11       1.0  0.86290  0.16780  0.69740  1.0000
  C   C12       1.0  0.83220  0.69510  0.69740  1.0000
  C   C13       1.0  0.83080  0.63590  0.30210  1.0000
  C   C14       1.0  0.36410  0.19490  0.30210  1.0000
  C   C15       1.0  0.63590  0.83080  0.19790  1.0000
  C   C16       1.0  0.80510  0.16920  0.30210  1.0000
  C   C17       1.0  0.16920  0.80510  0.19790  1.0000
  C   C18       1.0  0.19490  0.36410  0.19790  1.0000
  C   C19       1.0  0.16920  0.36410  0.69790  1.0000
  C   C20       1.0  0.63590  0.80510  0.69790  1.0000
  C   C21       1.0  0.36410  0.16920  0.80210  1.0000
  C   C22       1.0  0.19490  0.83080  0.69790  1.0000
  C   C23       1.0  0.83080  0.19490  0.80210  1.0000
  C   C24       1.0  0.80510  0.63590  0.80210  1.0000
  C   C25       1.0  0.03140  0.51850  0.29880  1.0000
  C   C26       1.0  0.48150  0.51290  0.29880  1.0000
  C   C27       1.0  0.51850  0.03140  0.20120  1.0000
  C   C28       1.0  0.48710  0.96860  0.29880  1.0000
  C   C29       1.0  0.96860  0.48710  0.20120  1.0000
  C   C30       1.0  0.51290  0.48150  0.20120  1.0000
  C   C31       1.0  0.96860  0.48150  0.70120  1.0000
  C   C32       1.0  0.51850  0.48710  0.70120  1.0000
  C   C33       1.0  0.48150  0.96860  0.79880  1.0000
  C   C34       1.0  0.51290  0.03140  0.70120  1.0000
  C   C35       1.0  0.03140  0.51290  0.79880  1.0000
  C   C36       1.0  0.48710  0.51850  0.79880  1.0000
