data_image0
_chemical_formula_structural       Ag8S4O32H8C16H4C8H4C4H4C4
_chemical_formula_sum              "Ag8 S4 O32 H20 C32"
_cell_length_a       10.7916
_cell_length_b       18.5791
_cell_length_c       11.2595
_cell_angle_alpha    90
_cell_angle_beta     118.577
_cell_angle_gamma    90

_space_group_name_H-M_alt    "P 1"
_space_group_IT_number       1

loop_
  _space_group_symop_operation_xyz
  'x, y, z'

loop_
  _atom_site_type_symbol
  _atom_site_label
  _atom_site_symmetry_multiplicity
  _atom_site_fract_x
  _atom_site_fract_y
  _atom_site_fract_z
  _atom_site_occupancy
  Ag  Ag1       1.0  0.39388  0.29643  0.39875  1.0000
  Ag  Ag2       1.0  0.60612  0.79643  0.10125  1.0000
  Ag  Ag3       1.0  0.60612  0.70357  0.60125  1.0000
  Ag  Ag4       1.0  0.39388  0.20357  0.89875  1.0000
  Ag  Ag5       1.0  0.55125  0.25071  0.27068  1.0000
  Ag  Ag6       1.0  0.44875  0.75071  0.22932  1.0000
  Ag  Ag7       1.0  0.44875  0.74929  0.72932  1.0000
  Ag  Ag8       1.0  0.55125  0.24929  0.77068  1.0000
  S   S1        1.0  0.73944  0.41015  0.79330  1.0000
  S   S2        1.0  0.26056  0.91015  0.70670  1.0000
  S   S3        1.0  0.26056  0.58985  0.20670  1.0000
  S   S4        1.0  0.73944  0.08985  0.29330  1.0000
  O   O1        1.0  0.72290  0.28130  0.47680  1.0000
  O   O2        1.0  0.27710  0.78130  0.02320  1.0000
  O   O3        1.0  0.27710  0.71870  0.52320  1.0000
  O   O4        1.0  0.72290  0.21870  0.97680  1.0000
  O   O5        1.0  0.59280  0.28040  0.58140  1.0000
  O   O6        1.0  0.40720  0.78040  0.91860  1.0000
  O   O7        1.0  0.40720  0.71960  0.41860  1.0000
  O   O8        1.0  0.59280  0.21960  0.08140  1.0000
  O   O9        1.0  0.68980  0.43570  0.65720  1.0000
  O   O10       1.0  0.31020  0.93570  0.84280  1.0000
  O   O11       1.0  0.31020  0.56430  0.34280  1.0000
  O   O12       1.0  0.68980  0.06430  0.15720  1.0000
  O   O13       1.0  0.62780  0.38120  0.81570  1.0000
  O   O14       1.0  0.37220  0.88120  0.68430  1.0000
  O   O15       1.0  0.37220  0.61880  0.18430  1.0000
  O   O16       1.0  0.62780  0.11880  0.31570  1.0000
  O   O17       1.0  0.82260  0.46400  0.89240  1.0000
  O   O18       1.0  0.17740  0.96400  0.60760  1.0000
  O   O19       1.0  0.17740  0.53600  0.10760  1.0000
  O   O20       1.0  0.82260  0.03600  0.39240  1.0000
  O   O21       1.0  0.22570  0.31260  0.19430  1.0000
  O   O22       1.0  0.77430  0.81260  0.30570  1.0000
  O   O23       1.0  0.77430  0.68740  0.80570  1.0000
  O   O24       1.0  0.22570  0.18740  0.69430  1.0000
  O   O25       1.0  0.33080  0.25720  0.09250  1.0000
  O   O26       1.0  0.66920  0.75720  0.40750  1.0000
  O   O27       1.0  0.66920  0.74280  0.90750  1.0000
  O   O28       1.0  0.33080  0.24280  0.59250  1.0000
  O   O29       1.0  0.38410  0.42270  0.48170  1.0000
  O   O30       1.0  0.61590  0.92270  0.01830  1.0000
  O   O31       1.0  0.61590  0.57730  0.51830  1.0000
  O   O32       1.0  0.38410  0.07730  0.98170  1.0000
  H   H1        1.0  0.46660  0.43550  0.54050  1.0000
  H   H2        1.0  0.53340  0.93550  0.95950  1.0000
  H   H3        1.0  0.53340  0.56450  0.45950  1.0000
  H   H4        1.0  0.46660  0.06450  0.04050  1.0000
  H   H5        1.0  0.35310  0.45170  0.41530  1.0000
  H   H6        1.0  0.64690  0.95170  0.08470  1.0000
  H   H7        1.0  0.64690  0.54830  0.58470  1.0000
  H   H8        1.0  0.35310  0.04830  0.91530  1.0000
  C   C1        1.0  0.70840  0.28460  0.57890  1.0000
  C   C2        1.0  0.29160  0.78460  0.92110  1.0000
  C   C3        1.0  0.29160  0.71540  0.42110  1.0000
  C   C4        1.0  0.70840  0.21540  0.07890  1.0000
  C   C5        1.0  0.84070  0.29020  0.71410  1.0000
  C   C6        1.0  0.15930  0.79020  0.78590  1.0000
  C   C7        1.0  0.15930  0.70980  0.28590  1.0000
  C   C8        1.0  0.84070  0.20980  0.21410  1.0000
  C   C9        1.0  0.86080  0.33890  0.81620  1.0000
  C   C10       1.0  0.13920  0.83890  0.68380  1.0000
  C   C11       1.0  0.13920  0.66110  0.18380  1.0000
  C   C12       1.0  0.86080  0.16110  0.31620  1.0000
  C   C13       1.0  0.98550  0.33740  0.93960  1.0000
  C   C14       1.0  0.01450  0.83740  0.56040  1.0000
  C   C15       1.0  0.01450  0.66260  0.06040  1.0000
  C   C16       1.0  0.98550  0.16260  0.43960  1.0000
  H   H9        1.0  0.99840  0.36990  0.00740  1.0000
  H   H10       1.0  0.00160  0.86990  0.49260  1.0000
  H   H11       1.0  0.00160  0.63010  0.99260  1.0000
  H   H12       1.0  0.99840  0.13010  0.50740  1.0000
  C   C17       1.0  0.09070  0.28720  0.96160  1.0000
  C   C18       1.0  0.90930  0.78720  0.53840  1.0000
  C   C19       1.0  0.90930  0.71280  0.03840  1.0000
  C   C20       1.0  0.09070  0.21280  0.46160  1.0000
  C   C21       1.0  0.06990  0.23980  0.85760  1.0000
  C   C22       1.0  0.93010  0.73980  0.64240  1.0000
  C   C23       1.0  0.93010  0.76020  0.14240  1.0000
  C   C24       1.0  0.06990  0.26020  0.35760  1.0000
  H   H13       1.0  0.13980  0.20660  0.87100  1.0000
  H   H14       1.0  0.86020  0.70660  0.62900  1.0000
  H   H15       1.0  0.86020  0.79340  0.12900  1.0000
  H   H16       1.0  0.13980  0.29340  0.37100  1.0000
  C   C25       1.0  0.94870  0.24130  0.73650  1.0000
  C   C26       1.0  0.05130  0.74130  0.76350  1.0000
  C   C27       1.0  0.05130  0.75870  0.26350  1.0000
  C   C28       1.0  0.94870  0.25870  0.23650  1.0000
  H   H17       1.0  0.93760  0.20950  0.66820  1.0000
  H   H18       1.0  0.06240  0.70950  0.83180  1.0000
  H   H19       1.0  0.06240  0.79050  0.33180  1.0000
  H   H20       1.0  0.93760  0.29050  0.16820  1.0000
  C   C29       1.0  0.22690  0.28510  0.09210  1.0000
  C   C30       1.0  0.77310  0.78510  0.40790  1.0000
  C   C31       1.0  0.77310  0.71490  0.90790  1.0000
  C   C32       1.0  0.22690  0.21490  0.59210  1.0000
