data_image0
_chemical_formula_structural       Cr2Mn2O24C12
_chemical_formula_sum              "Cr2 Mn2 O24 C12"
_cell_length_a       9.441
_cell_length_b       9.441
_cell_length_c       16.831
_cell_angle_alpha    90
_cell_angle_beta     90
_cell_angle_gamma    120

_space_group_name_H-M_alt    "P 1"
_space_group_IT_number       1

loop_
  _space_group_symop_operation_xyz
  'x, y, z'

loop_
  _atom_site_type_symbol
  _atom_site_label
  _atom_site_symmetry_multiplicity
  _atom_site_fract_x
  _atom_site_fract_y
  _atom_site_fract_z
  _atom_site_occupancy
  Cr  Cr1       1.0  0.66670  0.33330  0.12540  1.0000
  Cr  Cr2       1.0  0.33330  0.66670  0.62540  1.0000
  Mn  Mn1       1.0  0.00000  0.00000  0.12463  1.0000
  Mn  Mn2       1.0  0.00000  0.00000  0.62463  1.0000
  O   O1        1.0  0.20120  0.02190  0.05710  1.0000
  O   O2        1.0  0.79880  0.97810  0.55710  1.0000
  O   O3        1.0  0.97810  0.17930  0.05710  1.0000
  O   O4        1.0  0.82070  0.79880  0.05710  1.0000
  O   O5        1.0  0.17930  0.20120  0.55710  1.0000
  O   O6        1.0  0.02190  0.82070  0.55710  1.0000
  O   O7        1.0  0.20330  0.18190  0.19130  1.0000
  O   O8        1.0  0.79670  0.81810  0.69130  1.0000
  O   O9        1.0  0.81810  0.02140  0.19130  1.0000
  O   O10       1.0  0.97860  0.79670  0.19130  1.0000
  O   O11       1.0  0.02140  0.20330  0.69130  1.0000
  O   O12       1.0  0.18190  0.97860  0.69130  1.0000
  O   O13       1.0  0.47960  0.15930  0.05930  1.0000
  O   O14       1.0  0.52040  0.84070  0.55930  1.0000
  O   O15       1.0  0.84070  0.32030  0.05930  1.0000
  O   O16       1.0  0.67970  0.52040  0.05930  1.0000
  O   O17       1.0  0.32030  0.47960  0.55930  1.0000
  O   O18       1.0  0.15930  0.67970  0.55930  1.0000
  O   O19       1.0  0.47670  0.31670  0.19060  1.0000
  O   O20       1.0  0.52330  0.68330  0.69060  1.0000
  O   O21       1.0  0.68330  0.16000  0.19060  1.0000
  O   O22       1.0  0.84000  0.52330  0.19060  1.0000
  O   O23       1.0  0.16000  0.47670  0.69060  1.0000
  O   O24       1.0  0.31670  0.84000  0.69060  1.0000
  C   C1        1.0  0.33790  0.12400  0.08630  1.0000
  C   C2        1.0  0.66210  0.87600  0.58630  1.0000
  C   C3        1.0  0.87600  0.21390  0.08630  1.0000
  C   C4        1.0  0.78610  0.66210  0.08630  1.0000
  C   C5        1.0  0.21390  0.33790  0.58630  1.0000
  C   C6        1.0  0.12400  0.78610  0.58630  1.0000
  C   C7        1.0  0.33570  0.21380  0.16300  1.0000
  C   C8        1.0  0.66430  0.78620  0.66300  1.0000
  C   C9        1.0  0.78620  0.12190  0.16300  1.0000
  C   C10       1.0  0.87810  0.66430  0.16300  1.0000
  C   C11       1.0  0.12190  0.33570  0.66300  1.0000
  C   C12       1.0  0.21380  0.87810  0.66300  1.0000
