data_image0
_chemical_formula_structural       Mo20Cu6P8O88H4O4H4N32C4H4C4H4C8H4C4H4C4H4C4H4C8H4C4H4C4H4C4H4C8H4C4H4C4H4C4H4C8H4C4H4C4H4C4H4C8H4C4H4C4H4C4H4C8H4C4H4C4H4C4H4C8H4C4H4C4H4C4H4C8H4C4H4
_chemical_formula_sum              "Mo20 Cu6 P8 O92 H136 N32 C160"
_cell_length_a       13.959
_cell_length_b       22.485
_cell_length_c       19.1568
_cell_angle_alpha    90
_cell_angle_beta     97.778
_cell_angle_gamma    90

_space_group_name_H-M_alt    "P 1"
_space_group_IT_number       1

loop_
  _space_group_symop_operation_xyz
  'x, y, z'

loop_
  _atom_site_type_symbol
  _atom_site_label
  _atom_site_symmetry_multiplicity
  _atom_site_fract_x
  _atom_site_fract_y
  _atom_site_fract_z
  _atom_site_occupancy
  Mo  Mo1       1.0  0.51362  0.70564  0.33774  1.0000
  Mo  Mo2       1.0  0.98638  0.20564  0.16226  1.0000
  Mo  Mo3       1.0  0.48638  0.29436  0.66226  1.0000
  Mo  Mo4       1.0  0.01362  0.79436  0.83774  1.0000
  Mo  Mo5       1.0  0.56778  0.67685  0.51482  1.0000
  Mo  Mo6       1.0  0.93222  0.17685  0.98518  1.0000
  Mo  Mo7       1.0  0.43222  0.32315  0.48518  1.0000
  Mo  Mo8       1.0  0.06778  0.82315  0.01482  1.0000
  Mo  Mo9       1.0  0.44223  0.77163  0.60311  1.0000
  Mo  Mo10      1.0  0.05777  0.27163  0.89689  1.0000
  Mo  Mo11      1.0  0.55777  0.22838  0.39689  1.0000
  Mo  Mo12      1.0  0.94223  0.72837  0.10311  1.0000
  Mo  Mo13      1.0  0.35624  0.88856  0.47503  1.0000
  Mo  Mo14      1.0  0.14376  0.38856  0.02497  1.0000
  Mo  Mo15      1.0  0.64376  0.11144  0.52497  1.0000
  Mo  Mo16      1.0  0.85624  0.61144  0.97503  1.0000
  Mo  Mo17      1.0  0.37965  0.83068  0.31454  1.0000
  Mo  Mo18      1.0  0.12035  0.33068  0.18546  1.0000
  Mo  Mo19      1.0  0.62035  0.16932  0.68546  1.0000
  Mo  Mo20      1.0  0.87965  0.66932  0.81454  1.0000
  Cu  Cu1       1.0  0.74088  0.73676  0.23209  1.0000
  Cu  Cu2       1.0  0.75912  0.23676  0.26791  1.0000
  Cu  Cu3       1.0  0.25912  0.26324  0.76791  1.0000
  Cu  Cu4       1.0  0.24088  0.76324  0.73209  1.0000
  Cu  Cu5       1.0  0.50000  0.50000  0.50000  1.0000
  Cu  Cu6       1.0  0.00000  0.00000  0.00000  1.0000
  P   P1        1.0  0.33320  0.72994  0.44460  1.0000
  P   P2        1.0  0.16680  0.22994  0.05540  1.0000
  P   P3        1.0  0.66680  0.27006  0.55540  1.0000
  P   P4        1.0  0.83320  0.77006  0.94460  1.0000
  P   P5        1.0  0.56590  0.81959  0.45814  1.0000
  P   P6        1.0  0.93410  0.31959  0.04186  1.0000
  P   P7        1.0  0.43410  0.18041  0.54186  1.0000
  P   P8        1.0  0.06590  0.68041  0.95814  1.0000
  O   O1        1.0  0.42190  0.69477  0.42593  1.0000
  O   O2        1.0  0.07810  0.19477  0.07407  1.0000
  O   O3        1.0  0.57810  0.30523  0.57407  1.0000
  O   O4        1.0  0.92190  0.80523  0.92593  1.0000
  O   O5        1.0  0.60120  0.68921  0.42274  1.0000
  O   O6        1.0  0.89880  0.18921  0.07726  1.0000
  O   O7        1.0  0.39880  0.31079  0.57726  1.0000
  O   O8        1.0  0.10120  0.81079  0.92274  1.0000
  O   O9        1.0  0.52130  0.80116  0.38336  1.0000
  O   O10       1.0  0.97870  0.30116  0.11664  1.0000
  O   O11       1.0  0.47870  0.19884  0.61664  1.0000
  O   O12       1.0  0.02130  0.69884  0.88336  1.0000
  O   O13       1.0  0.40180  0.74722  0.29405  1.0000
  O   O14       1.0  0.09820  0.24722  0.20595  1.0000
  O   O15       1.0  0.59820  0.25278  0.70595  1.0000
  O   O16       1.0  0.90180  0.75278  0.79405  1.0000
  O   O17       1.0  0.60220  0.72781  0.28779  1.0000
  O   O18       1.0  0.89780  0.22781  0.21221  1.0000
  O   O19       1.0  0.39780  0.27219  0.71221  1.0000
  O   O20       1.0  0.10220  0.77219  0.78779  1.0000
  O   O21       1.0  0.48850  0.63537  0.30743  1.0000
  O   O22       1.0  0.01150  0.13537  0.19257  1.0000
  O   O23       1.0  0.51150  0.36463  0.69257  1.0000
  O   O24       1.0  0.98850  0.86463  0.80743  1.0000
  O   O25       1.0  0.54070  0.77178  0.51186  1.0000
  O   O26       1.0  0.95930  0.27178  0.98814  1.0000
  O   O27       1.0  0.45930  0.22822  0.48814  1.0000
  O   O28       1.0  0.04070  0.72822  0.01186  1.0000
  O   O29       1.0  0.49550  0.69472  0.59188  1.0000
  O   O30       1.0  0.00450  0.19472  0.90812  1.0000
  O   O31       1.0  0.50450  0.30528  0.40812  1.0000
  O   O32       1.0  0.99550  0.80528  0.09188  1.0000
  O   O33       1.0  0.53170  0.60354  0.50793  1.0000
  O   O34       1.0  0.96830  0.10354  0.99207  1.0000
  O   O35       1.0  0.46830  0.39646  0.49207  1.0000
  O   O36       1.0  0.03170  0.89646  0.00793  1.0000
  O   O37       1.0  0.68110  0.67468  0.55952  1.0000
  O   O38       1.0  0.81890  0.17468  0.94048  1.0000
  O   O39       1.0  0.31890  0.32532  0.44048  1.0000
  O   O40       1.0  0.18110  0.82532  0.05952  1.0000
  O   O41       1.0  0.38790  0.84077  0.55699  1.0000
  O   O42       1.0  0.11210  0.34077  0.94301  1.0000
  O   O43       1.0  0.61210  0.15923  0.44301  1.0000
  O   O44       1.0  0.88790  0.65923  0.05699  1.0000
  O   O45       1.0  0.33220  0.73001  0.52256  1.0000
  O   O46       1.0  0.16780  0.23001  0.97744  1.0000
  O   O47       1.0  0.66780  0.26999  0.47744  1.0000
  O   O48       1.0  0.83220  0.76999  0.02256  1.0000
  O   O49       1.0  0.36350  0.75749  0.66318  1.0000
  O   O50       1.0  0.13650  0.25749  0.83682  1.0000
  O   O51       1.0  0.63650  0.24251  0.33682  1.0000
  O   O52       1.0  0.86350  0.74251  0.16318  1.0000
  O   O53       1.0  0.53630  0.80382  0.65554  1.0000
  O   O54       1.0  0.96370  0.30382  0.84446  1.0000
  O   O55       1.0  0.46370  0.19618  0.34446  1.0000
  O   O56       1.0  0.03630  0.69618  0.15554  1.0000
  O   O57       1.0  0.33670  0.79371  0.41467  1.0000
  O   O58       1.0  0.16330  0.29371  0.08533  1.0000
  O   O59       1.0  0.66330  0.20629  0.58533  1.0000
  O   O60       1.0  0.83670  0.70629  0.91467  1.0000
  O   O61       1.0  0.37440  0.89539  0.37825  1.0000
  O   O62       1.0  0.12560  0.39539  0.12175  1.0000
  O   O63       1.0  0.62560  0.10461  0.62175  1.0000
  O   O64       1.0  0.87440  0.60461  0.87825  1.0000
  O   O65       1.0  0.52390  0.87855  0.47737  1.0000
  O   O66       1.0  0.97610  0.37855  0.02263  1.0000
  O   O67       1.0  0.47610  0.12145  0.52263  1.0000
  O   O68       1.0  0.02390  0.62145  0.97737  1.0000
  O   O69       1.0  0.23220  0.88817  0.46830  1.0000
  O   O70       1.0  0.26780  0.38817  0.03170  1.0000
  O   O71       1.0  0.76780  0.11183  0.53170  1.0000
  O   O72       1.0  0.73220  0.61183  0.96830  1.0000
  O   O73       1.0  0.38630  0.95837  0.50591  1.0000
  O   O74       1.0  0.11370  0.45837  0.99409  1.0000
  O   O75       1.0  0.61370  0.04163  0.49409  1.0000
  O   O76       1.0  0.88630  0.54163  0.00591  1.0000
  O   O77       1.0  0.26470  0.83259  0.27090  1.0000
  O   O78       1.0  0.23530  0.33259  0.22910  1.0000
  O   O79       1.0  0.73530  0.16741  0.72910  1.0000
  O   O80       1.0  0.76470  0.66741  0.77090  1.0000
  O   O81       1.0  0.44750  0.86366  0.25770  1.0000
  O   O82       1.0  0.05250  0.36366  0.24230  1.0000
  O   O83       1.0  0.55250  0.13634  0.74230  1.0000
  O   O84       1.0  0.94750  0.63634  0.75770  1.0000
  O   O85       1.0  0.23870  0.69915  0.41110  1.0000
  O   O86       1.0  0.26130  0.19915  0.08890  1.0000
  O   O87       1.0  0.76130  0.30085  0.58890  1.0000
  O   O88       1.0  0.73870  0.80085  0.91110  1.0000
  H   H1        1.0  0.23700  0.69820  0.36820  1.0000
  H   H2        1.0  0.26300  0.19820  0.13180  1.0000
  H   H3        1.0  0.76300  0.30180  0.63180  1.0000
  H   H4        1.0  0.73700  0.80180  0.86820  1.0000
  O   O89       1.0  0.67620  0.82112  0.46340  1.0000
  O   O90       1.0  0.82380  0.32112  0.03660  1.0000
  O   O91       1.0  0.32380  0.17888  0.53660  1.0000
  O   O92       1.0  0.17620  0.67888  0.96340  1.0000
  H   H5        1.0  0.69230  0.84630  0.43620  1.0000
  H   H6        1.0  0.80770  0.34630  0.06380  1.0000
  H   H7        1.0  0.30770  0.15370  0.56380  1.0000
  H   H8        1.0  0.19230  0.65370  0.93620  1.0000
  N   N1        1.0  0.74570  0.82898  0.24910  1.0000
  N   N2        1.0  0.75430  0.32898  0.25090  1.0000
  N   N3        1.0  0.25430  0.17102  0.75090  1.0000
  N   N4        1.0  0.24570  0.67102  0.74910  1.0000
  N   N5        1.0  0.75720  0.14398  0.27970  1.0000
  N   N6        1.0  0.74280  0.64398  0.22030  1.0000
  N   N7        1.0  0.24280  0.85602  0.72030  1.0000
  N   N8        1.0  0.25720  0.35602  0.77970  1.0000
  N   N9        1.0  0.64650  0.74505  0.14318  1.0000
  N   N10       1.0  0.85350  0.24505  0.35682  1.0000
  N   N11       1.0  0.35350  0.25495  0.85682  1.0000
  N   N12       1.0  0.14650  0.75495  0.64318  1.0000
  N   N13       1.0  0.33510  0.77030  0.82118  1.0000
  N   N14       1.0  0.16490  0.27030  0.67882  1.0000
  N   N15       1.0  0.66490  0.22970  0.17882  1.0000
  N   N16       1.0  0.83510  0.72970  0.32118  1.0000
  N   N17       1.0  0.61470  0.48998  0.44340  1.0000
  N   N18       1.0  0.88530  0.98998  0.05660  1.0000
  N   N19       1.0  0.38530  0.51002  0.55660  1.0000
  N   N20       1.0  0.11470  0.01002  0.94340  1.0000
  N   N21       1.0  0.10680  0.51300  0.38900  1.0000
  N   N22       1.0  0.39320  0.01300  0.11100  1.0000
  N   N23       1.0  0.89320  0.48700  0.61100  1.0000
  N   N24       1.0  0.60680  0.98700  0.88900  1.0000
  N   N25       1.0  0.59520  0.49161  0.59020  1.0000
  N   N26       1.0  0.90480  0.99161  0.90980  1.0000
  N   N27       1.0  0.40480  0.50839  0.40980  1.0000
  N   N28       1.0  0.09520  0.00839  0.09020  1.0000
  N   N29       1.0  0.90290  0.42990  0.90190  1.0000
  N   N30       1.0  0.59710  0.92990  0.59810  1.0000
  N   N31       1.0  0.09710  0.57010  0.09810  1.0000
  N   N32       1.0  0.40290  0.07010  0.40190  1.0000
  C   C1        1.0  0.81500  0.86270  0.22680  1.0000
  C   C2        1.0  0.68500  0.36270  0.27320  1.0000
  C   C3        1.0  0.18500  0.13730  0.77320  1.0000
  C   C4        1.0  0.31500  0.63730  0.72680  1.0000
  H   H9        1.0  0.86070  0.84420  0.20290  1.0000
  H   H10       1.0  0.63930  0.34420  0.29710  1.0000
  H   H11       1.0  0.13930  0.15580  0.79710  1.0000
  H   H12       1.0  0.36070  0.65580  0.70290  1.0000
  C   C5        1.0  0.82180  0.92340  0.23740  1.0000
  C   C6        1.0  0.67820  0.42340  0.26260  1.0000
  C   C7        1.0  0.17820  0.07660  0.76260  1.0000
  C   C8        1.0  0.32180  0.57660  0.73740  1.0000
  H   H13       1.0  0.87200  0.94470  0.22190  1.0000
  H   H14       1.0  0.62800  0.44470  0.27810  1.0000
  H   H15       1.0  0.12800  0.05530  0.77810  1.0000
  H   H16       1.0  0.37200  0.55530  0.72190  1.0000
  C   C9        1.0  0.75380  0.95240  0.27120  1.0000
  C   C10       1.0  0.74620  0.45240  0.22880  1.0000
  C   C11       1.0  0.24620  0.04760  0.72880  1.0000
  C   C12       1.0  0.25380  0.54760  0.77120  1.0000
  C   C13       1.0  0.68330  0.91750  0.29510  1.0000
  C   C14       1.0  0.81670  0.41750  0.20490  1.0000
  C   C15       1.0  0.31670  0.08250  0.70490  1.0000
  C   C16       1.0  0.18330  0.58250  0.79510  1.0000
  H   H17       1.0  0.63640  0.93500  0.31860  1.0000
  H   H18       1.0  0.86360  0.43500  0.18140  1.0000
  H   H19       1.0  0.36360  0.06500  0.68140  1.0000
  H   H20       1.0  0.13640  0.56500  0.81860  1.0000
  C   C17       1.0  0.68220  0.85630  0.28410  1.0000
  C   C18       1.0  0.81780  0.35630  0.21590  1.0000
  C   C19       1.0  0.31780  0.14370  0.71590  1.0000
  C   C20       1.0  0.18220  0.64370  0.78410  1.0000
  H   H21       1.0  0.63530  0.83360  0.30180  1.0000
  H   H22       1.0  0.86470  0.33360  0.19820  1.0000
  H   H23       1.0  0.36470  0.16640  0.69820  1.0000
  H   H24       1.0  0.13530  0.66640  0.80180  1.0000
  C   C21       1.0  0.84000  0.11240  0.28430  1.0000
  C   C22       1.0  0.66000  0.61240  0.21570  1.0000
  C   C23       1.0  0.16000  0.88760  0.71570  1.0000
  C   C24       1.0  0.34000  0.38760  0.78430  1.0000
  H   H25       1.0  0.89830  0.13290  0.28780  1.0000
  H   H26       1.0  0.60170  0.63290  0.21220  1.0000
  H   H27       1.0  0.10170  0.86710  0.71220  1.0000
  H   H28       1.0  0.39830  0.36710  0.78780  1.0000
  C   C25       1.0  0.84230  0.05060  0.28400  1.0000
  C   C26       1.0  0.65770  0.55060  0.21600  1.0000
  C   C27       1.0  0.15770  0.94940  0.71600  1.0000
  C   C28       1.0  0.34230  0.44940  0.78400  1.0000
  H   H29       1.0  0.90120  0.03070  0.28760  1.0000
  H   H30       1.0  0.59880  0.53070  0.21240  1.0000
  H   H31       1.0  0.09880  0.96930  0.71240  1.0000
  H   H32       1.0  0.40120  0.46930  0.78760  1.0000
  C   C29       1.0  0.75580  0.01850  0.27820  1.0000
  C   C30       1.0  0.74420  0.51850  0.22180  1.0000
  C   C31       1.0  0.24420  0.98150  0.72180  1.0000
  C   C32       1.0  0.25580  0.48150  0.77820  1.0000
  C   C33       1.0  0.67110  0.05150  0.27590  1.0000
  C   C34       1.0  0.82890  0.55150  0.22410  1.0000
  C   C35       1.0  0.32890  0.94850  0.72410  1.0000
  C   C36       1.0  0.17110  0.44850  0.77590  1.0000
  H   H33       1.0  0.61190  0.03210  0.27360  1.0000
  H   H34       1.0  0.88810  0.53210  0.22640  1.0000
  H   H35       1.0  0.38810  0.96790  0.72640  1.0000
  H   H36       1.0  0.11190  0.46790  0.77360  1.0000
  C   C37       1.0  0.67450  0.11300  0.27690  1.0000
  C   C38       1.0  0.82550  0.61300  0.22310  1.0000
  C   C39       1.0  0.32550  0.88700  0.72310  1.0000
  C   C40       1.0  0.17450  0.38700  0.77690  1.0000
  H   H37       1.0  0.61680  0.13380  0.27560  1.0000
  H   H38       1.0  0.88320  0.63380  0.22440  1.0000
  H   H39       1.0  0.38320  0.86620  0.72440  1.0000
  H   H40       1.0  0.11680  0.36620  0.77560  1.0000
  C   C41       1.0  0.56680  0.77950  0.13910  1.0000
  C   C42       1.0  0.93320  0.27950  0.36090  1.0000
  C   C43       1.0  0.43320  0.22050  0.86090  1.0000
  C   C44       1.0  0.06680  0.72050  0.63910  1.0000
  H   H41       1.0  0.55280  0.79830  0.17980  1.0000
  H   H42       1.0  0.94720  0.29830  0.32020  1.0000
  H   H43       1.0  0.44720  0.20170  0.82020  1.0000
  H   H44       1.0  0.05280  0.70170  0.67980  1.0000
  C   C45       1.0  0.50570  0.78810  0.07750  1.0000
  C   C46       1.0  0.99430  0.28810  0.42250  1.0000
  C   C47       1.0  0.49430  0.21190  0.92250  1.0000
  C   C48       1.0  0.00570  0.71190  0.57750  1.0000
  H   H45       1.0  0.45150  0.81220  0.07700  1.0000
  H   H46       1.0  0.04850  0.31220  0.42300  1.0000
  H   H47       1.0  0.54850  0.18780  0.92300  1.0000
  H   H48       1.0  0.95150  0.68780  0.57700  1.0000
  C   C49       1.0  0.52480  0.76060  0.01600  1.0000
  C   C50       1.0  0.97520  0.26060  0.48400  1.0000
  C   C51       1.0  0.47520  0.23940  0.98400  1.0000
  C   C52       1.0  0.02480  0.73940  0.51600  1.0000
  C   C53       1.0  0.60570  0.72440  0.02040  1.0000
  C   C54       1.0  0.89430  0.22440  0.47960  1.0000
  C   C55       1.0  0.39430  0.27560  0.97960  1.0000
  C   C56       1.0  0.10570  0.77560  0.52040  1.0000
  H   H49       1.0  0.62050  0.70460  0.98060  1.0000
  H   H50       1.0  0.87950  0.20460  0.51940  1.0000
  H   H51       1.0  0.37950  0.29540  0.01940  1.0000
  H   H52       1.0  0.12050  0.79540  0.48060  1.0000
  C   C57       1.0  0.66480  0.71770  0.08480  1.0000
  C   C58       1.0  0.83520  0.21770  0.41520  1.0000
  C   C59       1.0  0.33520  0.28230  0.91520  1.0000
  C   C60       1.0  0.16480  0.78230  0.58480  1.0000
  H   H53       1.0  0.71890  0.69330  0.08700  1.0000
  H   H54       1.0  0.78110  0.19330  0.41300  1.0000
  H   H55       1.0  0.28110  0.30670  0.91300  1.0000
  H   H56       1.0  0.21890  0.80670  0.58700  1.0000
  C   C61       1.0  0.30240  0.77700  0.88290  1.0000
  C   C62       1.0  0.19760  0.27700  0.61710  1.0000
  C   C63       1.0  0.69760  0.22300  0.11710  1.0000
  C   C64       1.0  0.80240  0.72300  0.38290  1.0000
  H   H57       1.0  0.23640  0.78240  0.88300  1.0000
  H   H58       1.0  0.26360  0.28240  0.61700  1.0000
  H   H59       1.0  0.76360  0.21760  0.11700  1.0000
  H   H60       1.0  0.73640  0.71760  0.38300  1.0000
  C   C65       1.0  0.36150  0.77640  0.94650  1.0000
  C   C66       1.0  0.13850  0.27640  0.55350  1.0000
  C   C67       1.0  0.63850  0.22360  0.05350  1.0000
  C   C68       1.0  0.86150  0.72360  0.44650  1.0000
  H   H61       1.0  0.33530  0.78210  0.98820  1.0000
  H   H62       1.0  0.16470  0.28210  0.51180  1.0000
  H   H63       1.0  0.66470  0.21790  0.01180  1.0000
  H   H64       1.0  0.83530  0.71790  0.48820  1.0000
  C   C69       1.0  0.45950  0.76710  0.94850  1.0000
  C   C70       1.0  0.04050  0.26710  0.55150  1.0000
  C   C71       1.0  0.54050  0.23290  0.05150  1.0000
  C   C72       1.0  0.95950  0.73290  0.44850  1.0000
  C   C73       1.0  0.49370  0.76060  0.88460  1.0000
  C   C74       1.0  0.00630  0.26060  0.61540  1.0000
  C   C75       1.0  0.50630  0.23940  0.11540  1.0000
  C   C76       1.0  0.99370  0.73940  0.38460  1.0000
  H   H65       1.0  0.55950  0.75530  0.88350  1.0000
  H   H66       1.0  0.94050  0.25530  0.61650  1.0000
  H   H67       1.0  0.44050  0.24470  0.11650  1.0000
  H   H68       1.0  0.05950  0.74470  0.38350  1.0000
  C   C77       1.0  0.43060  0.76210  0.82230  1.0000
  C   C78       1.0  0.06940  0.26210  0.67770  1.0000
  C   C79       1.0  0.56940  0.23790  0.17770  1.0000
  C   C80       1.0  0.93060  0.73790  0.32230  1.0000
  H   H69       1.0  0.45520  0.75720  0.77990  1.0000
  H   H70       1.0  0.04480  0.25720  0.72010  1.0000
  H   H71       1.0  0.54480  0.24280  0.22010  1.0000
  H   H72       1.0  0.95520  0.74280  0.27990  1.0000
  C   C81       1.0  0.64900  0.53980  0.41620  1.0000
  C   C82       1.0  0.85100  0.03980  0.08380  1.0000
  C   C83       1.0  0.35100  0.46020  0.58380  1.0000
  C   C84       1.0  0.14900  0.96020  0.91620  1.0000
  H   H73       1.0  0.60770  0.57210  0.40680  1.0000
  H   H74       1.0  0.89230  0.07210  0.09320  1.0000
  H   H75       1.0  0.39230  0.42790  0.59320  1.0000
  H   H76       1.0  0.10770  0.92790  0.90680  1.0000
  C   C85       1.0  0.74210  0.54460  0.40180  1.0000
  C   C86       1.0  0.75790  0.04460  0.09820  1.0000
  C   C87       1.0  0.25790  0.45540  0.59820  1.0000
  C   C88       1.0  0.24210  0.95540  0.90180  1.0000
  H   H77       1.0  0.76320  0.58000  0.38390  1.0000
  H   H78       1.0  0.73680  0.08000  0.11610  1.0000
  H   H79       1.0  0.23680  0.42000  0.61610  1.0000
  H   H80       1.0  0.26320  0.92000  0.88390  1.0000
  C   C89       1.0  0.80540  0.49680  0.41390  1.0000
  C   C90       1.0  0.69460  0.99680  0.08610  1.0000
  C   C91       1.0  0.19460  0.50320  0.58610  1.0000
  C   C92       1.0  0.30540  0.00320  0.91390  1.0000
  C   C93       1.0  0.76780  0.44360  0.43650  1.0000
  C   C94       1.0  0.73220  0.94360  0.06350  1.0000
  C   C95       1.0  0.23220  0.55640  0.56350  1.0000
  C   C96       1.0  0.26780  0.05640  0.93650  1.0000
  H   H81       1.0  0.80580  0.40950  0.44230  1.0000
  H   H82       1.0  0.69420  0.90950  0.05770  1.0000
  H   H83       1.0  0.19420  0.59050  0.55770  1.0000
  H   H84       1.0  0.30580  0.09050  0.94230  1.0000
  C   C97       1.0  0.67310  0.44260  0.45000  1.0000
  C   C98       1.0  0.82690  0.94260  0.05000  1.0000
  C   C99       1.0  0.32690  0.55740  0.55000  1.0000
  C   C100      1.0  0.17310  0.05740  0.95000  1.0000
  H   H85       1.0  0.64850  0.40690  0.46440  1.0000
  H   H86       1.0  0.85150  0.90690  0.03560  1.0000
  H   H87       1.0  0.35150  0.59310  0.53560  1.0000
  H   H88       1.0  0.14850  0.09310  0.96440  1.0000
  C   C101      1.0  0.05690  0.46170  0.37680  1.0000
  C   C102      1.0  0.44310  0.96170  0.12320  1.0000
  C   C103      1.0  0.94310  0.53830  0.62320  1.0000
  C   C104      1.0  0.55690  0.03830  0.87680  1.0000
  H   H89       1.0  0.09030  0.42890  0.36290  1.0000
  H   H90       1.0  0.40970  0.92890  0.13710  1.0000
  H   H91       1.0  0.90970  0.57110  0.63710  1.0000
  H   H92       1.0  0.59030  0.07110  0.86290  1.0000
  C   C105      1.0  0.96080  0.45420  0.38310  1.0000
  C   C106      1.0  0.53920  0.95420  0.11690  1.0000
  C   C107      1.0  0.03920  0.54580  0.61690  1.0000
  C   C108      1.0  0.46080  0.04580  0.88310  1.0000
  H   H93       1.0  0.93100  0.41760  0.37300  1.0000
  H   H94       1.0  0.56900  0.91760  0.12700  1.0000
  H   H95       1.0  0.06900  0.58240  0.62700  1.0000
  H   H96       1.0  0.43100  0.08240  0.87300  1.0000
  C   C109      1.0  0.90870  0.50160  0.40480  1.0000
  C   C110      1.0  0.59130  0.00160  0.09520  1.0000
  C   C111      1.0  0.09130  0.49840  0.59520  1.0000
  C   C112      1.0  0.40870  0.99840  0.90480  1.0000
  C   C113      1.0  0.95670  0.55520  0.41630  1.0000
  C   C114      1.0  0.54330  0.05520  0.08370  1.0000
  C   C115      1.0  0.04330  0.44480  0.58370  1.0000
  C   C116      1.0  0.45670  0.94480  0.91630  1.0000
  H   H97       1.0  0.92440  0.58880  0.42910  1.0000
  H   H98       1.0  0.57560  0.08880  0.07090  1.0000
  H   H99       1.0  0.07560  0.41120  0.57090  1.0000
  H   H100      1.0  0.42440  0.91120  0.92910  1.0000
  C   C117      1.0  0.05380  0.55810  0.40850  1.0000
  C   C118      1.0  0.44620  0.05810  0.09150  1.0000
  C   C119      1.0  0.94620  0.44190  0.59150  1.0000
  C   C120      1.0  0.55380  0.94190  0.90850  1.0000
  H   H101      1.0  0.08480  0.59450  0.41760  1.0000
  H   H102      1.0  0.41520  0.09450  0.08240  1.0000
  H   H103      1.0  0.91520  0.40550  0.58240  1.0000
  H   H104      1.0  0.58480  0.90550  0.91760  1.0000
  C   C121      1.0  0.62780  0.53670  0.63380  1.0000
  C   C122      1.0  0.87220  0.03670  0.86620  1.0000
  C   C123      1.0  0.37220  0.46330  0.36620  1.0000
  C   C124      1.0  0.12780  0.96330  0.13380  1.0000
  H   H105      1.0  0.60590  0.57500  0.62230  1.0000
  H   H106      1.0  0.89410  0.07500  0.87770  1.0000
  H   H107      1.0  0.39410  0.42500  0.37770  1.0000
  H   H108      1.0  0.10590  0.92500  0.12230  1.0000
  C   C125      1.0  0.69160  0.52860  0.69420  1.0000
  C   C126      1.0  0.80840  0.02860  0.80580  1.0000
  C   C127      1.0  0.30840  0.47140  0.30580  1.0000
  C   C128      1.0  0.19160  0.97140  0.19420  1.0000
  H   H109      1.0  0.71300  0.56100  0.72220  1.0000
  H   H110      1.0  0.78700  0.06100  0.77780  1.0000
  H   H111      1.0  0.28700  0.43900  0.27780  1.0000
  H   H112      1.0  0.21300  0.93900  0.22220  1.0000
  C   C129      1.0  0.72340  0.47210  0.71280  1.0000
  C   C130      1.0  0.77660  0.97210  0.78720  1.0000
  C   C131      1.0  0.27660  0.52790  0.28720  1.0000
  C   C132      1.0  0.22340  0.02790  0.21280  1.0000
  C   C133      1.0  0.69170  0.42570  0.66820  1.0000
  C   C134      1.0  0.80830  0.92570  0.83180  1.0000
  C   C135      1.0  0.30830  0.57430  0.33180  1.0000
  C   C136      1.0  0.19170  0.07430  0.16820  1.0000
  H   H113      1.0  0.71270  0.38700  0.67860  1.0000
  H   H114      1.0  0.78730  0.88700  0.82140  1.0000
  H   H115      1.0  0.28730  0.61300  0.32140  1.0000
  H   H116      1.0  0.21270  0.11300  0.17860  1.0000
  C   C137      1.0  0.62880  0.43770  0.60840  1.0000
  C   C138      1.0  0.87120  0.93770  0.89160  1.0000
  C   C139      1.0  0.37120  0.56230  0.39160  1.0000
  C   C140      1.0  0.12880  0.06230  0.10840  1.0000
  H   H117      1.0  0.60840  0.40610  0.57870  1.0000
  H   H118      1.0  0.89160  0.90610  0.92130  1.0000
  H   H119      1.0  0.39160  0.59390  0.42130  1.0000
  H   H120      1.0  0.10840  0.09390  0.07870  1.0000
  C   C141      1.0  0.92390  0.47760  0.86620  1.0000
  C   C142      1.0  0.57610  0.97760  0.63380  1.0000
  C   C143      1.0  0.07610  0.52240  0.13380  1.0000
  C   C144      1.0  0.42390  0.02240  0.36620  1.0000
  H   H121      1.0  0.97660  0.50120  0.88340  1.0000
  H   H122      1.0  0.52340  0.00120  0.61660  1.0000
  H   H123      1.0  0.02340  0.49880  0.11660  1.0000
  H   H124      1.0  0.47660  0.99880  0.38340  1.0000
  C   C145      1.0  0.86880  0.49230  0.80470  1.0000
  C   C146      1.0  0.63120  0.99230  0.69530  1.0000
  C   C147      1.0  0.13120  0.50770  0.19530  1.0000
  C   C148      1.0  0.36880  0.00770  0.30470  1.0000
  H   H125      1.0  0.88500  0.52520  0.77920  1.0000
  H   H126      1.0  0.61500  0.02520  0.72080  1.0000
  H   H127      1.0  0.11500  0.47480  0.22080  1.0000
  H   H128      1.0  0.38500  0.97480  0.27920  1.0000
  C   C149      1.0  0.78830  0.45810  0.77950  1.0000
  C   C150      1.0  0.71170  0.95810  0.72050  1.0000
  C   C151      1.0  0.21170  0.54190  0.22050  1.0000
  C   C152      1.0  0.28830  0.04190  0.27950  1.0000
  C   C153      1.0  0.76740  0.40860  0.81800  1.0000
  C   C154      1.0  0.73260  0.90860  0.68200  1.0000
  C   C155      1.0  0.23260  0.59140  0.18200  1.0000
  C   C156      1.0  0.26740  0.09140  0.31800  1.0000
  H   H129      1.0  0.71390  0.38500  0.80290  1.0000
  H   H130      1.0  0.78610  0.88500  0.69710  1.0000
  H   H131      1.0  0.28610  0.61500  0.19710  1.0000
  H   H132      1.0  0.21390  0.11500  0.30290  1.0000
  C   C157      1.0  0.82720  0.39540  0.87850  1.0000
  C   C158      1.0  0.67280  0.89540  0.62150  1.0000
  C   C159      1.0  0.17280  0.60460  0.12150  1.0000
  C   C160      1.0  0.32720  0.10460  0.37850  1.0000
  H   H133      1.0  0.81510  0.36160  0.90400  1.0000
  H   H134      1.0  0.68490  0.86160  0.59600  1.0000
  H   H135      1.0  0.18490  0.63840  0.09600  1.0000
  H   H136      1.0  0.31510  0.13840  0.40400  1.0000
