data_image0
_chemical_formula_structural       Mo20Cu4P8O92H8N16C8H8C8H8C16H8C8H8C8H8C8H8C16H8C8H8
_chemical_formula_sum              "Mo20 Cu4 P8 O92 H72 N16 C80"
_cell_length_a       17.667
_cell_length_b       13.669
_cell_length_c       25.067
_cell_angle_alpha    90
_cell_angle_beta     107.479
_cell_angle_gamma    90

_space_group_name_H-M_alt    "P 1"
_space_group_IT_number       1

loop_
  _space_group_symop_operation_xyz
  'x, y, z'

loop_
  _atom_site_type_symbol
  _atom_site_label
  _atom_site_symmetry_multiplicity
  _atom_site_fract_x
  _atom_site_fract_y
  _atom_site_fract_z
  _atom_site_occupancy
  Mo  Mo1       1.0  0.08136  0.49569  0.17231  1.0000
  Mo  Mo2       1.0  0.58136  0.99569  0.17231  1.0000
  Mo  Mo3       1.0  0.91864  0.49569  0.32769  1.0000
  Mo  Mo4       1.0  0.41864  0.99569  0.32769  1.0000
  Mo  Mo5       1.0  0.91864  0.50431  0.82769  1.0000
  Mo  Mo6       1.0  0.41864  0.00431  0.82769  1.0000
  Mo  Mo7       1.0  0.08136  0.50431  0.67231  1.0000
  Mo  Mo8       1.0  0.58136  0.00431  0.67231  1.0000
  Mo  Mo9       1.0  0.00000  0.35247  0.25000  1.0000
  Mo  Mo10      1.0  0.50000  0.85247  0.25000  1.0000
  Mo  Mo11      1.0  0.00000  0.64753  0.75000  1.0000
  Mo  Mo12      1.0  0.50000  0.14753  0.75000  1.0000
  Mo  Mo13      1.0  0.92940  0.73312  0.29104  1.0000
  Mo  Mo14      1.0  0.42940  0.23312  0.29104  1.0000
  Mo  Mo15      1.0  0.07060  0.73312  0.20896  1.0000
  Mo  Mo16      1.0  0.57060  0.23312  0.20896  1.0000
  Mo  Mo17      1.0  0.07060  0.26688  0.70896  1.0000
  Mo  Mo18      1.0  0.57060  0.76688  0.70896  1.0000
  Mo  Mo19      1.0  0.92940  0.26688  0.79104  1.0000
  Mo  Mo20      1.0  0.42940  0.76688  0.79104  1.0000
  Cu  Cu1       1.0  0.00000  0.50000  0.00000  1.0000
  Cu  Cu2       1.0  0.50000  0.00000  0.00000  1.0000
  Cu  Cu3       1.0  0.00000  0.50000  0.50000  1.0000
  Cu  Cu4       1.0  0.50000  0.00000  0.50000  1.0000
  P   P1        1.0  0.09439  0.56880  0.30899  1.0000
  P   P2        1.0  0.59439  0.06880  0.30899  1.0000
  P   P3        1.0  0.90561  0.56880  0.19101  1.0000
  P   P4        1.0  0.40561  0.06880  0.19101  1.0000
  P   P5        1.0  0.90561  0.43120  0.69101  1.0000
  P   P6        1.0  0.40561  0.93120  0.69101  1.0000
  P   P7        1.0  0.09439  0.43120  0.80899  1.0000
  P   P8        1.0  0.59439  0.93120  0.80899  1.0000
  O   O1        1.0  0.08980  0.48550  0.26720  1.0000
  O   O2        1.0  0.58980  0.98550  0.26720  1.0000
  O   O3        1.0  0.91020  0.48550  0.23280  1.0000
  O   O4        1.0  0.41020  0.98550  0.23280  1.0000
  O   O5        1.0  0.91020  0.51450  0.73280  1.0000
  O   O6        1.0  0.41020  0.01450  0.73280  1.0000
  O   O7        1.0  0.08980  0.51450  0.76720  1.0000
  O   O8        1.0  0.58980  0.01450  0.76720  1.0000
  O   O9        1.0  0.01100  0.39400  0.18020  1.0000
  O   O10       1.0  0.51100  0.89400  0.18020  1.0000
  O   O11       1.0  0.98900  0.39400  0.31980  1.0000
  O   O12       1.0  0.48900  0.89400  0.31980  1.0000
  O   O13       1.0  0.98900  0.60600  0.81980  1.0000
  O   O14       1.0  0.48900  0.10600  0.81980  1.0000
  O   O15       1.0  0.01100  0.60600  0.68020  1.0000
  O   O16       1.0  0.51100  0.10600  0.68020  1.0000
  O   O17       1.0  0.01170  0.59350  0.31390  1.0000
  O   O18       1.0  0.51170  0.09350  0.31390  1.0000
  O   O19       1.0  0.98830  0.59350  0.18610  1.0000
  O   O20       1.0  0.48830  0.09350  0.18610  1.0000
  O   O21       1.0  0.98830  0.40650  0.68610  1.0000
  O   O22       1.0  0.48830  0.90650  0.68610  1.0000
  O   O23       1.0  0.01170  0.40650  0.81390  1.0000
  O   O24       1.0  0.51170  0.90650  0.81390  1.0000
  O   O25       1.0  0.12810  0.62560  0.18860  1.0000
  O   O26       1.0  0.62810  0.12560  0.18860  1.0000
  O   O27       1.0  0.87190  0.62560  0.31140  1.0000
  O   O28       1.0  0.37190  0.12560  0.31140  1.0000
  O   O29       1.0  0.87190  0.37440  0.81140  1.0000
  O   O30       1.0  0.37190  0.87440  0.81140  1.0000
  O   O31       1.0  0.12810  0.37440  0.68860  1.0000
  O   O32       1.0  0.62810  0.87440  0.68860  1.0000
  O   O33       1.0  0.04590  0.50410  0.10030  1.0000
  O   O34       1.0  0.54590  0.00410  0.10030  1.0000
  O   O35       1.0  0.95410  0.50410  0.39970  1.0000
  O   O36       1.0  0.45410  0.00410  0.39970  1.0000
  O   O37       1.0  0.95410  0.49590  0.89970  1.0000
  O   O38       1.0  0.45410  0.99590  0.89970  1.0000
  O   O39       1.0  0.04590  0.49590  0.60030  1.0000
  O   O40       1.0  0.54590  0.99590  0.60030  1.0000
  O   O41       1.0  0.16840  0.43370  0.18420  1.0000
  O   O42       1.0  0.66840  0.93370  0.18420  1.0000
  O   O43       1.0  0.83160  0.43370  0.31580  1.0000
  O   O44       1.0  0.33160  0.93370  0.31580  1.0000
  O   O45       1.0  0.83160  0.56630  0.81580  1.0000
  O   O46       1.0  0.33160  0.06630  0.81580  1.0000
  O   O47       1.0  0.16840  0.56630  0.68420  1.0000
  O   O48       1.0  0.66840  0.06630  0.68420  1.0000
  O   O49       1.0  0.07890  0.27510  0.27350  1.0000
  O   O50       1.0  0.57890  0.77510  0.27350  1.0000
  O   O51       1.0  0.92110  0.27510  0.22650  1.0000
  O   O52       1.0  0.42110  0.77510  0.22650  1.0000
  O   O53       1.0  0.92110  0.72490  0.72650  1.0000
  O   O54       1.0  0.42110  0.22490  0.72650  1.0000
  O   O55       1.0  0.07890  0.72490  0.77350  1.0000
  O   O56       1.0  0.57890  0.22490  0.77350  1.0000
  O   O57       1.0  0.13030  0.65920  0.29240  1.0000
  O   O58       1.0  0.63030  0.15920  0.29240  1.0000
  O   O59       1.0  0.86970  0.65920  0.20760  1.0000
  O   O60       1.0  0.36970  0.15920  0.20760  1.0000
  O   O61       1.0  0.86970  0.34080  0.70760  1.0000
  O   O62       1.0  0.36970  0.84080  0.70760  1.0000
  O   O63       1.0  0.13030  0.34080  0.79240  1.0000
  O   O64       1.0  0.63030  0.84080  0.79240  1.0000
  O   O65       1.0  0.00000  0.77140  0.25000  1.0000
  O   O66       1.0  0.50000  0.27140  0.25000  1.0000
  O   O67       1.0  0.00000  0.22860  0.75000  1.0000
  O   O68       1.0  0.50000  0.72860  0.75000  1.0000
  O   O69       1.0  0.98080  0.77800  0.35510  1.0000
  O   O70       1.0  0.48080  0.27800  0.35510  1.0000
  O   O71       1.0  0.01920  0.77800  0.14490  1.0000
  O   O72       1.0  0.51920  0.27800  0.14490  1.0000
  O   O73       1.0  0.01920  0.22200  0.64490  1.0000
  O   O74       1.0  0.51920  0.72200  0.64490  1.0000
  O   O75       1.0  0.98080  0.22200  0.85510  1.0000
  O   O76       1.0  0.48080  0.72200  0.85510  1.0000
  O   O77       1.0  0.85430  0.81580  0.27030  1.0000
  O   O78       1.0  0.35430  0.31580  0.27030  1.0000
  O   O79       1.0  0.14570  0.81580  0.22970  1.0000
  O   O80       1.0  0.64570  0.31580  0.22970  1.0000
  O   O81       1.0  0.14570  0.18420  0.72970  1.0000
  O   O82       1.0  0.64570  0.68420  0.72970  1.0000
  O   O83       1.0  0.85430  0.18420  0.77030  1.0000
  O   O84       1.0  0.35430  0.68420  0.77030  1.0000
  O   O85       1.0  0.14300  0.53470  0.36880  1.0000
  O   O86       1.0  0.64300  0.03470  0.36880  1.0000
  O   O87       1.0  0.85700  0.53470  0.13120  1.0000
  O   O88       1.0  0.35700  0.03470  0.13120  1.0000
  O   O89       1.0  0.85700  0.46530  0.63120  1.0000
  O   O90       1.0  0.35700  0.96530  0.63120  1.0000
  O   O91       1.0  0.14300  0.46530  0.86880  1.0000
  O   O92       1.0  0.64300  0.96530  0.86880  1.0000
  H   H1        1.0  0.18880  0.52260  0.36950  1.0000
  H   H2        1.0  0.68880  0.02260  0.36950  1.0000
  H   H3        1.0  0.81120  0.52260  0.13050  1.0000
  H   H4        1.0  0.31120  0.02260  0.13050  1.0000
  H   H5        1.0  0.81120  0.47740  0.63050  1.0000
  H   H6        1.0  0.31120  0.97740  0.63050  1.0000
  H   H7        1.0  0.18880  0.47740  0.86950  1.0000
  H   H8        1.0  0.68880  0.97740  0.86950  1.0000
  N   N1        1.0  0.08220  0.60600  0.99910  1.0000
  N   N2        1.0  0.58220  0.10600  0.99910  1.0000
  N   N3        1.0  0.91780  0.60600  0.50090  1.0000
  N   N4        1.0  0.41780  0.10600  0.50090  1.0000
  N   N5        1.0  0.91780  0.39400  0.00090  1.0000
  N   N6        1.0  0.41780  0.89400  0.00090  1.0000
  N   N7        1.0  0.08220  0.39400  0.49910  1.0000
  N   N8        1.0  0.58220  0.89400  0.49910  1.0000
  N   N9        1.0  0.08680  0.39960  0.00280  1.0000
  N   N10       1.0  0.58680  0.89960  0.00280  1.0000
  N   N11       1.0  0.91320  0.39960  0.49720  1.0000
  N   N12       1.0  0.41320  0.89960  0.49720  1.0000
  N   N13       1.0  0.91320  0.60040  0.99720  1.0000
  N   N14       1.0  0.41320  0.10040  0.99720  1.0000
  N   N15       1.0  0.08680  0.60040  0.50280  1.0000
  N   N16       1.0  0.58680  0.10040  0.50280  1.0000
  C   C1        1.0  0.10520  0.61790  0.95370  1.0000
  C   C2        1.0  0.60520  0.11790  0.95370  1.0000
  C   C3        1.0  0.89480  0.61790  0.54630  1.0000
  C   C4        1.0  0.39480  0.11790  0.54630  1.0000
  C   C5        1.0  0.89480  0.38210  0.04630  1.0000
  C   C6        1.0  0.39480  0.88210  0.04630  1.0000
  C   C7        1.0  0.10520  0.38210  0.45370  1.0000
  C   C8        1.0  0.60520  0.88210  0.45370  1.0000
  H   H9        1.0  0.07620  0.58690  0.92090  1.0000
  H   H10       1.0  0.57620  0.08690  0.92090  1.0000
  H   H11       1.0  0.92380  0.58690  0.57910  1.0000
  H   H12       1.0  0.42380  0.08690  0.57910  1.0000
  H   H13       1.0  0.92380  0.41310  0.07910  1.0000
  H   H14       1.0  0.42380  0.91310  0.07910  1.0000
  H   H15       1.0  0.07620  0.41310  0.42090  1.0000
  H   H16       1.0  0.57620  0.91310  0.42090  1.0000
  C   C9        1.0  0.16810  0.67250  0.95260  1.0000
  C   C10       1.0  0.66810  0.17250  0.95260  1.0000
  C   C11       1.0  0.83190  0.67250  0.54740  1.0000
  C   C12       1.0  0.33190  0.17250  0.54740  1.0000
  C   C13       1.0  0.83190  0.32750  0.04740  1.0000
  C   C14       1.0  0.33190  0.82750  0.04740  1.0000
  C   C15       1.0  0.16810  0.32750  0.45260  1.0000
  C   C16       1.0  0.66810  0.82750  0.45260  1.0000
  H   H17       1.0  0.18050  0.67780  0.91920  1.0000
  H   H18       1.0  0.68050  0.17780  0.91920  1.0000
  H   H19       1.0  0.81950  0.67780  0.58080  1.0000
  H   H20       1.0  0.31950  0.17780  0.58080  1.0000
  H   H21       1.0  0.81950  0.32220  0.08080  1.0000
  H   H22       1.0  0.31950  0.82220  0.08080  1.0000
  H   H23       1.0  0.18050  0.32220  0.41920  1.0000
  H   H24       1.0  0.68050  0.82220  0.41920  1.0000
  C   C17       1.0  0.21520  0.72120  0.99940  1.0000
  C   C18       1.0  0.71520  0.22120  0.99940  1.0000
  C   C19       1.0  0.78480  0.72120  0.50060  1.0000
  C   C20       1.0  0.28480  0.22120  0.50060  1.0000
  C   C21       1.0  0.78480  0.27880  0.00060  1.0000
  C   C22       1.0  0.28480  0.77880  0.00060  1.0000
  C   C23       1.0  0.21520  0.27880  0.49940  1.0000
  C   C24       1.0  0.71520  0.77880  0.49940  1.0000
  C   C25       1.0  0.18890  0.70970  0.04630  1.0000
  C   C26       1.0  0.68890  0.20970  0.04630  1.0000
  C   C27       1.0  0.81110  0.70970  0.45370  1.0000
  C   C28       1.0  0.31110  0.20970  0.45370  1.0000
  C   C29       1.0  0.81110  0.29030  0.95370  1.0000
  C   C30       1.0  0.31110  0.79030  0.95370  1.0000
  C   C31       1.0  0.18890  0.29030  0.54630  1.0000
  C   C32       1.0  0.68890  0.79030  0.54630  1.0000
  H   H25       1.0  0.21650  0.74050  0.07950  1.0000
  H   H26       1.0  0.71650  0.24050  0.07950  1.0000
  H   H27       1.0  0.78350  0.74050  0.42050  1.0000
  H   H28       1.0  0.28350  0.24050  0.42050  1.0000
  H   H29       1.0  0.78350  0.25950  0.92050  1.0000
  H   H30       1.0  0.28350  0.75950  0.92050  1.0000
  H   H31       1.0  0.21650  0.25950  0.57950  1.0000
  H   H32       1.0  0.71650  0.75950  0.57950  1.0000
  C   C33       1.0  0.12440  0.65510  0.04470  1.0000
  C   C34       1.0  0.62440  0.15510  0.04470  1.0000
  C   C35       1.0  0.87560  0.65510  0.45530  1.0000
  C   C36       1.0  0.37560  0.15510  0.45530  1.0000
  C   C37       1.0  0.87560  0.34490  0.95530  1.0000
  C   C38       1.0  0.37560  0.84490  0.95530  1.0000
  C   C39       1.0  0.12440  0.34490  0.54470  1.0000
  C   C40       1.0  0.62440  0.84490  0.54470  1.0000
  H   H33       1.0  0.10860  0.65140  0.07690  1.0000
  H   H34       1.0  0.60860  0.15140  0.07690  1.0000
  H   H35       1.0  0.89140  0.65140  0.42310  1.0000
  H   H36       1.0  0.39140  0.15140  0.42310  1.0000
  H   H37       1.0  0.89140  0.34860  0.92310  1.0000
  H   H38       1.0  0.39140  0.84860  0.92310  1.0000
  H   H39       1.0  0.10860  0.34860  0.57690  1.0000
  H   H40       1.0  0.60860  0.84860  0.57690  1.0000
  C   C41       1.0  0.08530  0.34480  0.95840  1.0000
  C   C42       1.0  0.58530  0.84480  0.95840  1.0000
  C   C43       1.0  0.91470  0.34480  0.54160  1.0000
  C   C44       1.0  0.41470  0.84480  0.54160  1.0000
  C   C45       1.0  0.91470  0.65520  0.04160  1.0000
  C   C46       1.0  0.41470  0.15520  0.04160  1.0000
  C   C47       1.0  0.08530  0.65520  0.45840  1.0000
  C   C48       1.0  0.58530  0.15520  0.45840  1.0000
  H   H41       1.0  0.04070  0.34790  0.92720  1.0000
  H   H42       1.0  0.54070  0.84790  0.92720  1.0000
  H   H43       1.0  0.95930  0.34790  0.57280  1.0000
  H   H44       1.0  0.45930  0.84790  0.57280  1.0000
  H   H45       1.0  0.95930  0.65210  0.07280  1.0000
  H   H46       1.0  0.45930  0.15210  0.07280  1.0000
  H   H47       1.0  0.04070  0.65210  0.42720  1.0000
  H   H48       1.0  0.54070  0.15210  0.42720  1.0000
  C   C49       1.0  0.14620  0.28430  0.95700  1.0000
  C   C50       1.0  0.64620  0.78430  0.95700  1.0000
  C   C51       1.0  0.85380  0.28430  0.54300  1.0000
  C   C52       1.0  0.35380  0.78430  0.54300  1.0000
  C   C53       1.0  0.85380  0.71570  0.04300  1.0000
  C   C54       1.0  0.35380  0.21570  0.04300  1.0000
  C   C55       1.0  0.14620  0.71570  0.45700  1.0000
  C   C56       1.0  0.64620  0.21570  0.45700  1.0000
  H   H49       1.0  0.14040  0.24520  0.92560  1.0000
  H   H50       1.0  0.64040  0.74520  0.92560  1.0000
  H   H51       1.0  0.85960  0.24520  0.57440  1.0000
  H   H52       1.0  0.35960  0.74520  0.57440  1.0000
  H   H53       1.0  0.85960  0.75480  0.07440  1.0000
  H   H54       1.0  0.35960  0.25480  0.07440  1.0000
  H   H55       1.0  0.14040  0.75480  0.42560  1.0000
  H   H56       1.0  0.64040  0.25480  0.42560  1.0000
  C   C57       1.0  0.21580  0.27920  0.00010  1.0000
  C   C58       1.0  0.71580  0.77920  0.00010  1.0000
  C   C59       1.0  0.78420  0.27920  0.49990  1.0000
  C   C60       1.0  0.28420  0.77920  0.49990  1.0000
  C   C61       1.0  0.78420  0.72080  0.99990  1.0000
  C   C62       1.0  0.28420  0.22080  0.99990  1.0000
  C   C63       1.0  0.21580  0.72080  0.50010  1.0000
  C   C64       1.0  0.71580  0.22080  0.50010  1.0000
  C   C65       1.0  0.21650  0.33570  0.04690  1.0000
  C   C66       1.0  0.71650  0.83570  0.04690  1.0000
  C   C67       1.0  0.78350  0.33570  0.45310  1.0000
  C   C68       1.0  0.28350  0.83570  0.45310  1.0000
  C   C69       1.0  0.78350  0.66430  0.95310  1.0000
  C   C70       1.0  0.28350  0.16430  0.95310  1.0000
  C   C71       1.0  0.21650  0.66430  0.54690  1.0000
  C   C72       1.0  0.71650  0.16430  0.54690  1.0000
  H   H57       1.0  0.26040  0.33330  0.07860  1.0000
  H   H58       1.0  0.76040  0.83330  0.07860  1.0000
  H   H59       1.0  0.73960  0.33330  0.42140  1.0000
  H   H60       1.0  0.23960  0.83330  0.42140  1.0000
  H   H61       1.0  0.73960  0.66670  0.92140  1.0000
  H   H62       1.0  0.23960  0.16670  0.92140  1.0000
  H   H63       1.0  0.26040  0.66670  0.57860  1.0000
  H   H64       1.0  0.76040  0.16670  0.57860  1.0000
  C   C73       1.0  0.15240  0.39550  0.04660  1.0000
  C   C74       1.0  0.65240  0.89550  0.04660  1.0000
  C   C75       1.0  0.84760  0.39550  0.45340  1.0000
  C   C76       1.0  0.34760  0.89550  0.45340  1.0000
  C   C77       1.0  0.84760  0.60450  0.95340  1.0000
  C   C78       1.0  0.34760  0.10450  0.95340  1.0000
  C   C79       1.0  0.15240  0.60450  0.54660  1.0000
  C   C80       1.0  0.65240  0.10450  0.54660  1.0000
  H   H65       1.0  0.15530  0.43370  0.07780  1.0000
  H   H66       1.0  0.65530  0.93370  0.07780  1.0000
  H   H67       1.0  0.84470  0.43370  0.42220  1.0000
  H   H68       1.0  0.34470  0.93370  0.42220  1.0000
  H   H69       1.0  0.84470  0.56630  0.92220  1.0000
  H   H70       1.0  0.34470  0.06630  0.92220  1.0000
  H   H71       1.0  0.15530  0.56630  0.57780  1.0000
  H   H72       1.0  0.65530  0.06630  0.57780  1.0000
