data_image0
_chemical_formula_structural       Mg2O16C8Mg2O16C8
_chemical_formula_sum              "Mg4 O32 C16"
_cell_length_a       9.412
_cell_length_b       16.744
_cell_length_c       9.791
_cell_angle_alpha    90
_cell_angle_beta     91.15
_cell_angle_gamma    90

_space_group_name_H-M_alt    "P 1"
_space_group_IT_number       1

loop_
  _space_group_symop_operation_xyz
  'x, y, z'

loop_
  _atom_site_type_symbol
  _atom_site_label
  _atom_site_symmetry_multiplicity
  _atom_site_fract_x
  _atom_site_fract_y
  _atom_site_fract_z
  _atom_site_occupancy
  Mg  Mg1       1.0  0.65026  0.95520  0.00311  1.0000
  Mg  Mg2       1.0  0.34974  0.45520  0.99689  1.0000
  O   O1        1.0  0.82840  0.94230  0.88380  1.0000
  O   O2        1.0  0.17160  0.44230  0.11620  1.0000
  O   O3        1.0  0.70440  0.05771  0.11100  1.0000
  O   O4        1.0  0.29560  0.55771  0.88900  1.0000
  O   O5        1.0  0.44040  0.96270  0.05650  1.0000
  O   O6        1.0  0.55960  0.46270  0.94350  1.0000
  O   O7        1.0  0.57850  0.84360  0.93850  1.0000
  O   O8        1.0  0.42150  0.34360  0.06150  1.0000
  O   O9        1.0  0.77780  0.09474  0.32090  1.0000
  O   O10       1.0  0.22220  0.59474  0.67910  1.0000
  O   O11       1.0  0.90710  0.97513  0.67660  1.0000
  O   O12       1.0  0.09290  0.47513  0.32340  1.0000
  O   O13       1.0  0.38840  0.76490  0.95780  1.0000
  O   O14       1.0  0.61160  0.26490  0.04220  1.0000
  O   O15       1.0  0.23650  0.89420  0.03620  1.0000
  O   O16       1.0  0.76350  0.39420  0.96380  1.0000
  C   C1        1.0  0.81740  0.97570  0.76860  1.0000
  C   C2        1.0  0.18260  0.47570  0.23140  1.0000
  C   C3        1.0  0.36750  0.90150  0.02610  1.0000
  C   C4        1.0  0.63250  0.40150  0.97390  1.0000
  C   C5        1.0  0.45180  0.82950  0.96990  1.0000
  C   C6        1.0  0.54820  0.32950  0.03010  1.0000
  C   C7        1.0  0.74410  0.04410  0.23170  1.0000
  C   C8        1.0  0.25590  0.54410  0.76830  1.0000
  Mg  Mg3       1.0  0.84703  0.04378  0.50525  1.0000
  Mg  Mg4       1.0  0.15297  0.54378  0.49475  1.0000
  O   O17       1.0  0.66870  0.05620  0.62430  1.0000
  O   O18       1.0  0.33130  0.55620  0.37570  1.0000
  O   O19       1.0  0.79180  0.94198  0.39730  1.0000
  O   O20       1.0  0.20820  0.44198  0.60270  1.0000
  O   O21       1.0  0.05680  0.03790  0.44790  1.0000
  O   O22       1.0  0.94320  0.53790  0.55210  1.0000
  O   O23       1.0  0.91890  0.15490  0.56990  1.0000
  O   O24       1.0  0.08110  0.65490  0.43010  1.0000
  O   O25       1.0  0.71860  0.90449  0.18660  1.0000
  O   O26       1.0  0.28140  0.40449  0.81340  1.0000
  O   O27       1.0  0.58850  0.02260  0.83100  1.0000
  O   O28       1.0  0.41150  0.52260  0.16900  1.0000
  O   O29       1.0  0.09660  0.23970  0.52680  1.0000
  O   O30       1.0  0.90340  0.73970  0.47320  1.0000
  O   O31       1.0  0.24350  0.11630  0.41800  1.0000
  O   O32       1.0  0.75650  0.61630  0.58200  1.0000
  C   C9        1.0  0.67830  0.02320  0.73690  1.0000
  C   C10       1.0  0.32170  0.52320  0.26310  1.0000
  C   C11       1.0  0.12260  0.10260  0.45900  1.0000
  C   C12       1.0  0.87740  0.60260  0.54100  1.0000
  C   C13       1.0  0.03880  0.17320  0.52540  1.0000
  C   C14       1.0  0.96120  0.67320  0.47460  1.0000
  C   C15       1.0  0.75290  0.95530  0.27540  1.0000
  C   C16       1.0  0.24710  0.45530  0.72460  1.0000
