data_image0
_chemical_formula_structural       Co4O24C16O8
_chemical_formula_sum              "Co4 O32 C16"
_cell_length_a       9.402
_cell_length_b       16.756
_cell_length_c       9.786
_cell_angle_alpha    90
_cell_angle_beta     91.66
_cell_angle_gamma    90

_space_group_name_H-M_alt    "P 1"
_space_group_IT_number       1

loop_
  _space_group_symop_operation_xyz
  'x, y, z'

loop_
  _atom_site_type_symbol
  _atom_site_label
  _atom_site_symmetry_multiplicity
  _atom_site_fract_x
  _atom_site_fract_y
  _atom_site_fract_z
  _atom_site_occupancy
  Co  Co1       1.0  0.09969  0.45425  0.25168  1.0000
  Co  Co2       1.0  0.40031  0.95425  0.24832  1.0000
  Co  Co3       1.0  0.90031  0.54575  0.74832  1.0000
  Co  Co4       1.0  0.59969  0.04575  0.75168  1.0000
  O   O1        1.0  0.92230  0.43980  0.37290  1.0000
  O   O2        1.0  0.57770  0.93980  0.12710  1.0000
  O   O3        1.0  0.07770  0.56020  0.62710  1.0000
  O   O4        1.0  0.42230  0.06020  0.87290  1.0000
  O   O5        1.0  0.04010  0.55725  0.14560  1.0000
  O   O6        1.0  0.45990  0.05725  0.35440  1.0000
  O   O7        1.0  0.95990  0.44275  0.85440  1.0000
  O   O8        1.0  0.54010  0.94275  0.64560  1.0000
  O   O9        1.0  0.31100  0.46138  0.19810  1.0000
  O   O10       1.0  0.18900  0.96138  0.30190  1.0000
  O   O11       1.0  0.68900  0.53862  0.80190  1.0000
  O   O12       1.0  0.81100  0.03862  0.69810  1.0000
  O   O13       1.0  0.17297  0.34157  0.31470  1.0000
  O   O14       1.0  0.32703  0.84157  0.18530  1.0000
  O   O15       1.0  0.82703  0.65843  0.68530  1.0000
  O   O16       1.0  0.67297  0.15843  0.81470  1.0000
  O   O17       1.0  0.96590  0.59573  0.93640  1.0000
  O   O18       1.0  0.53410  0.09573  0.56360  1.0000
  O   O19       1.0  0.03410  0.40427  0.06360  1.0000
  O   O20       1.0  0.46590  0.90427  0.43640  1.0000
  O   O21       1.0  0.84001  0.47672  0.57500  1.0000
  O   O22       1.0  0.65999  0.97672  0.92500  1.0000
  O   O23       1.0  0.15999  0.52328  0.42500  1.0000
  O   O24       1.0  0.34001  0.02328  0.07500  1.0000
  C   C1        1.0  0.93140  0.47541  0.48480  1.0000
  C   C2        1.0  0.56860  0.97541  0.01520  1.0000
  C   C3        1.0  0.06860  0.52459  0.51520  1.0000
  C   C4        1.0  0.43140  0.02459  0.98480  1.0000
  C   C5        1.0  0.37900  0.39760  0.21490  1.0000
  C   C6        1.0  0.12100  0.89760  0.28510  1.0000
  C   C7        1.0  0.62100  0.60240  0.78510  1.0000
  C   C8        1.0  0.87900  0.10240  0.71490  1.0000
  C   C9        1.0  0.29630  0.32631  0.27450  1.0000
  C   C10       1.0  0.20370  0.82631  0.22550  1.0000
  C   C11       1.0  0.70370  0.67369  0.72550  1.0000
  C   C12       1.0  0.79630  0.17369  0.77450  1.0000
  C   C13       1.0  0.00220  0.54384  0.02330  1.0000
  C   C14       1.0  0.49780  0.04384  0.47670  1.0000
  C   C15       1.0  0.99780  0.45616  0.97670  1.0000
  C   C16       1.0  0.50220  0.95616  0.52330  1.0000
  O   O25       1.0  0.35670  0.26053  0.27840  1.0000
  O   O26       1.0  0.14330  0.76053  0.22160  1.0000
  O   O27       1.0  0.64330  0.73947  0.72160  1.0000
  O   O28       1.0  0.85670  0.23947  0.77840  1.0000
  O   O29       1.0  0.50420  0.38634  0.18610  1.0000
  O   O30       1.0  0.99580  0.88634  0.31390  1.0000
  O   O31       1.0  0.49580  0.61366  0.81390  1.0000
  O   O32       1.0  0.00420  0.11366  0.68610  1.0000
