data_image0
_chemical_formula_structural       Co2O16C8Co2O16C8
_chemical_formula_sum              "Co4 O32 C16"
_cell_length_a       9.394
_cell_length_b       16.722
_cell_length_c       9.795
_cell_angle_alpha    90
_cell_angle_beta     91.63
_cell_angle_gamma    90

_space_group_name_H-M_alt    "P 1"
_space_group_IT_number       1

loop_
  _space_group_symop_operation_xyz
  'x, y, z'

loop_
  _atom_site_type_symbol
  _atom_site_label
  _atom_site_symmetry_multiplicity
  _atom_site_fract_x
  _atom_site_fract_y
  _atom_site_fract_z
  _atom_site_occupancy
  Co  Co1       1.0  0.34996  0.04609  0.99872  1.0000
  Co  Co2       1.0  0.65004  0.54609  0.00128  1.0000
  O   O1        1.0  0.17270  0.06130  0.12080  1.0000
  O   O2        1.0  0.82730  0.56130  0.87920  1.0000
  O   O3        1.0  0.29100  0.94290  0.89270  1.0000
  O   O4        1.0  0.70900  0.44290  0.10730  1.0000
  O   O5        1.0  0.56240  0.03720  0.94690  1.0000
  O   O6        1.0  0.43760  0.53720  0.05310  1.0000
  O   O7        1.0  0.42410  0.15940  0.06200  1.0000
  O   O8        1.0  0.57590  0.65940  0.93800  1.0000
  O   O9        1.0  0.21680  0.90410  0.68360  1.0000
  O   O10       1.0  0.78320  0.40410  0.31640  1.0000
  O   O11       1.0  0.09070  0.02440  0.32300  1.0000
  O   O12       1.0  0.90930  0.52440  0.67700  1.0000
  O   O13       1.0  0.61220  0.23830  0.03430  1.0000
  O   O14       1.0  0.38780  0.73830  0.96570  1.0000
  O   O15       1.0  0.76360  0.10900  0.95380  1.0000
  O   O16       1.0  0.23640  0.60900  0.04620  1.0000
  C   C1        1.0  0.18420  0.02630  0.23140  1.0000
  C   C2        1.0  0.81580  0.52630  0.76860  1.0000
  C   C3        1.0  0.63150  0.10190  0.96970  1.0000
  C   C4        1.0  0.36850  0.60190  0.03030  1.0000
  C   C5        1.0  0.55040  0.17240  0.02540  1.0000
  C   C6        1.0  0.44960  0.67240  0.97460  1.0000
  C   C7        1.0  0.25320  0.95720  0.77150  1.0000
  C   C8        1.0  0.74680  0.45720  0.22850  1.0000
  Co  Co3       1.0  0.15145  0.95493  0.49578  1.0000
  Co  Co4       1.0  0.84855  0.45493  0.50422  1.0000
  O   O17       1.0  0.32870  0.94040  0.37510  1.0000
  O   O18       1.0  0.67130  0.44040  0.62490  1.0000
  O   O19       1.0  0.21280  0.05810  0.60150  1.0000
  O   O20       1.0  0.78720  0.55810  0.39850  1.0000
  O   O21       1.0  0.94070  0.96110  0.55110  1.0000
  O   O22       1.0  0.05930  0.46110  0.44890  1.0000
  O   O23       1.0  0.07840  0.84270  0.43220  1.0000
  O   O24       1.0  0.92160  0.34270  0.56780  1.0000
  O   O25       1.0  0.28560  0.09620  0.81160  1.0000
  O   O26       1.0  0.71440  0.59620  0.18840  1.0000
  O   O27       1.0  0.41090  0.97670  0.17150  1.0000
  O   O28       1.0  0.58910  0.47670  0.82850  1.0000
  O   O29       1.0  0.89790  0.75910  0.47710  1.0000
  O   O30       1.0  0.10210  0.25910  0.52290  1.0000
  O   O31       1.0  0.75520  0.88370  0.58050  1.0000
  O   O32       1.0  0.24480  0.38370  0.41950  1.0000
  C   C9        1.0  0.32130  0.97690  0.26280  1.0000
  C   C10       1.0  0.67870  0.47690  0.73720  1.0000
  C   C11       1.0  0.87350  0.89800  0.53850  1.0000
  C   C12       1.0  0.12650  0.39800  0.46150  1.0000
  C   C13       1.0  0.95740  0.82520  0.47650  1.0000
  C   C14       1.0  0.04260  0.32520  0.52350  1.0000
  C   C15       1.0  0.25090  0.04590  0.72490  1.0000
  C   C16       1.0  0.74910  0.54590  0.27510  1.0000
