data_image0
_chemical_formula_structural       Mg2O16C8Mg2O16C8
_chemical_formula_sum              "Mg4 O32 C16"
_cell_length_a       9.391
_cell_length_b       16.657
_cell_length_c       9.802
_cell_angle_alpha    90
_cell_angle_beta     91.11
_cell_angle_gamma    90

_space_group_name_H-M_alt    "P 1"
_space_group_IT_number       1

loop_
  _space_group_symop_operation_xyz
  'x, y, z'

loop_
  _atom_site_type_symbol
  _atom_site_label
  _atom_site_symmetry_multiplicity
  _atom_site_fract_x
  _atom_site_fract_y
  _atom_site_fract_z
  _atom_site_occupancy
  Mg  Mg1       1.0  0.34968  0.04475  0.99509  1.0000
  Mg  Mg2       1.0  0.65032  0.54475  0.00491  1.0000
  O   O1        1.0  0.17160  0.05792  0.11520  1.0000
  O   O2        1.0  0.82840  0.55792  0.88480  1.0000
  O   O3        1.0  0.29550  0.94203  0.88780  1.0000
  O   O4        1.0  0.70450  0.44203  0.11220  1.0000
  O   O5        1.0  0.56050  0.03634  0.94300  1.0000
  O   O6        1.0  0.43950  0.53634  0.05700  1.0000
  O   O7        1.0  0.42210  0.15633  0.05970  1.0000
  O   O8        1.0  0.57790  0.65633  0.94030  1.0000
  O   O9        1.0  0.22250  0.90497  0.67720  1.0000
  O   O10       1.0  0.77750  0.40497  0.32280  1.0000
  O   O11       1.0  0.09430  0.02589  0.32330  1.0000
  O   O12       1.0  0.90570  0.52589  0.67670  1.0000
  O   O13       1.0  0.61620  0.23432  0.04580  1.0000
  O   O14       1.0  0.38380  0.73432  0.95420  1.0000
  O   O15       1.0  0.76700  0.10314  0.96970  1.0000
  O   O16       1.0  0.23300  0.60314  0.03030  1.0000
  C   C1        1.0  0.18320  0.02500  0.23010  1.0000
  C   C2        1.0  0.81680  0.52500  0.76990  1.0000
  C   C3        1.0  0.63530  0.09650  0.97660  1.0000
  C   C4        1.0  0.36470  0.59650  0.02340  1.0000
  C   C5        1.0  0.55070  0.16990  0.03230  1.0000
  C   C6        1.0  0.44930  0.66990  0.96770  1.0000
  C   C7        1.0  0.25620  0.95570  0.76660  1.0000
  C   C8        1.0  0.74380  0.45570  0.23340  1.0000
  Mg  Mg3       1.0  0.15467  0.95666  0.49341  1.0000
  Mg  Mg4       1.0  0.84533  0.45666  0.50659  1.0000
  O   O17       1.0  0.33300  0.94375  0.37450  1.0000
  O   O18       1.0  0.66700  0.44375  0.62550  1.0000
  O   O19       1.0  0.21140  0.05885  0.60150  1.0000
  O   O20       1.0  0.78860  0.55885  0.39850  1.0000
  O   O21       1.0  0.94520  0.96320  0.55170  1.0000
  O   O22       1.0  0.05480  0.46320  0.44830  1.0000
  O   O23       1.0  0.08190  0.84527  0.42820  1.0000
  O   O24       1.0  0.91810  0.34527  0.57180  1.0000
  O   O25       1.0  0.28290  0.09604  0.81210  1.0000
  O   O26       1.0  0.71710  0.59604  0.18790  1.0000
  O   O27       1.0  0.41240  0.97693  0.16690  1.0000
  O   O28       1.0  0.58760  0.47693  0.83310  1.0000
  O   O29       1.0  0.90630  0.75903  0.47620  1.0000
  O   O30       1.0  0.09370  0.25903  0.52380  1.0000
  O   O31       1.0  0.75980  0.88325  0.58800  1.0000
  O   O32       1.0  0.24020  0.38325  0.41200  1.0000
  C   C9        1.0  0.32280  0.97700  0.26110  1.0000
  C   C10       1.0  0.67720  0.47700  0.73890  1.0000
  C   C11       1.0  0.88020  0.89700  0.54400  1.0000
  C   C12       1.0  0.11980  0.39700  0.45600  1.0000
  C   C13       1.0  0.96320  0.82640  0.47640  1.0000
  C   C14       1.0  0.03680  0.32640  0.52360  1.0000
  C   C15       1.0  0.24870  0.04510  0.72260  1.0000
  C   C16       1.0  0.75130  0.54510  0.27740  1.0000
