data_image0
_chemical_formula_structural       Co2O16C8Co2O16C8
_chemical_formula_sum              "Co4 O32 C16"
_cell_length_a       9.372
_cell_length_b       16.631
_cell_length_c       9.813
_cell_angle_alpha    90
_cell_angle_beta     91.54
_cell_angle_gamma    90

_space_group_name_H-M_alt    "P 1"
_space_group_IT_number       1

loop_
  _space_group_symop_operation_xyz
  'x, y, z'

loop_
  _atom_site_type_symbol
  _atom_site_label
  _atom_site_symmetry_multiplicity
  _atom_site_fract_x
  _atom_site_fract_y
  _atom_site_fract_z
  _atom_site_occupancy
  Co  Co1       1.0  0.34983  0.04593  0.99583  1.0000
  Co  Co2       1.0  0.65017  0.54593  0.00417  1.0000
  O   O1        1.0  0.17270  0.06080  0.11800  1.0000
  O   O2        1.0  0.82730  0.56080  0.88200  1.0000
  O   O3        1.0  0.29100  0.94217  0.89030  1.0000
  O   O4        1.0  0.70900  0.44217  0.10970  1.0000
  O   O5        1.0  0.56390  0.03650  0.94540  1.0000
  O   O6        1.0  0.43610  0.53650  0.05460  1.0000
  O   O7        1.0  0.42420  0.15922  0.05820  1.0000
  O   O8        1.0  0.57580  0.65922  0.94180  1.0000
  O   O9        1.0  0.21750  0.90383  0.68130  1.0000
  O   O10       1.0  0.78250  0.40383  0.31870  1.0000
  O   O11       1.0  0.09310  0.02617  0.32240  1.0000
  O   O12       1.0  0.90690  0.52617  0.67760  1.0000
  O   O13       1.0  0.61840  0.23621  0.03990  1.0000
  O   O14       1.0  0.38160  0.73621  0.96010  1.0000
  O   O15       1.0  0.76850  0.10468  0.96680  1.0000
  O   O16       1.0  0.23150  0.60468  0.03320  1.0000
  C   C1        1.0  0.18300  0.02620  0.23100  1.0000
  C   C2        1.0  0.81700  0.52620  0.76900  1.0000
  C   C3        1.0  0.63590  0.09780  0.97590  1.0000
  C   C4        1.0  0.36410  0.59780  0.02410  1.0000
  C   C5        1.0  0.55300  0.17160  0.02960  1.0000
  C   C6        1.0  0.44700  0.67160  0.97040  1.0000
  C   C7        1.0  0.25300  0.95600  0.76820  1.0000
  C   C8        1.0  0.74700  0.45600  0.23180  1.0000
  Co  Co3       1.0  0.15341  0.95543  0.49354  1.0000
  Co  Co4       1.0  0.84659  0.45543  0.50646  1.0000
  O   O17       1.0  0.33050  0.93956  0.37210  1.0000
  O   O18       1.0  0.66950  0.43956  0.62790  1.0000
  O   O19       1.0  0.21590  0.05854  0.59950  1.0000
  O   O20       1.0  0.78410  0.55854  0.40050  1.0000
  O   O21       1.0  0.94330  0.96250  0.55050  1.0000
  O   O22       1.0  0.05670  0.46250  0.44950  1.0000
  O   O23       1.0  0.07870  0.84263  0.42840  1.0000
  O   O24       1.0  0.92130  0.34263  0.57160  1.0000
  O   O25       1.0  0.28720  0.09659  0.80940  1.0000
  O   O26       1.0  0.71280  0.59659  0.19060  1.0000
  O   O27       1.0  0.41250  0.97671  0.16900  1.0000
  O   O28       1.0  0.58750  0.47671  0.83100  1.0000
  O   O29       1.0  0.90230  0.75737  0.48000  1.0000
  O   O30       1.0  0.09770  0.25737  0.52000  1.0000
  O   O31       1.0  0.75900  0.88209  0.59150  1.0000
  O   O32       1.0  0.24100  0.38209  0.40850  1.0000
  C   C9        1.0  0.32120  0.97630  0.26080  1.0000
  C   C10       1.0  0.67880  0.47630  0.73920  1.0000
  C   C11       1.0  0.87840  0.89550  0.54530  1.0000
  C   C12       1.0  0.12160  0.39550  0.45470  1.0000
  C   C13       1.0  0.95960  0.82460  0.47880  1.0000
  C   C14       1.0  0.04040  0.32460  0.52120  1.0000
  C   C15       1.0  0.25150  0.04490  0.72100  1.0000
  C   C16       1.0  0.74850  0.54490  0.27900  1.0000
