data_image0
_chemical_formula_structural       Co4O24C16O8
_chemical_formula_sum              "Co4 O32 C16"
_cell_length_a       9.419
_cell_length_b       16.751
_cell_length_c       9.762
_cell_angle_alpha    90
_cell_angle_beta     91.69
_cell_angle_gamma    90

_space_group_name_H-M_alt    "P 1"
_space_group_IT_number       1

loop_
  _space_group_symop_operation_xyz
  'x, y, z'

loop_
  _atom_site_type_symbol
  _atom_site_label
  _atom_site_symmetry_multiplicity
  _atom_site_fract_x
  _atom_site_fract_y
  _atom_site_fract_z
  _atom_site_occupancy
  Co  Co1       1.0  0.10076  0.45409  0.25188  1.0000
  Co  Co2       1.0  0.39924  0.95409  0.24812  1.0000
  Co  Co3       1.0  0.89924  0.54591  0.74812  1.0000
  Co  Co4       1.0  0.60076  0.04591  0.75188  1.0000
  O   O1        1.0  0.92290  0.43959  0.37220  1.0000
  O   O2        1.0  0.57710  0.93959  0.12780  1.0000
  O   O3        1.0  0.07710  0.56041  0.62780  1.0000
  O   O4        1.0  0.42290  0.06041  0.87220  1.0000
  O   O5        1.0  0.04000  0.55754  0.14530  1.0000
  O   O6        1.0  0.46000  0.05754  0.35470  1.0000
  O   O7        1.0  0.96000  0.44246  0.85470  1.0000
  O   O8        1.0  0.54000  0.94246  0.64530  1.0000
  O   O9        1.0  0.31110  0.46103  0.19730  1.0000
  O   O10       1.0  0.18890  0.96103  0.30270  1.0000
  O   O11       1.0  0.68890  0.53897  0.80270  1.0000
  O   O12       1.0  0.81110  0.03897  0.69730  1.0000
  O   O13       1.0  0.17360  0.34152  0.31410  1.0000
  O   O14       1.0  0.32640  0.84152  0.18590  1.0000
  O   O15       1.0  0.82640  0.65848  0.68590  1.0000
  O   O16       1.0  0.67360  0.15848  0.81410  1.0000
  O   O17       1.0  0.96570  0.59586  0.93660  1.0000
  O   O18       1.0  0.53430  0.09586  0.56340  1.0000
  O   O19       1.0  0.03430  0.40414  0.06340  1.0000
  O   O20       1.0  0.46570  0.90414  0.43660  1.0000
  O   O21       1.0  0.83970  0.47717  0.57400  1.0000
  O   O22       1.0  0.66030  0.97717  0.92600  1.0000
  O   O23       1.0  0.16030  0.52283  0.42600  1.0000
  O   O24       1.0  0.33970  0.02283  0.07400  1.0000
  C   C1        1.0  0.93180  0.47570  0.48410  1.0000
  C   C2        1.0  0.56820  0.97570  0.01590  1.0000
  C   C3        1.0  0.06820  0.52430  0.51590  1.0000
  C   C4        1.0  0.43180  0.02430  0.98410  1.0000
  C   C5        1.0  0.37880  0.39740  0.21350  1.0000
  C   C6        1.0  0.12120  0.89740  0.28650  1.0000
  C   C7        1.0  0.62120  0.60260  0.78650  1.0000
  C   C8        1.0  0.87880  0.10260  0.71350  1.0000
  C   C9        1.0  0.29670  0.32610  0.27440  1.0000
  C   C10       1.0  0.20330  0.82610  0.22560  1.0000
  C   C11       1.0  0.70330  0.67390  0.72560  1.0000
  C   C12       1.0  0.79670  0.17390  0.77440  1.0000
  C   C13       1.0  0.00250  0.54410  0.02350  1.0000
  C   C14       1.0  0.49750  0.04410  0.47650  1.0000
  C   C15       1.0  0.99750  0.45590  0.97650  1.0000
  C   C16       1.0  0.50250  0.95590  0.52350  1.0000
  O   O25       1.0  0.35720  0.26020  0.27750  1.0000
  O   O26       1.0  0.14280  0.76020  0.22250  1.0000
  O   O27       1.0  0.64280  0.73980  0.72250  1.0000
  O   O28       1.0  0.85720  0.23980  0.77750  1.0000
  O   O29       1.0  0.50370  0.38628  0.18390  1.0000
  O   O30       1.0  0.99630  0.88628  0.31610  1.0000
  O   O31       1.0  0.49630  0.61372  0.81610  1.0000
  O   O32       1.0  0.00370  0.11372  0.68390  1.0000
