data_image0
_chemical_formula_structural       Mg4O24C16O8
_chemical_formula_sum              "Mg4 O32 C16"
_cell_length_a       9.4358
_cell_length_b       16.8165
_cell_length_c       9.7722
_cell_angle_alpha    90
_cell_angle_beta     91.174
_cell_angle_gamma    90

_space_group_name_H-M_alt    "P 1"
_space_group_IT_number       1

loop_
  _space_group_symop_operation_xyz
  'x, y, z'

loop_
  _atom_site_type_symbol
  _atom_site_label
  _atom_site_symmetry_multiplicity
  _atom_site_fract_x
  _atom_site_fract_y
  _atom_site_fract_z
  _atom_site_occupancy
  Mg  Mg1       1.0  0.09931  0.45533  0.25132  1.0000
  Mg  Mg2       1.0  0.40069  0.95533  0.24868  1.0000
  Mg  Mg3       1.0  0.90069  0.54467  0.74868  1.0000
  Mg  Mg4       1.0  0.59931  0.04467  0.75132  1.0000
  O   O1        1.0  0.92088  0.44298  0.37021  1.0000
  O   O2        1.0  0.57912  0.94298  0.12979  1.0000
  O   O3        1.0  0.07912  0.55702  0.62979  1.0000
  O   O4        1.0  0.42088  0.05702  0.87021  1.0000
  O   O5        1.0  0.04497  0.55739  0.14303  1.0000
  O   O6        1.0  0.45503  0.05739  0.35697  1.0000
  O   O7        1.0  0.95503  0.44261  0.85697  1.0000
  O   O8        1.0  0.54497  0.94261  0.64303  1.0000
  O   O9        1.0  0.30854  0.46142  0.19573  1.0000
  O   O10       1.0  0.19146  0.96142  0.30427  1.0000
  O   O11       1.0  0.69146  0.53858  0.80427  1.0000
  O   O12       1.0  0.80854  0.03858  0.69573  1.0000
  O   O13       1.0  0.17037  0.34416  0.31543  1.0000
  O   O14       1.0  0.32963  0.84416  0.18457  1.0000
  O   O15       1.0  0.82963  0.65584  0.68457  1.0000
  O   O16       1.0  0.67037  0.15584  0.81543  1.0000
  O   O17       1.0  0.97074  0.59487  0.93348  1.0000
  O   O18       1.0  0.52926  0.09487  0.56652  1.0000
  O   O19       1.0  0.02926  0.40513  0.06652  1.0000
  O   O20       1.0  0.47074  0.90513  0.43348  1.0000
  O   O21       1.0  0.84032  0.47717  0.57612  1.0000
  O   O22       1.0  0.65968  0.97717  0.92388  1.0000
  O   O23       1.0  0.15968  0.52283  0.42388  1.0000
  O   O24       1.0  0.34032  0.02283  0.07612  1.0000
  C   C1        1.0  0.93045  0.47661  0.48410  1.0000
  C   C2        1.0  0.56955  0.97661  0.01590  1.0000
  C   C3        1.0  0.06955  0.52339  0.51590  1.0000
  C   C4        1.0  0.43045  0.02339  0.98410  1.0000
  C   C5        1.0  0.37730  0.39826  0.21630  1.0000
  C   C6        1.0  0.12270  0.89826  0.28370  1.0000
  C   C7        1.0  0.62270  0.60174  0.78370  1.0000
  C   C8        1.0  0.87730  0.10174  0.71630  1.0000
  C   C9        1.0  0.29360  0.32795  0.27740  1.0000
  C   C10       1.0  0.20640  0.82795  0.22260  1.0000
  C   C11       1.0  0.70640  0.67205  0.72260  1.0000
  C   C12       1.0  0.79360  0.17205  0.77740  1.0000
  C   C13       1.0  0.00470  0.54414  0.02208  1.0000
  C   C14       1.0  0.49530  0.04414  0.47792  1.0000
  C   C15       1.0  0.99530  0.45586  0.97792  1.0000
  C   C16       1.0  0.50470  0.95586  0.52208  1.0000
  O   O25       1.0  0.35343  0.26235  0.28350  1.0000
  O   O26       1.0  0.14657  0.76235  0.21650  1.0000
  O   O27       1.0  0.64657  0.73765  0.71650  1.0000
  O   O28       1.0  0.85343  0.23765  0.78350  1.0000
  O   O29       1.0  0.50303  0.38770  0.18950  1.0000
  O   O30       1.0  0.99697  0.88770  0.31050  1.0000
  O   O31       1.0  0.49697  0.61230  0.81050  1.0000
  O   O32       1.0  0.00303  0.11230  0.68950  1.0000
