data_image0
_chemical_formula_structural       Co4O32C16
_chemical_formula_sum              "Co4 O32 C16"
_cell_length_a       7.622
_cell_length_b       17.128
_cell_length_c       9.532
_cell_angle_alpha    90
_cell_angle_beta     93.14
_cell_angle_gamma    90

_space_group_name_H-M_alt    "P 1"
_space_group_IT_number       1

loop_
  _space_group_symop_operation_xyz
  'x, y, z'

loop_
  _atom_site_type_symbol
  _atom_site_label
  _atom_site_symmetry_multiplicity
  _atom_site_fract_x
  _atom_site_fract_y
  _atom_site_fract_z
  _atom_site_occupancy
  Co  Co1       1.0  0.14923  0.54679  0.76001  1.0000
  Co  Co2       1.0  0.35077  0.04679  0.73999  1.0000
  Co  Co3       1.0  0.85077  0.45321  0.23999  1.0000
  Co  Co4       1.0  0.64923  0.95321  0.26001  1.0000
  O   O1        1.0  0.04050  0.44780  0.84870  1.0000
  O   O2        1.0  0.45950  0.94780  0.65130  1.0000
  O   O3        1.0  0.95950  0.55220  0.15130  1.0000
  O   O4        1.0  0.54050  0.05220  0.34870  1.0000
  O   O5        1.0  0.92870  0.56900  0.61720  1.0000
  O   O6        1.0  0.57130  0.06900  0.88280  1.0000
  O   O7        1.0  0.07130  0.43100  0.38280  1.0000
  O   O8        1.0  0.42870  0.93100  0.11720  1.0000
  O   O9        1.0  0.41710  0.53890  0.80750  1.0000
  O   O10       1.0  0.08290  0.03890  0.69250  1.0000
  O   O11       1.0  0.58290  0.46110  0.19250  1.0000
  O   O12       1.0  0.91710  0.96110  0.30750  1.0000
  O   O13       1.0  0.23010  0.65880  0.70570  1.0000
  O   O14       1.0  0.26990  0.15880  0.79430  1.0000
  O   O15       1.0  0.76990  0.34120  0.29430  1.0000
  O   O16       1.0  0.73010  0.84120  0.20570  1.0000
  O   O17       1.0  0.90230  0.41090  0.03790  1.0000
  O   O18       1.0  0.59770  0.91090  0.46210  1.0000
  O   O19       1.0  0.09770  0.58910  0.96210  1.0000
  O   O20       1.0  0.40230  0.08910  0.53790  1.0000
  O   O21       1.0  0.79900  0.52580  0.41590  1.0000
  O   O22       1.0  0.70100  0.02580  0.08410  1.0000
  O   O23       1.0  0.20100  0.47420  0.58410  1.0000
  O   O24       1.0  0.29900  0.97420  0.91590  1.0000
  O   O25       1.0  0.45040  0.73910  0.75480  1.0000
  O   O26       1.0  0.04960  0.23910  0.74520  1.0000
  O   O27       1.0  0.54960  0.26090  0.24520  1.0000
  O   O28       1.0  0.95040  0.76090  0.25480  1.0000
  O   O29       1.0  0.65130  0.61770  0.84750  1.0000
  O   O30       1.0  0.84870  0.11770  0.65250  1.0000
  O   O31       1.0  0.34870  0.38230  0.15250  1.0000
  O   O32       1.0  0.15130  0.88230  0.34750  1.0000
  C   C1        1.0  0.92260  0.52770  0.50880  1.0000
  C   C2        1.0  0.57740  0.02770  0.99120  1.0000
  C   C3        1.0  0.07740  0.47230  0.49120  1.0000
  C   C4        1.0  0.42260  0.97230  0.00880  1.0000
  C   C5        1.0  0.49880  0.60380  0.81000  1.0000
  C   C6        1.0  0.00120  0.10380  0.69000  1.0000
  C   C7        1.0  0.50120  0.39620  0.19000  1.0000
  C   C8        1.0  0.99880  0.89620  0.31000  1.0000
  C   C9        1.0  0.38390  0.67330  0.75540  1.0000
  C   C10       1.0  0.11610  0.17330  0.74460  1.0000
  C   C11       1.0  0.61610  0.32670  0.24460  1.0000
  C   C12       1.0  0.88390  0.82670  0.25540  1.0000
  C   C13       1.0  0.98560  0.45880  0.96780  1.0000
  C   C14       1.0  0.51440  0.95880  0.53220  1.0000
  C   C15       1.0  0.01440  0.54120  0.03220  1.0000
  C   C16       1.0  0.48560  0.04120  0.46780  1.0000
