data_image0
_chemical_formula_structural       ZrO8C8O8Li4O7C2OCOCOH2OZrO5C4O
_chemical_formula_sum              "Zr2 O33 C16 Li4 H2"
_cell_length_a       8.5302
_cell_length_b       8.5902
_cell_length_c       16.1582
_cell_angle_alpha    89.309
_cell_angle_beta     78.004
_cell_angle_gamma    68.812

_space_group_name_H-M_alt    "P 1"
_space_group_IT_number       1

loop_
  _space_group_symop_operation_xyz
  'x, y, z'

loop_
  _atom_site_type_symbol
  _atom_site_label
  _atom_site_symmetry_multiplicity
  _atom_site_fract_x
  _atom_site_fract_y
  _atom_site_fract_z
  _atom_site_occupancy
  Zr  Zr1       1.0  0.59693  0.73780  0.58595  1.0000
  O   O1        1.0  0.40540  0.94000  0.67020  1.0000
  O   O2        1.0  0.66040  0.53730  0.48410  1.0000
  O   O3        1.0  0.87460  0.57580  0.56590  1.0000
  O   O4        1.0  0.60620  0.57720  0.69060  1.0000
  O   O5        1.0  0.72950  0.84220  0.66040  1.0000
  O   O6        1.0  0.42050  0.87510  0.50420  1.0000
  O   O7        1.0  0.72600  0.86250  0.49000  1.0000
  O   O8        1.0  0.37350  0.65820  0.61000  1.0000
  C   C1        1.0  0.44600  0.01710  0.71870  1.0000
  C   C2        1.0  0.81600  0.43750  0.46040  1.0000
  C   C3        1.0  0.94160  0.45350  0.50890  1.0000
  C   C4        1.0  0.49100  0.52000  0.72050  1.0000
  C   C5        1.0  0.65310  0.95200  0.70840  1.0000
  C   C6        1.0  0.46200  0.96760  0.45010  1.0000
  C   C7        1.0  0.64520  0.96290  0.44100  1.0000
  C   C8        1.0  0.33830  0.57590  0.67430  1.0000
  O   O9        1.0  0.34970  0.13410  0.77360  1.0000
  O   O10       1.0  0.86830  0.32050  0.40210  1.0000
  O   O11       1.0  0.09020  0.35440  0.49030  1.0000
  O   O12       1.0  0.49460  0.43540  0.77850  1.0000
  O   O13       1.0  0.69880  0.03890  0.75510  1.0000
  O   O14       1.0  0.37190  0.05900  0.40470  1.0000
  O   O15       1.0  0.70440  0.04200  0.38850  1.0000
  O   O16       1.0  0.21660  0.54720  0.69590  1.0000
  Li  Li1       1.0  0.47700  0.20500  0.85000  1.0000
  Li  Li2       1.0  0.82500  0.18500  0.32200  1.0000
  Li  Li3       1.0  0.14800  0.21800  0.37870  1.0000
  Li  Li4       1.0  0.46920  0.24200  0.37780  1.0000
  O   O17       1.0  0.62340  0.26290  0.92180  1.0000
  O   O18       1.0  0.27060  0.35770  0.93960  1.0000
  O   O19       1.0  0.50290  0.92800  0.90860  1.0000
  O   O20       1.0  0.60230  0.34170  0.29230  1.0000
  O   O21       1.0  0.27030  0.35530  0.30980  1.0000
  O   O22       1.0  0.10870  0.06800  0.29530  1.0000
  O   O23       1.0  0.88510  0.03570  0.20700  1.0000
  C   C9        1.0  0.51150  0.43160  0.24900  1.0000
  C   C10       1.0  0.16580  0.96100  0.23900  1.0000
  O   O24       1.0  0.42660  0.34680  0.48860  1.0000
  C   C11       1.0  0.32150  0.43920  0.25630  1.0000
  O   O25       1.0  0.55270  0.52370  0.19450  1.0000
  C   C12       1.0  0.03430  0.94000  0.18930  1.0000
  O   O26       1.0  0.31750  0.85380  0.21410  1.0000
  H   H1        1.0  0.44390  0.27280  0.52880  1.0000
  H   H2        1.0  0.31800  0.42010  0.50580  1.0000
  O   O27       1.0  0.24220  0.53140  0.20580  1.0000
  Zr  Zr2       1.0  0.37781  0.65760  0.11165  1.0000
  O   O28       1.0  0.09700  0.81910  0.13300  1.0000
  O   O29       1.0  0.60330  0.72980  0.08870  1.0000
  O   O30       1.0  0.36230  0.81430  0.00780  1.0000
  O   O31       1.0  0.24070  0.55560  0.04150  1.0000
  O   O32       1.0  0.56710  0.44980  0.03030  1.0000
  C   C13       1.0  0.63300  0.80200  0.02340  1.0000
  C   C14       1.0  0.49500  0.85300  0.97140  1.0000
  C   C15       1.0  0.33560  0.42070  0.98020  1.0000
  C   C16       1.0  0.52500  0.36600  0.97370  1.0000
  O   O33       1.0  0.77220  0.83380  0.99910  1.0000
