data_image0
_chemical_formula_structural       Li4C16O6H2O27Zr2
_chemical_formula_sum              "Li4 C16 O33 H2 Zr2"
_cell_length_a       8.4752
_cell_length_b       8.4797
_cell_length_c       16.1725
_cell_angle_alpha    78.177
_cell_angle_beta     89.232
_cell_angle_gamma    69.334

_space_group_name_H-M_alt    "P 1"
_space_group_IT_number       1

loop_
  _space_group_symop_operation_xyz
  'x, y, z'

loop_
  _atom_site_type_symbol
  _atom_site_label
  _atom_site_symmetry_multiplicity
  _atom_site_fract_x
  _atom_site_fract_y
  _atom_site_fract_z
  _atom_site_occupancy
  Li  Li1       1.0  0.24200  0.75700  0.09120  1.0000
  Li  Li2       1.0  0.20400  0.09900  0.56530  1.0000
  Li  Li3       1.0  0.18700  0.77400  0.57230  1.0000
  Li  Li4       1.0  0.24000  0.42000  0.62600  1.0000
  C   C1        1.0  0.99030  0.73390  0.69880  1.0000
  C   C2        1.0  0.99940  0.91680  0.96240  1.0000
  C   C3        1.0  0.45850  0.08970  0.70910  1.0000
  C   C4        1.0  0.97760  0.93010  0.68850  1.0000
  C   C5        1.0  0.04980  0.72300  0.96820  1.0000
  C   C6        1.0  0.60880  0.61100  0.92500  1.0000
  C   C7        1.0  0.48040  0.21540  0.75920  1.0000
  C   C8        1.0  0.55270  0.75600  0.97470  1.0000
  C   C9        1.0  0.39390  0.80850  0.22460  1.0000
  C   C10       1.0  0.45200  0.60700  0.23500  1.0000
  C   C11       1.0  0.98970  0.44160  0.48490  1.0000
  C   C12       1.0  0.96840  0.30850  0.43550  1.0000
  C   C13       1.0  0.84300  0.91600  0.26970  1.0000
  C   C14       1.0  0.88600  0.77000  0.21880  1.0000
  C   C15       1.0  0.46490  0.60510  0.50790  1.0000
  C   C16       1.0  0.46130  0.78720  0.49890  1.0000
  O   O1        1.0  0.34870  0.14420  0.65280  1.0000
  O   O2        1.0  0.10530  0.38030  0.54320  1.0000
  O   O3        1.0  0.28550  0.90190  0.17310  1.0000
  O   O4        1.0  0.16240  0.62090  0.02440  1.0000
  O   O5        1.0  0.06440  0.98030  0.63440  1.0000
  O   O6        1.0  0.08620  0.82040  0.45990  1.0000
  H   H1        1.0  0.00490  0.76420  0.45150  1.0000
  H   H2        1.0  0.16370  0.78770  0.41460  1.0000
  O   O7        1.0  0.48000  0.84860  0.27950  1.0000
  O   O8        1.0  0.60240  0.88540  0.94010  1.0000
  O   O9        1.0  0.55850  0.93380  0.73410  1.0000
  O   O10       1.0  0.88740  0.59260  0.46010  1.0000
  O   O11       1.0  0.96650  0.67920  0.91920  1.0000
  O   O12       1.0  0.84880  0.37590  0.37780  1.0000
  O   O13       1.0  0.88960  0.00490  0.73880  1.0000
  O   O14       1.0  0.38890  0.36890  0.74080  1.0000
  O   O15       1.0  0.06890  0.15960  0.45320  1.0000
  O   O16       1.0  0.57580  0.52220  0.28820  1.0000
  O   O17       1.0  0.89590  0.69750  0.75180  1.0000
  O   O18       1.0  0.07640  0.64680  0.65360  1.0000
  O   O19       1.0  0.36950  0.54900  0.19260  1.0000
  O   O20       1.0  0.60020  0.14990  0.81700  1.0000
  O   O21       1.0  0.87230  0.00580  0.90570  1.0000
  O   O22       1.0  0.07060  0.97230  0.00330  1.0000
  O   O23       1.0  0.49580  0.73850  0.04350  1.0000
  O   O24       1.0  0.57950  0.47700  0.95010  1.0000
  O   O25       1.0  0.68550  0.64630  0.85550  1.0000
  O   O26       1.0  0.36640  0.88320  0.54280  1.0000
  O   O27       1.0  0.38890  0.54380  0.56220  1.0000
  O   O28       1.0  0.56640  0.52160  0.45610  1.0000
  O   O29       1.0  0.55280  0.83490  0.44170  1.0000
  O   O30       1.0  0.77110  0.87840  0.33440  1.0000
  O   O31       1.0  0.83790  0.64750  0.25220  1.0000
  O   O32       1.0  0.87300  0.04480  0.24670  1.0000
  O   O33       1.0  0.98480  0.76510  0.16320  1.0000
  Zr  Zr1       1.0  0.68592  0.65558  0.35981  1.0000
  Zr  Zr2       1.0  0.76287  0.87021  0.83557  1.0000
