data_image0
_chemical_formula_structural       Zn12O60N30H12C72H24C6
_chemical_formula_sum              "Zn12 O60 N30 H36 C78"
_cell_length_a       19.049
_cell_length_b       19.049
_cell_length_c       17.487
_cell_angle_alpha    90
_cell_angle_beta     90
_cell_angle_gamma    120

_space_group_name_H-M_alt    "P 1"
_space_group_IT_number       1

loop_
  _space_group_symop_operation_xyz
  'x, y, z'

loop_
  _atom_site_type_symbol
  _atom_site_label
  _atom_site_symmetry_multiplicity
  _atom_site_fract_x
  _atom_site_fract_y
  _atom_site_fract_z
  _atom_site_occupancy
  Zn  Zn1       1.0  0.04316  0.52158  0.07827  1.0000
  Zn  Zn2       1.0  0.52158  0.04316  0.57827  1.0000
  Zn  Zn3       1.0  0.47842  0.52158  0.07827  1.0000
  Zn  Zn4       1.0  0.95684  0.47842  0.57827  1.0000
  Zn  Zn5       1.0  0.47842  0.95684  0.07827  1.0000
  Zn  Zn6       1.0  0.52158  0.47842  0.57827  1.0000
  Zn  Zn7       1.0  0.47842  0.95684  0.42173  1.0000
  Zn  Zn8       1.0  0.52158  0.47842  0.92173  1.0000
  Zn  Zn9       1.0  0.04316  0.52158  0.42173  1.0000
  Zn  Zn10      1.0  0.52158  0.04316  0.92173  1.0000
  Zn  Zn11      1.0  0.47842  0.52158  0.42173  1.0000
  Zn  Zn12      1.0  0.95684  0.47842  0.92173  1.0000
  O   O1        1.0  0.23012  0.46020  0.96780  1.0000
  O   O2        1.0  0.76992  0.23012  0.46780  1.0000
  O   O3        1.0  0.53980  0.76992  0.96780  1.0000
  O   O4        1.0  0.76988  0.53980  0.46780  1.0000
  O   O5        1.0  0.23008  0.76988  0.96780  1.0000
  O   O6        1.0  0.46020  0.23008  0.46780  1.0000
  O   O7        1.0  0.53980  0.76988  0.53220  1.0000
  O   O8        1.0  0.76992  0.53980  0.03220  1.0000
  O   O9        1.0  0.23012  0.76992  0.53220  1.0000
  O   O10       1.0  0.46020  0.23012  0.03220  1.0000
  O   O11       1.0  0.23008  0.46020  0.53220  1.0000
  O   O12       1.0  0.76988  0.23008  0.03220  1.0000
  O   O13       1.0  0.11370  0.48440  0.02470  1.0000
  O   O14       1.0  0.62930  0.11370  0.52470  1.0000
  O   O15       1.0  0.51560  0.62930  0.02470  1.0000
  O   O16       1.0  0.88630  0.51560  0.52470  1.0000
  O   O17       1.0  0.37070  0.88630  0.02470  1.0000
  O   O18       1.0  0.48440  0.37070  0.52470  1.0000
  O   O19       1.0  0.51560  0.88630  0.47530  1.0000
  O   O20       1.0  0.62930  0.51560  0.97530  1.0000
  O   O21       1.0  0.11370  0.62930  0.47530  1.0000
  O   O22       1.0  0.48440  0.11370  0.97530  1.0000
  O   O23       1.0  0.37070  0.48440  0.47530  1.0000
  O   O24       1.0  0.88630  0.37070  0.97530  1.0000
  O   O25       1.0  0.88630  0.51560  0.97530  1.0000
  O   O26       1.0  0.37070  0.88630  0.47530  1.0000
  O   O27       1.0  0.48440  0.37070  0.97530  1.0000
  O   O28       1.0  0.11370  0.48440  0.47530  1.0000
  O   O29       1.0  0.62930  0.11370  0.97530  1.0000
  O   O30       1.0  0.51560  0.62930  0.47530  1.0000
  O   O31       1.0  0.48440  0.11370  0.52470  1.0000
  O   O32       1.0  0.37070  0.48440  0.02470  1.0000
  O   O33       1.0  0.88630  0.37070  0.52470  1.0000
  O   O34       1.0  0.51560  0.88630  0.02470  1.0000
  O   O35       1.0  0.62930  0.51560  0.52470  1.0000
  O   O36       1.0  0.11370  0.62930  0.02470  1.0000
  O   O37       1.0  0.04720  0.44860  0.91380  1.0000
  O   O38       1.0  0.59860  0.04720  0.41380  1.0000
  O   O39       1.0  0.55140  0.59860  0.91380  1.0000
  O   O40       1.0  0.95280  0.55140  0.41380  1.0000
  O   O41       1.0  0.40140  0.95280  0.91380  1.0000
  O   O42       1.0  0.44860  0.40140  0.41380  1.0000
  O   O43       1.0  0.55140  0.95280  0.58620  1.0000
  O   O44       1.0  0.59860  0.55140  0.08620  1.0000
  O   O45       1.0  0.04720  0.59860  0.58620  1.0000
  O   O46       1.0  0.44860  0.04720  0.08620  1.0000
  O   O47       1.0  0.40140  0.44860  0.58620  1.0000
  O   O48       1.0  0.95280  0.40140  0.08620  1.0000
  O   O49       1.0  0.95280  0.55140  0.08620  1.0000
  O   O50       1.0  0.40140  0.95280  0.58620  1.0000
  O   O51       1.0  0.44860  0.40140  0.08620  1.0000
  O   O52       1.0  0.04720  0.44860  0.58620  1.0000
  O   O53       1.0  0.59860  0.04720  0.08620  1.0000
  O   O54       1.0  0.55140  0.59860  0.58620  1.0000
  O   O55       1.0  0.44860  0.04720  0.41380  1.0000
  O   O56       1.0  0.40140  0.44860  0.91380  1.0000
  O   O57       1.0  0.95280  0.40140  0.41380  1.0000
  O   O58       1.0  0.55140  0.95280  0.91380  1.0000
  O   O59       1.0  0.59860  0.55140  0.41380  1.0000
  O   O60       1.0  0.04720  0.59860  0.91380  1.0000
  N   N1        1.0  0.07690  0.53843  0.18760  1.0000
  N   N2        1.0  0.53847  0.07690  0.68760  1.0000
  N   N3        1.0  0.46157  0.53847  0.18760  1.0000
  N   N4        1.0  0.92310  0.46157  0.68760  1.0000
  N   N5        1.0  0.46153  0.92310  0.18760  1.0000
  N   N6        1.0  0.53843  0.46153  0.68760  1.0000
  N   N7        1.0  0.46157  0.92310  0.31240  1.0000
  N   N8        1.0  0.53847  0.46157  0.81240  1.0000
  N   N9        1.0  0.07690  0.53847  0.31240  1.0000
  N   N10       1.0  0.53843  0.07690  0.81240  1.0000
  N   N11       1.0  0.46153  0.53843  0.31240  1.0000
  N   N12       1.0  0.92310  0.46153  0.81240  1.0000
  N   N13       1.0  0.15070  0.57530  0.21280  1.0000
  N   N14       1.0  0.57540  0.15070  0.71280  1.0000
  N   N15       1.0  0.42470  0.57540  0.21280  1.0000
  N   N16       1.0  0.84930  0.42470  0.71280  1.0000
  N   N17       1.0  0.42460  0.84930  0.21280  1.0000
  N   N18       1.0  0.57530  0.42460  0.71280  1.0000
  N   N19       1.0  0.42470  0.84930  0.28720  1.0000
  N   N20       1.0  0.57540  0.42470  0.78720  1.0000
  N   N21       1.0  0.15070  0.57540  0.28720  1.0000
  N   N22       1.0  0.57530  0.15070  0.78720  1.0000
  N   N23       1.0  0.42460  0.57530  0.28720  1.0000
  N   N24       1.0  0.84930  0.42460  0.78720  1.0000
  N   N25       1.0  0.95360  0.47680  0.25000  1.0000
  N   N26       1.0  0.47680  0.95360  0.75000  1.0000
  N   N27       1.0  0.52320  0.47680  0.25000  1.0000
  N   N28       1.0  0.04640  0.52320  0.75000  1.0000
  N   N29       1.0  0.52320  0.04640  0.25000  1.0000
  N   N30       1.0  0.47680  0.52320  0.75000  1.0000
  H   H1        1.0  0.92756  0.46387  0.20741  1.0000
  H   H2        1.0  0.46369  0.92756  0.70741  1.0000
  H   H3        1.0  0.53613  0.46369  0.20741  1.0000
  H   H4        1.0  0.07244  0.53613  0.70741  1.0000
  H   H5        1.0  0.53631  0.07244  0.20741  1.0000
  H   H6        1.0  0.46387  0.53631  0.70741  1.0000
  H   H7        1.0  0.53613  0.07244  0.29259  1.0000
  H   H8        1.0  0.46369  0.53613  0.79259  1.0000
  H   H9        1.0  0.92756  0.46369  0.29259  1.0000
  H   H10       1.0  0.46387  0.92756  0.79259  1.0000
  H   H11       1.0  0.53631  0.46387  0.29259  1.0000
  H   H12       1.0  0.07244  0.53631  0.79259  1.0000
  C   C1        1.0  0.10350  0.45980  0.95830  1.0000
  C   C2        1.0  0.64370  0.10350  0.45830  1.0000
  C   C3        1.0  0.54020  0.64370  0.95830  1.0000
  C   C4        1.0  0.89650  0.54020  0.45830  1.0000
  C   C5        1.0  0.35630  0.89650  0.95830  1.0000
  C   C6        1.0  0.45980  0.35630  0.45830  1.0000
  C   C7        1.0  0.54020  0.89650  0.54170  1.0000
  C   C8        1.0  0.64370  0.54020  0.04170  1.0000
  C   C9        1.0  0.10350  0.64370  0.54170  1.0000
  C   C10       1.0  0.45980  0.10350  0.04170  1.0000
  C   C11       1.0  0.35630  0.45980  0.54170  1.0000
  C   C12       1.0  0.89650  0.35630  0.04170  1.0000
  C   C13       1.0  0.89650  0.54020  0.04170  1.0000
  C   C14       1.0  0.35630  0.89650  0.54170  1.0000
  C   C15       1.0  0.45980  0.35630  0.04170  1.0000
  C   C16       1.0  0.10350  0.45980  0.54170  1.0000
  C   C17       1.0  0.64370  0.10350  0.04170  1.0000
  C   C18       1.0  0.54020  0.64370  0.54170  1.0000
  C   C19       1.0  0.45980  0.10350  0.45830  1.0000
  C   C20       1.0  0.35630  0.45980  0.95830  1.0000
  C   C21       1.0  0.89650  0.35630  0.45830  1.0000
  C   C22       1.0  0.54020  0.89650  0.95830  1.0000
  C   C23       1.0  0.64370  0.54020  0.45830  1.0000
  C   C24       1.0  0.10350  0.64370  0.95830  1.0000
  C   C25       1.0  0.16300  0.43970  0.92570  1.0000
  C   C26       1.0  0.72330  0.16300  0.42570  1.0000
  C   C27       1.0  0.56030  0.72330  0.92570  1.0000
  C   C28       1.0  0.83700  0.56030  0.42570  1.0000
  C   C29       1.0  0.27670  0.83700  0.92570  1.0000
  C   C30       1.0  0.43970  0.27670  0.42570  1.0000
  C   C31       1.0  0.56030  0.83700  0.57430  1.0000
  C   C32       1.0  0.72330  0.56030  0.07430  1.0000
  C   C33       1.0  0.16300  0.72330  0.57430  1.0000
  C   C34       1.0  0.43970  0.16300  0.07430  1.0000
  C   C35       1.0  0.27670  0.43970  0.57430  1.0000
  C   C36       1.0  0.83700  0.27670  0.07430  1.0000
  C   C37       1.0  0.83700  0.56030  0.07430  1.0000
  C   C38       1.0  0.27670  0.83700  0.57430  1.0000
  C   C39       1.0  0.43970  0.27670  0.07430  1.0000
  C   C40       1.0  0.16300  0.43970  0.57430  1.0000
  C   C41       1.0  0.72330  0.16300  0.07430  1.0000
  C   C42       1.0  0.56030  0.72330  0.57430  1.0000
  C   C43       1.0  0.43970  0.16300  0.42570  1.0000
  C   C44       1.0  0.27670  0.43970  0.92570  1.0000
  C   C45       1.0  0.83700  0.27670  0.42570  1.0000
  C   C46       1.0  0.56030  0.83700  0.92570  1.0000
  C   C47       1.0  0.72330  0.56030  0.42570  1.0000
  C   C48       1.0  0.16300  0.72330  0.92570  1.0000
  C   C49       1.0  0.16640  0.40490  0.86020  1.0000
  C   C50       1.0  0.76150  0.16640  0.36020  1.0000
  C   C51       1.0  0.59510  0.76150  0.86020  1.0000
  C   C52       1.0  0.83360  0.59510  0.36020  1.0000
  C   C53       1.0  0.23850  0.83360  0.86020  1.0000
  C   C54       1.0  0.40490  0.23850  0.36020  1.0000
  C   C55       1.0  0.59510  0.83360  0.63980  1.0000
  C   C56       1.0  0.76150  0.59510  0.13980  1.0000
  C   C57       1.0  0.16640  0.76150  0.63980  1.0000
  C   C58       1.0  0.40490  0.16640  0.13980  1.0000
  C   C59       1.0  0.23850  0.40490  0.63980  1.0000
  C   C60       1.0  0.83360  0.23850  0.13980  1.0000
  C   C61       1.0  0.83360  0.59510  0.13980  1.0000
  C   C62       1.0  0.23850  0.83360  0.63980  1.0000
  C   C63       1.0  0.40490  0.23850  0.13980  1.0000
  C   C64       1.0  0.16640  0.40490  0.63980  1.0000
  C   C65       1.0  0.76150  0.16640  0.13980  1.0000
  C   C66       1.0  0.59510  0.76150  0.63980  1.0000
  C   C67       1.0  0.40490  0.16640  0.36020  1.0000
  C   C68       1.0  0.23850  0.40490  0.86020  1.0000
  C   C69       1.0  0.83360  0.23850  0.36020  1.0000
  C   C70       1.0  0.59510  0.83360  0.86020  1.0000
  C   C71       1.0  0.76150  0.59510  0.36020  1.0000
  C   C72       1.0  0.16640  0.76150  0.86020  1.0000
  H   H13       1.0  0.12723  0.38452  0.82199  1.0000
  H   H14       1.0  0.74271  0.12723  0.32199  1.0000
  H   H15       1.0  0.61548  0.74271  0.82199  1.0000
  H   H16       1.0  0.87277  0.61548  0.32199  1.0000
  H   H17       1.0  0.25729  0.87277  0.82199  1.0000
  H   H18       1.0  0.38452  0.25729  0.32199  1.0000
  H   H19       1.0  0.61548  0.87277  0.67801  1.0000
  H   H20       1.0  0.74271  0.61548  0.17801  1.0000
  H   H21       1.0  0.12723  0.74271  0.67801  1.0000
  H   H22       1.0  0.38452  0.12723  0.17801  1.0000
  H   H23       1.0  0.25729  0.38452  0.67801  1.0000
  H   H24       1.0  0.87277  0.25729  0.17801  1.0000
  H   H25       1.0  0.87277  0.61548  0.17801  1.0000
  H   H26       1.0  0.25729  0.87277  0.67801  1.0000
  H   H27       1.0  0.38452  0.25729  0.17801  1.0000
  H   H28       1.0  0.12723  0.38452  0.67801  1.0000
  H   H29       1.0  0.74271  0.12723  0.17801  1.0000
  H   H30       1.0  0.61548  0.74271  0.67801  1.0000
  H   H31       1.0  0.38452  0.12723  0.32199  1.0000
  H   H32       1.0  0.25729  0.38452  0.82199  1.0000
  H   H33       1.0  0.87277  0.25729  0.32199  1.0000
  H   H34       1.0  0.61548  0.87277  0.82199  1.0000
  H   H35       1.0  0.74271  0.61548  0.32199  1.0000
  H   H36       1.0  0.12723  0.74271  0.82199  1.0000
  C   C73       1.0  0.03640  0.51820  0.25000  1.0000
  C   C74       1.0  0.51820  0.03640  0.75000  1.0000
  C   C75       1.0  0.48180  0.51820  0.25000  1.0000
  C   C76       1.0  0.96360  0.48180  0.75000  1.0000
  C   C77       1.0  0.48180  0.96360  0.25000  1.0000
  C   C78       1.0  0.51820  0.48180  0.75000  1.0000
