data_image0
_chemical_formula_structural       Zr4C24O48
_chemical_formula_sum              "Zr4 C24 O48"
_cell_length_a       9.3411
_cell_length_b       11.1701
_cell_length_c       14.2537
_cell_angle_alpha    90
_cell_angle_beta     107.699
_cell_angle_gamma    90

_space_group_name_H-M_alt    "P 1"
_space_group_IT_number       1

loop_
  _space_group_symop_operation_xyz
  'x, y, z'

loop_
  _atom_site_type_symbol
  _atom_site_label
  _atom_site_symmetry_multiplicity
  _atom_site_fract_x
  _atom_site_fract_y
  _atom_site_fract_z
  _atom_site_occupancy
  Zr  Zr1       1.0  0.39207  0.10223  0.24528  1.0000
  Zr  Zr2       1.0  0.60793  0.60223  0.25472  1.0000
  Zr  Zr3       1.0  0.60793  0.89777  0.75472  1.0000
  Zr  Zr4       1.0  0.39207  0.39777  0.74528  1.0000
  C   C1        1.0  0.42248  0.37367  0.23720  1.0000
  C   C2        1.0  0.57752  0.87367  0.26280  1.0000
  C   C3        1.0  0.57752  0.62633  0.76280  1.0000
  C   C4        1.0  0.42248  0.12633  0.73720  1.0000
  C   C5        1.0  0.58143  0.32918  0.25394  1.0000
  C   C6        1.0  0.41857  0.82918  0.24606  1.0000
  C   C7        1.0  0.41857  0.67082  0.74606  1.0000
  C   C8        1.0  0.58143  0.17082  0.75394  1.0000
  C   C9        1.0  0.29194  0.10865  0.02159  1.0000
  C   C10       1.0  0.70806  0.60865  0.47841  1.0000
  C   C11       1.0  0.70806  0.89135  0.97841  1.0000
  C   C12       1.0  0.29194  0.39135  0.52159  1.0000
  C   C13       1.0  0.14367  0.11696  0.04747  1.0000
  C   C14       1.0  0.85633  0.61696  0.45253  1.0000
  C   C15       1.0  0.85633  0.88304  0.95253  1.0000
  C   C16       1.0  0.14367  0.38304  0.54747  1.0000
  C   C17       1.0  0.27927  0.10932  0.42349  1.0000
  C   C18       1.0  0.72073  0.60932  0.07651  1.0000
  C   C19       1.0  0.72073  0.89068  0.57651  1.0000
  C   C20       1.0  0.27927  0.39068  0.92349  1.0000
  C   C21       1.0  0.44913  0.13243  0.46491  1.0000
  C   C22       1.0  0.55087  0.63243  0.03509  1.0000
  C   C23       1.0  0.55087  0.86757  0.53509  1.0000
  C   C24       1.0  0.44913  0.36757  0.96491  1.0000
  O   O1        1.0  0.68023  0.41049  0.26763  1.0000
  O   O2        1.0  0.31977  0.91049  0.23237  1.0000
  O   O3        1.0  0.31977  0.58951  0.73237  1.0000
  O   O4        1.0  0.68023  0.08951  0.76763  1.0000
  O   O5        1.0  0.40403  0.48481  0.23322  1.0000
  O   O6        1.0  0.59597  0.98481  0.26678  1.0000
  O   O7        1.0  0.59597  0.51519  0.76678  1.0000
  O   O8        1.0  0.40403  0.01519  0.73322  1.0000
  O   O9        1.0  0.60000  0.21962  0.25318  1.0000
  O   O10       1.0  0.40000  0.71962  0.24682  1.0000
  O   O11       1.0  0.40000  0.78038  0.74682  1.0000
  O   O12       1.0  0.60000  0.28038  0.75318  1.0000
  O   O13       1.0  0.32365  0.29456  0.22876  1.0000
  O   O14       1.0  0.67635  0.79456  0.27124  1.0000
  O   O15       1.0  0.67635  0.70544  0.77124  1.0000
  O   O16       1.0  0.32365  0.20544  0.72876  1.0000
  O   O17       1.0  0.29344  0.11701  0.93695  1.0000
  O   O18       1.0  0.70656  0.61701  0.56305  1.0000
  O   O19       1.0  0.70656  0.88299  0.06305  1.0000
  O   O20       1.0  0.29344  0.38299  0.43695  1.0000
  O   O21       1.0  0.02365  0.13350  0.98468  1.0000
  O   O22       1.0  0.97635  0.63350  0.51532  1.0000
  O   O23       1.0  0.97635  0.86650  0.01532  1.0000
  O   O24       1.0  0.02365  0.36650  0.48468  1.0000
  O   O25       1.0  0.40804  0.09391  0.09894  1.0000
  O   O26       1.0  0.59196  0.59391  0.40106  1.0000
  O   O27       1.0  0.59196  0.90609  0.90106  1.0000
  O   O28       1.0  0.40804  0.40609  0.59894  1.0000
  O   O29       1.0  0.16289  0.10529  0.14101  1.0000
  O   O30       1.0  0.83711  0.60529  0.35899  1.0000
  O   O31       1.0  0.83711  0.89471  0.85899  1.0000
  O   O32       1.0  0.16289  0.39471  0.64101  1.0000
  O   O33       1.0  0.51530  0.13449  0.39731  1.0000
  O   O34       1.0  0.48470  0.63449  0.10269  1.0000
  O   O35       1.0  0.48470  0.86551  0.60269  1.0000
  O   O36       1.0  0.51530  0.36551  0.89731  1.0000
  O   O37       1.0  0.23641  0.09427  0.32897  1.0000
  O   O38       1.0  0.76359  0.59427  0.17103  1.0000
  O   O39       1.0  0.76359  0.90573  0.67103  1.0000
  O   O40       1.0  0.23641  0.40573  0.82897  1.0000
  O   O41       1.0  0.51191  0.14733  0.55260  1.0000
  O   O42       1.0  0.48809  0.64733  0.94740  1.0000
  O   O43       1.0  0.48809  0.85267  0.44740  1.0000
  O   O44       1.0  0.51191  0.35267  0.05260  1.0000
  O   O45       1.0  0.19912  0.10700  0.47640  1.0000
  O   O46       1.0  0.80088  0.60700  0.02360  1.0000
  O   O47       1.0  0.80088  0.89300  0.52360  1.0000
  O   O48       1.0  0.19912  0.39300  0.97640  1.0000
