data_image0
_chemical_formula_structural       Tb12O4H8O16C16H4C4H4C4H4C4H4C12H4C4H4C4O16C16H4C4H4C4H4C4H4C12H4C4H4C4O16C12H4C4H4C12H4C4H4C4H4C4H4C8O16C12H4C4H4C12H4C4H4C4H4C4H4C8O16C12H4C4H4C12H4C4H4C4H4C4H4C8O8C4H4
_chemical_formula_sum              "Tb12 O92 H132 C244"
_cell_length_a       15.5565
_cell_length_b       23.3284
_cell_length_c       20.3669
_cell_angle_alpha    90
_cell_angle_beta     102.331
_cell_angle_gamma    90

_space_group_name_H-M_alt    "P 1"
_space_group_IT_number       1

loop_
  _space_group_symop_operation_xyz
  'x, y, z'

loop_
  _atom_site_type_symbol
  _atom_site_label
  _atom_site_symmetry_multiplicity
  _atom_site_fract_x
  _atom_site_fract_y
  _atom_site_fract_z
  _atom_site_occupancy
  Tb  Tb1       1.0  0.83774  0.23142  0.58897  1.0000
  Tb  Tb2       1.0  0.66226  0.73142  0.91103  1.0000
  Tb  Tb3       1.0  0.16226  0.76858  0.41103  1.0000
  Tb  Tb4       1.0  0.33774  0.26858  0.08897  1.0000
  Tb  Tb5       1.0  0.75163  0.27698  0.75383  1.0000
  Tb  Tb6       1.0  0.74837  0.77698  0.74617  1.0000
  Tb  Tb7       1.0  0.24837  0.72302  0.24617  1.0000
  Tb  Tb8       1.0  0.25163  0.22302  0.25383  1.0000
  Tb  Tb9       1.0  0.65811  0.23278  0.91485  1.0000
  Tb  Tb10      1.0  0.84189  0.73278  0.58515  1.0000
  Tb  Tb11      1.0  0.34189  0.76722  0.08515  1.0000
  Tb  Tb12      1.0  0.15811  0.26722  0.41485  1.0000
  O   O1        1.0  0.75926  0.17425  0.75625  1.0000
  O   O2        1.0  0.74074  0.67425  0.74375  1.0000
  O   O3        1.0  0.24074  0.82575  0.24375  1.0000
  O   O4        1.0  0.25926  0.32575  0.25625  1.0000
  H   H1        1.0  0.76900  0.15460  0.72380  1.0000
  H   H2        1.0  0.73100  0.65460  0.77620  1.0000
  H   H3        1.0  0.23100  0.84540  0.27620  1.0000
  H   H4        1.0  0.26900  0.34540  0.22380  1.0000
  H   H5        1.0  0.73100  0.15500  0.77960  1.0000
  H   H6        1.0  0.76900  0.65500  0.72040  1.0000
  H   H7        1.0  0.26900  0.84500  0.22040  1.0000
  H   H8        1.0  0.23100  0.34500  0.27960  1.0000
  O   O5        1.0  0.79890  0.35385  0.69984  1.0000
  O   O6        1.0  0.70110  0.85385  0.80016  1.0000
  O   O7        1.0  0.20110  0.64615  0.30016  1.0000
  O   O8        1.0  0.29890  0.14615  0.19984  1.0000
  O   O9        1.0  0.84385  0.33107  0.60566  1.0000
  O   O10       1.0  0.65615  0.83107  0.89434  1.0000
  O   O11       1.0  0.15615  0.66893  0.39434  1.0000
  O   O12       1.0  0.34385  0.16893  0.10566  1.0000
  O   O13       1.0  0.81683  0.64390  0.64079  1.0000
  O   O14       1.0  0.68317  0.14390  0.85921  1.0000
  O   O15       1.0  0.18317  0.35610  0.35921  1.0000
  O   O16       1.0  0.31683  0.85610  0.14079  1.0000
  O   O17       1.0  0.88162  0.63017  0.55637  1.0000
  O   O18       1.0  0.61838  0.13017  0.94363  1.0000
  O   O19       1.0  0.11838  0.36983  0.44363  1.0000
  O   O20       1.0  0.38162  0.86983  0.05637  1.0000
  C   C1        1.0  0.82075  0.36610  0.64578  1.0000
  C   C2        1.0  0.67925  0.86610  0.85422  1.0000
  C   C3        1.0  0.17925  0.63390  0.35422  1.0000
  C   C4        1.0  0.32075  0.13390  0.14578  1.0000
  C   C5        1.0  0.82120  0.42927  0.62931  1.0000
  C   C6        1.0  0.67880  0.92927  0.87069  1.0000
  C   C7        1.0  0.17880  0.57073  0.37069  1.0000
  C   C8        1.0  0.32120  0.07073  0.12931  1.0000
  C   C9        1.0  0.78790  0.45157  0.56345  1.0000
  C   C10       1.0  0.71210  0.95157  0.93655  1.0000
  C   C11       1.0  0.21210  0.54843  0.43655  1.0000
  C   C12       1.0  0.28790  0.04843  0.06345  1.0000
  C   C13       1.0  0.74580  0.41701  0.50861  1.0000
  C   C14       1.0  0.75420  0.91701  0.99139  1.0000
  C   C15       1.0  0.25420  0.58299  0.49139  1.0000
  C   C16       1.0  0.24580  0.08299  0.00861  1.0000
  H   H9        1.0  0.74466  0.37655  0.51356  1.0000
  H   H10       1.0  0.75534  0.87655  0.98644  1.0000
  H   H11       1.0  0.25534  0.62345  0.48644  1.0000
  H   H12       1.0  0.24466  0.12345  0.01356  1.0000
  C   C17       1.0  0.70690  0.44168  0.44849  1.0000
  C   C18       1.0  0.79310  0.94168  0.05151  1.0000
  C   C19       1.0  0.29310  0.55832  0.55151  1.0000
  C   C20       1.0  0.20690  0.05832  0.94849  1.0000
  H   H13       1.0  0.67968  0.41792  0.41207  1.0000
  H   H14       1.0  0.82032  0.91792  0.08793  1.0000
  H   H15       1.0  0.32032  0.58208  0.58793  1.0000
  H   H16       1.0  0.17968  0.08208  0.91207  1.0000
  C   C21       1.0  0.70640  0.50161  0.43970  1.0000
  C   C22       1.0  0.79360  0.00161  0.06030  1.0000
  C   C23       1.0  0.29360  0.49839  0.56030  1.0000
  C   C24       1.0  0.20640  0.99839  0.93970  1.0000
  H   H17       1.0  0.67708  0.51803  0.39826  1.0000
  H   H18       1.0  0.82292  0.01803  0.10174  1.0000
  H   H19       1.0  0.32292  0.48197  0.60174  1.0000
  H   H20       1.0  0.17708  0.98197  0.89826  1.0000
  C   C25       1.0  0.74810  0.53602  0.49092  1.0000
  C   C26       1.0  0.75190  0.03602  0.00908  1.0000
  C   C27       1.0  0.25190  0.46398  0.50908  1.0000
  C   C28       1.0  0.24810  0.96398  0.99092  1.0000
  H   H21       1.0  0.74836  0.57637  0.48460  1.0000
  H   H22       1.0  0.75164  0.07637  0.01540  1.0000
  H   H23       1.0  0.25164  0.42363  0.51540  1.0000
  H   H24       1.0  0.24836  0.92363  0.98460  1.0000
  C   C29       1.0  0.79120  0.51222  0.55357  1.0000
  C   C30       1.0  0.70880  0.01222  0.94643  1.0000
  C   C31       1.0  0.20880  0.48778  0.44643  1.0000
  C   C32       1.0  0.29120  0.98778  0.05357  1.0000
  C   C33       1.0  0.83220  0.54756  0.60881  1.0000
  C   C34       1.0  0.66780  0.04756  0.89119  1.0000
  C   C35       1.0  0.16780  0.45244  0.39119  1.0000
  C   C36       1.0  0.33220  0.95244  0.10881  1.0000
  C   C37       1.0  0.86010  0.52445  0.67166  1.0000
  C   C38       1.0  0.63990  0.02445  0.82834  1.0000
  C   C39       1.0  0.13990  0.47555  0.32834  1.0000
  C   C40       1.0  0.36010  0.97555  0.17166  1.0000
  H   H25       1.0  0.88437  0.54878  0.70836  1.0000
  H   H26       1.0  0.61563  0.04878  0.79164  1.0000
  H   H27       1.0  0.11563  0.45122  0.29164  1.0000
  H   H28       1.0  0.38437  0.95122  0.20836  1.0000
  C   C41       1.0  0.85350  0.46519  0.68251  1.0000
  C   C42       1.0  0.64650  0.96519  0.81749  1.0000
  C   C43       1.0  0.14650  0.53481  0.31749  1.0000
  C   C44       1.0  0.35350  0.03481  0.18251  1.0000
  H   H29       1.0  0.87119  0.44996  0.72658  1.0000
  H   H30       1.0  0.62881  0.94996  0.77342  1.0000
  H   H31       1.0  0.12881  0.55004  0.27342  1.0000
  H   H32       1.0  0.37119  0.05004  0.22658  1.0000
  C   C45       1.0  0.84407  0.61055  0.60082  1.0000
  C   C46       1.0  0.65593  0.11055  0.89918  1.0000
  C   C47       1.0  0.15593  0.38945  0.39918  1.0000
  C   C48       1.0  0.34407  0.88945  0.10082  1.0000
  O   O21       1.0  0.62431  0.33055  0.88646  1.0000
  O   O22       1.0  0.87569  0.83055  0.61354  1.0000
  O   O23       1.0  0.37569  0.66945  0.11354  1.0000
  O   O24       1.0  0.12431  0.16945  0.38646  1.0000
  O   O25       1.0  0.70211  0.35246  0.80933  1.0000
  O   O26       1.0  0.79789  0.85246  0.69067  1.0000
  O   O27       1.0  0.29789  0.64754  0.19067  1.0000
  O   O28       1.0  0.20211  0.14754  0.30933  1.0000
  O   O29       1.0  0.58504  0.63550  0.91265  1.0000
  O   O30       1.0  0.91496  0.13550  0.58735  1.0000
  O   O31       1.0  0.41496  0.36450  0.08735  1.0000
  O   O32       1.0  0.08504  0.86450  0.41265  1.0000
  O   O33       1.0  0.69615  0.64072  0.86263  1.0000
  O   O34       1.0  0.80385  0.14072  0.63737  1.0000
  O   O35       1.0  0.30385  0.35928  0.13737  1.0000
  O   O36       1.0  0.19615  0.85928  0.36263  1.0000
  C   C49       1.0  0.66210  0.36514  0.85467  1.0000
  C   C50       1.0  0.83790  0.86514  0.64533  1.0000
  C   C51       1.0  0.33790  0.63486  0.14533  1.0000
  C   C52       1.0  0.16210  0.13486  0.35467  1.0000
  C   C53       1.0  0.66140  0.42804  0.87213  1.0000
  C   C54       1.0  0.83860  0.92804  0.62787  1.0000
  C   C55       1.0  0.33860  0.57196  0.12787  1.0000
  C   C56       1.0  0.16140  0.07196  0.37213  1.0000
  C   C57       1.0  0.74150  0.46022  0.88929  1.0000
  C   C58       1.0  0.75850  0.96022  0.61071  1.0000
  C   C59       1.0  0.25850  0.53978  0.11071  1.0000
  C   C60       1.0  0.24150  0.03978  0.38929  1.0000
  C   C61       1.0  0.82590  0.43376  0.89740  1.0000
  C   C62       1.0  0.67410  0.93376  0.60260  1.0000
  C   C63       1.0  0.17410  0.56624  0.10260  1.0000
  C   C64       1.0  0.32590  0.06624  0.39740  1.0000
  H   H33       1.0  0.82984  0.39394  0.88863  1.0000
  H   H34       1.0  0.67016  0.89394  0.61137  1.0000
  H   H35       1.0  0.17016  0.60606  0.11137  1.0000
  H   H36       1.0  0.32984  0.10606  0.38863  1.0000
  C   C65       1.0  0.90080  0.46501  0.91740  1.0000
  C   C66       1.0  0.59920  0.96501  0.58260  1.0000
  C   C67       1.0  0.09920  0.53499  0.08260  1.0000
  C   C68       1.0  0.40080  0.03499  0.41740  1.0000
  H   H37       1.0  0.95649  0.44701  0.92135  1.0000
  H   H38       1.0  0.54351  0.94701  0.57865  1.0000
  H   H39       1.0  0.04351  0.55299  0.07865  1.0000
  H   H40       1.0  0.45649  0.05299  0.42135  1.0000
  C   C69       1.0  0.89670  0.52393  0.93250  1.0000
  C   C70       1.0  0.60330  0.02393  0.56750  1.0000
  C   C71       1.0  0.10330  0.47607  0.06750  1.0000
  C   C72       1.0  0.39670  0.97607  0.43250  1.0000
  H   H41       1.0  0.94937  0.54476  0.94900  1.0000
  H   H42       1.0  0.55063  0.04476  0.55100  1.0000
  H   H43       1.0  0.05063  0.45524  0.05100  1.0000
  H   H44       1.0  0.44937  0.95524  0.44900  1.0000
  C   C73       1.0  0.81710  0.55106  0.92350  1.0000
  C   C74       1.0  0.68290  0.05106  0.57650  1.0000
  C   C75       1.0  0.18290  0.44894  0.07650  1.0000
  C   C76       1.0  0.31710  0.94894  0.42350  1.0000
  H   H45       1.0  0.81505  0.59091  0.93267  1.0000
  H   H46       1.0  0.68495  0.09091  0.56733  1.0000
  H   H47       1.0  0.18495  0.40909  0.06733  1.0000
  H   H48       1.0  0.31505  0.90909  0.43267  1.0000
  C   C77       1.0  0.73720  0.52031  0.90050  1.0000
  C   C78       1.0  0.76280  0.02031  0.59950  1.0000
  C   C79       1.0  0.26280  0.47969  0.09950  1.0000
  C   C80       1.0  0.23720  0.97969  0.40050  1.0000
  C   C81       1.0  0.65190  0.54731  0.88941  1.0000
  C   C82       1.0  0.84810  0.04731  0.61059  1.0000
  C   C83       1.0  0.34810  0.45269  0.11059  1.0000
  C   C84       1.0  0.15190  0.95269  0.38941  1.0000
  C   C85       1.0  0.57750  0.51451  0.87617  1.0000
  C   C86       1.0  0.92250  0.01451  0.62383  1.0000
  C   C87       1.0  0.42250  0.48549  0.12383  1.0000
  C   C88       1.0  0.07750  0.98549  0.37617  1.0000
  H   H49       1.0  0.52177  0.53241  0.87217  1.0000
  H   H50       1.0  0.97823  0.03241  0.62783  1.0000
  H   H51       1.0  0.47823  0.46759  0.12783  1.0000
  H   H52       1.0  0.02177  0.96759  0.37217  1.0000
  C   C89       1.0  0.58180  0.45445  0.86831  1.0000
  C   C90       1.0  0.91820  0.95445  0.63169  1.0000
  C   C91       1.0  0.41820  0.54555  0.13169  1.0000
  C   C92       1.0  0.08180  0.04555  0.36831  1.0000
  H   H53       1.0  0.52936  0.43231  0.86036  1.0000
  H   H54       1.0  0.97064  0.93231  0.63964  1.0000
  H   H55       1.0  0.47064  0.56769  0.13964  1.0000
  H   H56       1.0  0.02936  0.06769  0.36036  1.0000
  C   C93       1.0  0.64390  0.61128  0.88819  1.0000
  C   C94       1.0  0.85610  0.11128  0.61181  1.0000
  C   C95       1.0  0.35610  0.38872  0.11181  1.0000
  C   C96       1.0  0.14390  0.88872  0.38819  1.0000
  O   O37       1.0  0.51584  0.22017  0.83831  1.0000
  O   O38       1.0  0.98416  0.72017  0.66169  1.0000
  O   O39       1.0  0.48416  0.77983  0.16169  1.0000
  O   O40       1.0  0.01584  0.27983  0.33831  1.0000
  O   O41       1.0  0.62192  0.24166  0.78665  1.0000
  O   O42       1.0  0.87808  0.74166  0.71335  1.0000
  O   O43       1.0  0.37808  0.75834  0.21335  1.0000
  O   O44       1.0  0.12192  0.25834  0.28665  1.0000
  O   O45       1.0  0.25965  0.30100  0.51531  1.0000
  O   O46       1.0  0.24035  0.80100  0.98469  1.0000
  O   O47       1.0  0.74035  0.69900  0.48469  1.0000
  O   O48       1.0  0.75965  0.19900  0.01531  1.0000
  O   O49       1.0  0.24038  0.20847  0.50349  1.0000
  O   O50       1.0  0.25962  0.70847  0.99651  1.0000
  O   O51       1.0  0.75962  0.79153  0.49651  1.0000
  O   O52       1.0  0.74038  0.29153  0.00349  1.0000
  C   C97       1.0  0.54154  0.23188  0.78538  1.0000
  C   C98       1.0  0.95846  0.73188  0.71462  1.0000
  C   C99       1.0  0.45846  0.76812  0.21462  1.0000
  C   C100      1.0  0.04154  0.26812  0.28538  1.0000
  C   C101      1.0  0.47552  0.23472  0.72032  1.0000
  C   C102      1.0  0.02448  0.73472  0.77968  1.0000
  C   C103      1.0  0.52448  0.76528  0.27968  1.0000
  C   C104      1.0  0.97552  0.26528  0.22032  1.0000
  C   C105      1.0  0.44070  0.28631  0.69642  1.0000
  C   C106      1.0  0.05930  0.78631  0.80358  1.0000
  C   C107      1.0  0.55930  0.71369  0.30358  1.0000
  C   C108      1.0  0.94070  0.21369  0.19642  1.0000
  H   H57       1.0  0.45877  0.32029  0.72125  1.0000
  H   H58       1.0  0.04123  0.82029  0.77875  1.0000
  H   H59       1.0  0.54123  0.67971  0.27875  1.0000
  H   H60       1.0  0.95877  0.17971  0.22125  1.0000
  C   C109      1.0  0.37850  0.28956  0.63564  1.0000
  C   C110      1.0  0.12150  0.78956  0.86436  1.0000
  C   C111      1.0  0.62150  0.71044  0.36436  1.0000
  C   C112      1.0  0.87850  0.21044  0.13564  1.0000
  H   H61       1.0  0.35581  0.32611  0.62027  1.0000
  H   H62       1.0  0.14419  0.82611  0.87973  1.0000
  H   H63       1.0  0.64419  0.67389  0.37973  1.0000
  H   H64       1.0  0.85581  0.17389  0.12027  1.0000
  C   C113      1.0  0.34860  0.24179  0.59690  1.0000
  C   C114      1.0  0.15140  0.74179  0.90310  1.0000
  C   C115      1.0  0.65140  0.75821  0.40310  1.0000
  C   C116      1.0  0.84860  0.25821  0.09690  1.0000
  C   C117      1.0  0.38640  0.18653  0.62019  1.0000
  C   C118      1.0  0.11360  0.68653  0.87981  1.0000
  C   C119      1.0  0.61360  0.81347  0.37981  1.0000
  C   C120      1.0  0.88640  0.31347  0.12019  1.0000
  C   C121      1.0  0.36610  0.13470  0.58351  1.0000
  C   C122      1.0  0.13390  0.63470  0.91649  1.0000
  C   C123      1.0  0.63390  0.86530  0.41649  1.0000
  C   C124      1.0  0.86610  0.36530  0.08351  1.0000
  H   H65       1.0  0.32611  0.13551  0.54114  1.0000
  H   H66       1.0  0.17389  0.63551  0.95886  1.0000
  H   H67       1.0  0.67389  0.86449  0.45886  1.0000
  H   H68       1.0  0.82611  0.36449  0.04114  1.0000
  C   C125      1.0  0.40300  0.08356  0.60800  1.0000
  C   C126      1.0  0.09700  0.58356  0.89200  1.0000
  C   C127      1.0  0.59700  0.91644  0.39200  1.0000
  C   C128      1.0  0.90300  0.41644  0.10800  1.0000
  H   H69       1.0  0.38739  0.04944  0.58278  1.0000
  H   H70       1.0  0.11261  0.54944  0.91722  1.0000
  H   H71       1.0  0.61261  0.95056  0.41722  1.0000
  H   H72       1.0  0.88739  0.45056  0.08278  1.0000
  C   C129      1.0  0.46340  0.08103  0.66960  1.0000
  C   C130      1.0  0.03660  0.58103  0.83040  1.0000
  C   C131      1.0  0.53660  0.91897  0.33040  1.0000
  C   C132      1.0  0.96340  0.41897  0.16960  1.0000
  H   H73       1.0  0.48846  0.04529  0.68596  1.0000
  H   H74       1.0  0.01154  0.54529  0.81404  1.0000
  H   H75       1.0  0.51154  0.95471  0.31404  1.0000
  H   H76       1.0  0.98846  0.45471  0.18596  1.0000
  C   C133      1.0  0.48630  0.12967  0.70631  1.0000
  C   C134      1.0  0.01370  0.62967  0.79369  1.0000
  C   C135      1.0  0.51370  0.87033  0.29369  1.0000
  C   C136      1.0  0.98630  0.37033  0.20631  1.0000
  H   H77       1.0  0.52723  0.12748  0.74817  1.0000
  H   H78       1.0  0.97277  0.62748  0.75183  1.0000
  H   H79       1.0  0.47277  0.87252  0.25183  1.0000
  H   H80       1.0  0.02723  0.37252  0.24817  1.0000
  C   C137      1.0  0.44980  0.18363  0.68270  1.0000
  C   C138      1.0  0.05020  0.68363  0.81730  1.0000
  C   C139      1.0  0.55020  0.81637  0.31730  1.0000
  C   C140      1.0  0.94980  0.31637  0.18270  1.0000
  C   C141      1.0  0.28010  0.25053  0.53529  1.0000
  C   C142      1.0  0.21990  0.75053  0.96471  1.0000
  C   C143      1.0  0.71990  0.74947  0.46471  1.0000
  C   C144      1.0  0.78010  0.24947  0.03529  1.0000
  O   O53       1.0  0.78826  0.24512  0.87575  1.0000
  O   O54       1.0  0.71174  0.74512  0.62425  1.0000
  O   O55       1.0  0.21174  0.75488  0.12425  1.0000
  O   O56       1.0  0.28826  0.25488  0.37575  1.0000
  O   O57       1.0  0.88120  0.30316  0.84219  1.0000
  O   O58       1.0  0.61880  0.80316  0.65781  1.0000
  O   O59       1.0  0.11880  0.69684  0.15781  1.0000
  O   O60       1.0  0.38120  0.19684  0.34219  1.0000
  O   O61       1.0  0.12510  0.19155  0.16755  1.0000
  O   O62       1.0  0.37490  0.69155  0.33245  1.0000
  O   O63       1.0  0.87490  0.80845  0.83245  1.0000
  O   O64       1.0  0.62510  0.30845  0.66755  1.0000
  O   O65       1.0  0.20846  0.25584  0.13263  1.0000
  O   O66       1.0  0.29154  0.75584  0.36737  1.0000
  O   O67       1.0  0.79154  0.74416  0.86737  1.0000
  O   O68       1.0  0.70846  0.24416  0.63263  1.0000
  C   C145      1.0  0.86537  0.26872  0.88527  1.0000
  C   C146      1.0  0.63463  0.76872  0.61473  1.0000
  C   C147      1.0  0.13463  0.73128  0.11473  1.0000
  C   C148      1.0  0.36537  0.23128  0.38527  1.0000
  C   C149      1.0  0.93457  0.25406  0.94561  1.0000
  C   C150      1.0  0.56543  0.75406  0.55439  1.0000
  C   C151      1.0  0.06543  0.74594  0.05439  1.0000
  C   C152      1.0  0.43457  0.24594  0.44561  1.0000
  C   C153      1.0  0.98510  0.29836  0.97821  1.0000
  C   C154      1.0  0.51490  0.79836  0.52179  1.0000
  C   C155      1.0  0.01490  0.70164  0.02179  1.0000
  C   C156      1.0  0.48510  0.20164  0.47821  1.0000
  H   H81       1.0  0.97461  0.33639  0.96179  1.0000
  H   H82       1.0  0.52539  0.83639  0.53821  1.0000
  H   H83       1.0  0.02539  0.66361  0.03821  1.0000
  H   H84       1.0  0.47461  0.16361  0.46179  1.0000
  C   C157      1.0  0.05216  0.28800  0.03561  1.0000
  C   C158      1.0  0.44784  0.78800  0.46439  1.0000
  C   C159      1.0  0.94784  0.71200  0.96439  1.0000
  C   C160      1.0  0.55216  0.21200  0.53561  1.0000
  H   H85       1.0  0.08547  0.31921  0.05777  1.0000
  H   H86       1.0  0.41453  0.81921  0.44223  1.0000
  H   H87       1.0  0.91453  0.68079  0.94223  1.0000
  H   H88       1.0  0.58547  0.18079  0.55777  1.0000
  C   C161      1.0  0.06996  0.23301  0.05996  1.0000
  C   C162      1.0  0.43004  0.73301  0.44004  1.0000
  C   C163      1.0  0.93004  0.76699  0.94004  1.0000
  C   C164      1.0  0.56996  0.26699  0.55996  1.0000
  C   C165      1.0  0.02087  0.18577  0.02565  1.0000
  C   C166      1.0  0.47913  0.68577  0.47435  1.0000
  C   C167      1.0  0.97913  0.81423  0.97435  1.0000
  C   C168      1.0  0.52087  0.31423  0.52565  1.0000
  C   C169      1.0  0.04050  0.12810  0.04650  1.0000
  C   C170      1.0  0.45950  0.62810  0.45350  1.0000
  C   C171      1.0  0.95950  0.87190  0.95350  1.0000
  C   C172      1.0  0.54050  0.37190  0.54650  1.0000
  H   H89       1.0  0.08646  0.12064  0.08441  1.0000
  H   H90       1.0  0.41354  0.62064  0.41559  1.0000
  H   H91       1.0  0.91354  0.87936  0.91559  1.0000
  H   H92       1.0  0.58646  0.37936  0.58441  1.0000
  C   C173      1.0  0.99440  0.08349  0.01304  1.0000
  C   C174      1.0  0.50560  0.58349  0.48696  1.0000
  C   C175      1.0  0.00560  0.91651  0.98696  1.0000
  C   C176      1.0  0.49440  0.41651  0.51304  1.0000
  H   H93       1.0  0.00778  0.04539  0.02831  1.0000
  H   H94       1.0  0.49222  0.54539  0.47169  1.0000
  H   H95       1.0  0.99222  0.95461  0.97169  1.0000
  H   H96       1.0  0.50778  0.45461  0.52831  1.0000
  C   C177      1.0  0.92710  0.09344  0.95588  1.0000
  C   C178      1.0  0.57290  0.59344  0.54412  1.0000
  C   C179      1.0  0.07290  0.90656  0.04412  1.0000
  C   C180      1.0  0.42710  0.40656  0.45588  1.0000
  H   H97       1.0  0.89540  0.06200  0.93284  1.0000
  H   H98       1.0  0.60460  0.56200  0.56716  1.0000
  H   H99       1.0  0.10460  0.93800  0.06716  1.0000
  H   H100      1.0  0.39540  0.43800  0.43284  1.0000
  C   C181      1.0  0.90700  0.14824  0.93328  1.0000
  C   C182      1.0  0.59300  0.64824  0.56672  1.0000
  C   C183      1.0  0.09300  0.85176  0.06672  1.0000
  C   C184      1.0  0.40700  0.35176  0.43328  1.0000
  H   H101      1.0  0.86243  0.15428  0.89405  1.0000
  H   H102      1.0  0.63757  0.65428  0.60595  1.0000
  H   H103      1.0  0.13757  0.84572  0.10595  1.0000
  H   H104      1.0  0.36243  0.34572  0.39405  1.0000
  C   C185      1.0  0.95225  0.19628  0.96793  1.0000
  C   C186      1.0  0.54775  0.69628  0.53207  1.0000
  C   C187      1.0  0.04775  0.80372  0.03207  1.0000
  C   C188      1.0  0.45225  0.30372  0.46793  1.0000
  C   C189      1.0  0.13745  0.22509  0.12269  1.0000
  C   C190      1.0  0.36255  0.72509  0.37731  1.0000
  C   C191      1.0  0.86255  0.77491  0.87731  1.0000
  C   C192      1.0  0.63745  0.27491  0.62269  1.0000
  O   O69       1.0  0.87949  0.24278  0.71526  1.0000
  O   O70       1.0  0.62051  0.74278  0.78474  1.0000
  O   O71       1.0  0.12051  0.75722  0.28474  1.0000
  O   O72       1.0  0.37949  0.25722  0.21526  1.0000
  O   O73       1.0  0.98680  0.24569  0.66101  1.0000
  O   O74       1.0  0.51320  0.74569  0.83899  1.0000
  O   O75       1.0  0.01320  0.75431  0.33899  1.0000
  O   O76       1.0  0.48680  0.25431  0.16101  1.0000
  O   O77       1.0  0.24221  0.22487  0.99468  1.0000
  O   O78       1.0  0.25779  0.72487  0.50532  1.0000
  O   O79       1.0  0.75779  0.77513  0.00532  1.0000
  O   O80       1.0  0.74221  0.27513  0.49468  1.0000
  O   O81       1.0  0.24772  0.31888  0.99482  1.0000
  O   O82       1.0  0.25228  0.81888  0.50518  1.0000
  O   O83       1.0  0.75228  0.68112  0.00518  1.0000
  O   O84       1.0  0.74772  0.18112  0.49482  1.0000
  C   C193      1.0  0.96070  0.24879  0.71492  1.0000
  C   C194      1.0  0.53930  0.74879  0.78508  1.0000
  C   C195      1.0  0.03930  0.75121  0.28508  1.0000
  C   C196      1.0  0.46070  0.25121  0.21492  1.0000
  C   C197      1.0  0.02500  0.25780  0.77852  1.0000
  C   C198      1.0  0.47500  0.75780  0.72148  1.0000
  C   C199      1.0  0.97500  0.74220  0.22148  1.0000
  C   C200      1.0  0.52500  0.24220  0.27852  1.0000
  C   C201      1.0  0.05340  0.21149  0.82052  1.0000
  C   C202      1.0  0.44660  0.71149  0.67948  1.0000
  C   C203      1.0  0.94660  0.78851  0.17948  1.0000
  C   C204      1.0  0.55340  0.28851  0.32052  1.0000
  H   H105      1.0  0.02967  0.17449  0.80849  1.0000
  H   H106      1.0  0.47033  0.67449  0.69151  1.0000
  H   H107      1.0  0.97033  0.82551  0.19151  1.0000
  H   H108      1.0  0.52967  0.32551  0.30849  1.0000
  C   C205      1.0  0.11660  0.21864  0.88051  1.0000
  C   C206      1.0  0.38340  0.71864  0.61949  1.0000
  C   C207      1.0  0.88340  0.78136  0.11949  1.0000
  C   C208      1.0  0.61660  0.28136  0.38051  1.0000
  H   H109      1.0  0.13566  0.18591  0.90745  1.0000
  H   H110      1.0  0.36434  0.68591  0.59255  1.0000
  H   H111      1.0  0.86434  0.81409  0.09255  1.0000
  H   H112      1.0  0.63566  0.31409  0.40745  1.0000
  C   C209      1.0  0.15134  0.27037  0.90134  1.0000
  C   C210      1.0  0.34866  0.77037  0.59866  1.0000
  C   C211      1.0  0.84866  0.72963  0.09866  1.0000
  C   C212      1.0  0.65134  0.22963  0.40134  1.0000
  C   C213      1.0  0.12230  0.32108  0.86112  1.0000
  C   C214      1.0  0.37770  0.82108  0.63888  1.0000
  C   C215      1.0  0.87770  0.67892  0.13888  1.0000
  C   C216      1.0  0.62230  0.17892  0.36112  1.0000
  C   C217      1.0  0.15170  0.37786  0.87915  1.0000
  C   C218      1.0  0.34830  0.87786  0.62085  1.0000
  C   C219      1.0  0.84830  0.62214  0.12085  1.0000
  C   C220      1.0  0.65170  0.12214  0.37915  1.0000
  H   H113      1.0  0.19155  0.38434  0.92080  1.0000
  H   H114      1.0  0.30845  0.88434  0.57920  1.0000
  H   H115      1.0  0.80845  0.61566  0.07920  1.0000
  H   H116      1.0  0.69155  0.11566  0.42080  1.0000
  C   C221      1.0  0.12340  0.42348  0.83738  1.0000
  C   C222      1.0  0.37660  0.92348  0.66262  1.0000
  C   C223      1.0  0.87660  0.57652  0.16262  1.0000
  C   C224      1.0  0.62340  0.07652  0.33738  1.0000
  H   H117      1.0  0.14502  0.46086  0.85003  1.0000
  H   H118      1.0  0.35498  0.96086  0.64997  1.0000
  H   H119      1.0  0.85498  0.53914  0.14997  1.0000
  H   H120      1.0  0.64502  0.03914  0.35003  1.0000
  C   C225      1.0  0.06280  0.41535  0.77600  1.0000
  C   C226      1.0  0.43720  0.91535  0.72400  1.0000
  C   C227      1.0  0.93720  0.58465  0.22400  1.0000
  C   C228      1.0  0.56280  0.08465  0.27600  1.0000
  H   H121      1.0  0.04341  0.44712  0.74749  1.0000
  H   H122      1.0  0.45659  0.94712  0.75251  1.0000
  H   H123      1.0  0.95659  0.55288  0.25251  1.0000
  H   H124      1.0  0.54341  0.05288  0.24749  1.0000
  C   C229      1.0  0.03210  0.36196  0.75779  1.0000
  C   C230      1.0  0.46790  0.86196  0.74221  1.0000
  C   C231      1.0  0.96790  0.63804  0.24221  1.0000
  C   C232      1.0  0.53210  0.13804  0.25779  1.0000
  H   H125      1.0  0.99065  0.35694  0.71661  1.0000
  H   H126      1.0  0.50935  0.85694  0.78339  1.0000
  H   H127      1.0  0.00935  0.64306  0.28339  1.0000
  H   H128      1.0  0.49065  0.14306  0.21661  1.0000
  C   C233      1.0  0.06040  0.31345  0.79865  1.0000
  C   C234      1.0  0.43960  0.81345  0.70135  1.0000
  C   C235      1.0  0.93960  0.68655  0.20135  1.0000
  C   C236      1.0  0.56040  0.18655  0.29865  1.0000
  C   C237      1.0  0.21749  0.27234  0.96682  1.0000
  C   C238      1.0  0.28251  0.77234  0.53318  1.0000
  C   C239      1.0  0.78251  0.72766  0.03318  1.0000
  C   C240      1.0  0.71749  0.22766  0.46682  1.0000
  O   O85       1.0  0.93277  0.24295  0.51687  1.0000
  O   O86       1.0  0.56723  0.74295  0.98313  1.0000
  O   O87       1.0  0.06723  0.75705  0.48313  1.0000
  O   O88       1.0  0.43277  0.25705  0.01687  1.0000
  O   O89       1.0  0.05922  0.25184  0.48517  1.0000
  O   O90       1.0  0.44078  0.75184  0.01483  1.0000
  O   O91       1.0  0.94078  0.74816  0.51483  1.0000
  O   O92       1.0  0.55922  0.24816  0.98517  1.0000
  C   C241      1.0  0.97870  0.25958  0.47956  1.0000
  C   C242      1.0  0.52130  0.75958  0.02044  1.0000
  C   C243      1.0  0.02130  0.74042  0.52044  1.0000
  C   C244      1.0  0.47870  0.24042  0.97956  1.0000
  H   H129      1.0  0.94991  0.28104  0.44155  1.0000
  H   H130      1.0  0.55009  0.78104  0.05845  1.0000
  H   H131      1.0  0.05009  0.71896  0.55845  1.0000
  H   H132      1.0  0.44991  0.21896  0.94155  1.0000
