data_image0
_chemical_formula_structural       Hg8S24N24C24
_chemical_formula_sum              "Hg8 S24 N24 C24"
_cell_length_a       24.783
_cell_length_b       15.404
_cell_length_c       10.494
_cell_angle_alpha    90
_cell_angle_beta     108.77
_cell_angle_gamma    90

_space_group_name_H-M_alt    "P 1"
_space_group_IT_number       1

loop_
  _space_group_symop_operation_xyz
  'x, y, z'

loop_
  _atom_site_type_symbol
  _atom_site_label
  _atom_site_symmetry_multiplicity
  _atom_site_fract_x
  _atom_site_fract_y
  _atom_site_fract_z
  _atom_site_occupancy
  Hg  Hg1       1.0  0.21390  0.07988  0.02737  1.0000
  Hg  Hg2       1.0  0.78610  0.07988  0.47263  1.0000
  Hg  Hg3       1.0  0.71390  0.57988  0.02737  1.0000
  Hg  Hg4       1.0  0.28610  0.57988  0.47263  1.0000
  Hg  Hg5       1.0  0.78610  0.92012  0.97263  1.0000
  Hg  Hg6       1.0  0.21390  0.92012  0.52737  1.0000
  Hg  Hg7       1.0  0.28610  0.42012  0.97263  1.0000
  Hg  Hg8       1.0  0.71390  0.42012  0.52737  1.0000
  S   S1        1.0  0.12400  0.09290  0.84181  1.0000
  S   S2        1.0  0.87600  0.09290  0.65819  1.0000
  S   S3        1.0  0.62400  0.59290  0.84181  1.0000
  S   S4        1.0  0.37600  0.59290  0.65819  1.0000
  S   S5        1.0  0.87600  0.90710  0.15819  1.0000
  S   S6        1.0  0.12400  0.90710  0.34181  1.0000
  S   S7        1.0  0.37600  0.40710  0.15819  1.0000
  S   S8        1.0  0.62400  0.40710  0.34181  1.0000
  S   S9        1.0  0.24067  0.92193  0.08423  1.0000
  S   S10       1.0  0.75933  0.92193  0.41577  1.0000
  S   S11       1.0  0.74067  0.42193  0.08423  1.0000
  S   S12       1.0  0.25933  0.42193  0.41577  1.0000
  S   S13       1.0  0.75933  0.07807  0.91577  1.0000
  S   S14       1.0  0.24067  0.07807  0.58423  1.0000
  S   S15       1.0  0.25933  0.57807  0.91577  1.0000
  S   S16       1.0  0.74067  0.57807  0.58423  1.0000
  S   S17       1.0  0.26270  0.18824  0.19228  1.0000
  S   S18       1.0  0.73730  0.18824  0.30772  1.0000
  S   S19       1.0  0.76270  0.68824  0.19228  1.0000
  S   S20       1.0  0.23730  0.68824  0.30772  1.0000
  S   S21       1.0  0.73730  0.81176  0.80772  1.0000
  S   S22       1.0  0.26270  0.81176  0.69228  1.0000
  S   S23       1.0  0.23730  0.31176  0.80772  1.0000
  S   S24       1.0  0.76270  0.31176  0.69228  1.0000
  N   N1        1.0  0.13661  0.95151  0.69140  1.0000
  N   N2        1.0  0.86339  0.95151  0.80860  1.0000
  N   N3        1.0  0.63661  0.45151  0.69140  1.0000
  N   N4        1.0  0.36339  0.45151  0.80860  1.0000
  N   N5        1.0  0.86339  0.04849  0.30860  1.0000
  N   N6        1.0  0.13661  0.04849  0.19140  1.0000
  N   N7        1.0  0.36339  0.54849  0.30860  1.0000
  N   N8        1.0  0.63661  0.54849  0.19140  1.0000
  N   N9        1.0  0.27413  0.06950  0.86970  1.0000
  N   N10       1.0  0.72587  0.06950  0.63030  1.0000
  N   N11       1.0  0.77413  0.56950  0.86970  1.0000
  N   N12       1.0  0.22587  0.56950  0.63030  1.0000
  N   N13       1.0  0.72587  0.93050  0.13030  1.0000
  N   N14       1.0  0.27413  0.93050  0.36970  1.0000
  N   N15       1.0  0.22587  0.43050  0.13030  1.0000
  N   N16       1.0  0.77413  0.43050  0.36970  1.0000
  N   N17       1.0  0.37601  0.15690  0.21040  1.0000
  N   N18       1.0  0.62399  0.15690  0.28960  1.0000
  N   N19       1.0  0.87601  0.65690  0.21040  1.0000
  N   N20       1.0  0.12399  0.65690  0.28960  1.0000
  N   N21       1.0  0.62399  0.84310  0.78960  1.0000
  N   N22       1.0  0.37601  0.84310  0.71040  1.0000
  N   N23       1.0  0.12399  0.34310  0.78960  1.0000
  N   N24       1.0  0.87601  0.34310  0.71040  1.0000
  C   C1        1.0  0.13124  0.00893  0.75630  1.0000
  C   C2        1.0  0.86876  0.00893  0.74370  1.0000
  C   C3        1.0  0.63124  0.50893  0.75630  1.0000
  C   C4        1.0  0.36876  0.50893  0.74370  1.0000
  C   C5        1.0  0.86876  0.99107  0.24370  1.0000
  C   C6        1.0  0.13124  0.99107  0.25630  1.0000
  C   C7        1.0  0.36876  0.49107  0.24370  1.0000
  C   C8        1.0  0.63124  0.49107  0.25630  1.0000
  C   C9        1.0  0.25896  0.92918  0.25450  1.0000
  C   C10       1.0  0.74104  0.92918  0.24550  1.0000
  C   C11       1.0  0.75896  0.42918  0.25450  1.0000
  C   C12       1.0  0.24104  0.42918  0.24550  1.0000
  C   C13       1.0  0.74104  0.07082  0.74550  1.0000
  C   C14       1.0  0.25896  0.07082  0.75450  1.0000
  C   C15       1.0  0.24104  0.57082  0.74550  1.0000
  C   C16       1.0  0.75896  0.57082  0.75450  1.0000
  C   C17       1.0  0.32947  0.16840  0.19840  1.0000
  C   C18       1.0  0.67053  0.16840  0.30160  1.0000
  C   C19       1.0  0.82947  0.66840  0.19840  1.0000
  C   C20       1.0  0.17053  0.66840  0.30160  1.0000
  C   C21       1.0  0.67053  0.83160  0.80160  1.0000
  C   C22       1.0  0.32947  0.83160  0.69840  1.0000
  C   C23       1.0  0.17053  0.33160  0.80160  1.0000
  C   C24       1.0  0.82947  0.33160  0.69840  1.0000
