data_image0
_chemical_formula_structural       Zn8P8O8H8O40C24H8C8H8
_chemical_formula_sum              "Zn8 P8 O48 H24 C32"
_cell_length_a       9.7585
_cell_length_b       27.6003
_cell_length_c       8.4144
_cell_angle_alpha    90
_cell_angle_beta     90
_cell_angle_gamma    90

_space_group_name_H-M_alt    "P 1"
_space_group_IT_number       1

loop_
  _space_group_symop_operation_xyz
  'x, y, z'

loop_
  _atom_site_type_symbol
  _atom_site_label
  _atom_site_symmetry_multiplicity
  _atom_site_fract_x
  _atom_site_fract_y
  _atom_site_fract_z
  _atom_site_occupancy
  Zn  Zn1       1.0  0.08854  0.44712  0.17934  1.0000
  Zn  Zn2       1.0  0.41146  0.55288  0.67934  1.0000
  Zn  Zn3       1.0  0.91146  0.94712  0.82066  1.0000
  Zn  Zn4       1.0  0.58854  0.05288  0.32066  1.0000
  Zn  Zn5       1.0  0.91146  0.55288  0.82066  1.0000
  Zn  Zn6       1.0  0.58854  0.44712  0.32066  1.0000
  Zn  Zn7       1.0  0.08854  0.05288  0.17934  1.0000
  Zn  Zn8       1.0  0.41146  0.94712  0.67934  1.0000
  P   P1        1.0  0.80194  0.48368  0.07751  1.0000
  P   P2        1.0  0.69806  0.51632  0.57751  1.0000
  P   P3        1.0  0.19806  0.98368  0.92249  1.0000
  P   P4        1.0  0.30194  0.01632  0.42249  1.0000
  P   P5        1.0  0.19806  0.51632  0.92249  1.0000
  P   P6        1.0  0.30194  0.48368  0.42249  1.0000
  P   P7        1.0  0.80194  0.01632  0.07751  1.0000
  P   P8        1.0  0.69806  0.98368  0.57751  1.0000
  O   O1        1.0  0.81797  0.44890  0.92800  1.0000
  O   O2        1.0  0.68203  0.55110  0.42800  1.0000
  O   O3        1.0  0.18203  0.94890  0.07200  1.0000
  O   O4        1.0  0.31797  0.05110  0.57200  1.0000
  O   O5        1.0  0.18203  0.55110  0.07200  1.0000
  O   O6        1.0  0.31797  0.44890  0.57200  1.0000
  O   O7        1.0  0.81797  0.05110  0.92800  1.0000
  O   O8        1.0  0.68203  0.94890  0.42800  1.0000
  H   H1        1.0  0.86380  0.42020  0.95660  1.0000
  H   H2        1.0  0.63620  0.57980  0.45660  1.0000
  H   H3        1.0  0.13620  0.92020  0.04340  1.0000
  H   H4        1.0  0.36380  0.07980  0.54340  1.0000
  H   H5        1.0  0.13620  0.57980  0.04340  1.0000
  H   H6        1.0  0.36380  0.42020  0.54340  1.0000
  H   H7        1.0  0.86380  0.07980  0.95660  1.0000
  H   H8        1.0  0.63620  0.92020  0.45660  1.0000
  O   O9        1.0  0.65271  0.47945  0.12917  1.0000
  O   O10       1.0  0.84729  0.52055  0.62917  1.0000
  O   O11       1.0  0.34729  0.97945  0.87083  1.0000
  O   O12       1.0  0.15271  0.02055  0.37083  1.0000
  O   O13       1.0  0.34729  0.52055  0.87083  1.0000
  O   O14       1.0  0.15271  0.47945  0.37083  1.0000
  O   O15       1.0  0.65271  0.02055  0.12917  1.0000
  O   O16       1.0  0.84729  0.97945  0.62917  1.0000
  O   O17       1.0  0.83103  0.53458  0.02082  1.0000
  O   O18       1.0  0.66897  0.46542  0.52082  1.0000
  O   O19       1.0  0.16897  0.03458  0.97918  1.0000
  O   O20       1.0  0.33103  0.96542  0.47918  1.0000
  O   O21       1.0  0.16897  0.46542  0.97918  1.0000
  O   O22       1.0  0.33103  0.53458  0.47918  1.0000
  O   O23       1.0  0.83103  0.96542  0.02082  1.0000
  O   O24       1.0  0.66897  0.03458  0.52082  1.0000
  O   O25       1.0  0.89764  0.46692  0.20722  1.0000
  O   O26       1.0  0.60236  0.53308  0.70722  1.0000
  O   O27       1.0  0.10236  0.96692  0.79278  1.0000
  O   O28       1.0  0.39764  0.03308  0.29278  1.0000
  O   O29       1.0  0.10236  0.53308  0.79278  1.0000
  O   O30       1.0  0.39764  0.46692  0.29278  1.0000
  O   O31       1.0  0.89764  0.03308  0.20722  1.0000
  O   O32       1.0  0.60236  0.96692  0.70722  1.0000
  O   O33       1.0  0.10090  0.37651  0.19690  1.0000
  O   O34       1.0  0.39910  0.62349  0.69690  1.0000
  O   O35       1.0  0.89910  0.87651  0.80310  1.0000
  O   O36       1.0  0.60090  0.12349  0.30310  1.0000
  O   O37       1.0  0.89910  0.62349  0.80310  1.0000
  O   O38       1.0  0.60090  0.37651  0.30310  1.0000
  O   O39       1.0  0.10090  0.12349  0.19690  1.0000
  O   O40       1.0  0.39910  0.87651  0.69690  1.0000
  O   O41       1.0  0.96560  0.37404  0.98370  1.0000
  O   O42       1.0  0.53440  0.62596  0.48370  1.0000
  O   O43       1.0  0.03440  0.87404  0.01630  1.0000
  O   O44       1.0  0.46560  0.12596  0.51630  1.0000
  O   O45       1.0  0.03440  0.62596  0.01630  1.0000
  O   O46       1.0  0.46560  0.37404  0.51630  1.0000
  O   O47       1.0  0.96560  0.12596  0.98370  1.0000
  O   O48       1.0  0.53440  0.87404  0.48370  1.0000
  C   C1        1.0  0.03260  0.35441  0.09230  1.0000
  C   C2        1.0  0.46740  0.64559  0.59230  1.0000
  C   C3        1.0  0.96740  0.85441  0.90770  1.0000
  C   C4        1.0  0.53260  0.14559  0.40770  1.0000
  C   C5        1.0  0.96740  0.64559  0.90770  1.0000
  C   C6        1.0  0.53260  0.35441  0.40770  1.0000
  C   C7        1.0  0.03260  0.14559  0.09230  1.0000
  C   C8        1.0  0.46740  0.85441  0.59230  1.0000
  C   C9        1.0  0.03350  0.30012  0.09690  1.0000
  C   C10       1.0  0.46650  0.69988  0.59690  1.0000
  C   C11       1.0  0.96650  0.80012  0.90310  1.0000
  C   C12       1.0  0.53350  0.19988  0.40310  1.0000
  C   C13       1.0  0.96650  0.69988  0.90310  1.0000
  C   C14       1.0  0.53350  0.30012  0.40310  1.0000
  C   C15       1.0  0.03350  0.19988  0.09690  1.0000
  C   C16       1.0  0.46650  0.80012  0.59690  1.0000
  C   C17       1.0  0.13150  0.27514  0.18340  1.0000
  C   C18       1.0  0.36850  0.72486  0.68340  1.0000
  C   C19       1.0  0.86850  0.77514  0.81660  1.0000
  C   C20       1.0  0.63150  0.22486  0.31660  1.0000
  C   C21       1.0  0.86850  0.72486  0.81660  1.0000
  C   C22       1.0  0.63150  0.27514  0.31660  1.0000
  C   C23       1.0  0.13150  0.22486  0.18340  1.0000
  C   C24       1.0  0.36850  0.77514  0.68340  1.0000
  H   H9        1.0  0.19710  0.29200  0.24130  1.0000
  H   H10       1.0  0.30290  0.70800  0.74130  1.0000
  H   H11       1.0  0.80290  0.79200  0.75870  1.0000
  H   H12       1.0  0.69710  0.20800  0.25870  1.0000
  H   H13       1.0  0.80290  0.70800  0.75870  1.0000
  H   H14       1.0  0.69710  0.29200  0.25870  1.0000
  H   H15       1.0  0.19710  0.20800  0.24130  1.0000
  H   H16       1.0  0.30290  0.79200  0.74130  1.0000
  C   C25       1.0  0.93520  0.27500  0.01180  1.0000
  C   C26       1.0  0.56480  0.72500  0.51180  1.0000
  C   C27       1.0  0.06480  0.77500  0.98820  1.0000
  C   C28       1.0  0.43520  0.22500  0.48820  1.0000
  C   C29       1.0  0.06480  0.72500  0.98820  1.0000
  C   C30       1.0  0.43520  0.27500  0.48820  1.0000
  C   C31       1.0  0.93520  0.22500  0.01180  1.0000
  C   C32       1.0  0.56480  0.77500  0.51180  1.0000
  H   H17       1.0  0.86910  0.29180  0.95450  1.0000
  H   H18       1.0  0.63090  0.70820  0.45450  1.0000
  H   H19       1.0  0.13090  0.79180  0.04550  1.0000
  H   H20       1.0  0.36910  0.20820  0.54550  1.0000
  H   H21       1.0  0.13090  0.70820  0.04550  1.0000
  H   H22       1.0  0.36910  0.29180  0.54550  1.0000
  H   H23       1.0  0.86910  0.20820  0.95450  1.0000
  H   H24       1.0  0.63090  0.79180  0.45450  1.0000
