data_image0
_chemical_formula_structural       Zn8P8O20H4O24H4O4C12H4C4H4C4H4C4H4C8
_chemical_formula_sum              "Zn8 P8 O48 H24 C32"
_cell_length_a       26.8117
_cell_length_b       8.999
_cell_length_c       9.4291
_cell_angle_alpha    90
_cell_angle_beta     91.806
_cell_angle_gamma    90

_space_group_name_H-M_alt    "P 1"
_space_group_IT_number       1

loop_
  _space_group_symop_operation_xyz
  'x, y, z'

loop_
  _atom_site_type_symbol
  _atom_site_label
  _atom_site_symmetry_multiplicity
  _atom_site_fract_x
  _atom_site_fract_y
  _atom_site_fract_z
  _atom_site_occupancy
  Zn  Zn1       1.0  0.05408  0.31457  0.10784  1.0000
  Zn  Zn2       1.0  0.94592  0.81457  0.39216  1.0000
  Zn  Zn3       1.0  0.94592  0.68543  0.89216  1.0000
  Zn  Zn4       1.0  0.05408  0.18543  0.60784  1.0000
  Zn  Zn5       1.0  0.45702  0.55296  0.28587  1.0000
  Zn  Zn6       1.0  0.54298  0.05296  0.21413  1.0000
  Zn  Zn7       1.0  0.54298  0.44704  0.71413  1.0000
  Zn  Zn8       1.0  0.45702  0.94704  0.78587  1.0000
  P   P1        1.0  0.97636  0.55768  0.19073  1.0000
  P   P2        1.0  0.02364  0.05768  0.30927  1.0000
  P   P3        1.0  0.02364  0.44232  0.80927  1.0000
  P   P4        1.0  0.97636  0.94232  0.69073  1.0000
  P   P5        1.0  0.49452  0.72194  0.55038  1.0000
  P   P6        1.0  0.50548  0.22194  0.94962  1.0000
  P   P7        1.0  0.50548  0.27806  0.44962  1.0000
  P   P8        1.0  0.49452  0.77806  0.05038  1.0000
  O   O1        1.0  0.12604  0.31620  0.13630  1.0000
  O   O2        1.0  0.87396  0.81620  0.36370  1.0000
  O   O3        1.0  0.87396  0.68380  0.86370  1.0000
  O   O4        1.0  0.12604  0.18380  0.63630  1.0000
  O   O5        1.0  0.14290  0.49660  0.98420  1.0000
  O   O6        1.0  0.85710  0.99660  0.51580  1.0000
  O   O7        1.0  0.85710  0.50340  0.01580  1.0000
  O   O8        1.0  0.14290  0.00340  0.48420  1.0000
  O   O9        1.0  0.37293  0.33770  0.39110  1.0000
  O   O10       1.0  0.62707  0.83770  0.10890  1.0000
  O   O11       1.0  0.62707  0.66230  0.60890  1.0000
  O   O12       1.0  0.37293  0.16230  0.89110  1.0000
  O   O13       1.0  0.38865  0.50570  0.22440  1.0000
  O   O14       1.0  0.61135  0.00570  0.27560  1.0000
  O   O15       1.0  0.61135  0.49430  0.77560  1.0000
  O   O16       1.0  0.38865  0.99430  0.72440  1.0000
  O   O17       1.0  0.93896  0.42920  0.14640  1.0000
  O   O18       1.0  0.06104  0.92920  0.35360  1.0000
  O   O19       1.0  0.06104  0.57080  0.85360  1.0000
  O   O20       1.0  0.93896  0.07080  0.64640  1.0000
  H   H1        1.0  0.91380  0.44910  0.09740  1.0000
  H   H2        1.0  0.08620  0.94910  0.40260  1.0000
  H   H3        1.0  0.08620  0.55090  0.90260  1.0000
  H   H4        1.0  0.91380  0.05090  0.59740  1.0000
  O   O21       1.0  0.96329  0.61290  0.33841  1.0000
  O   O22       1.0  0.03671  0.11290  0.16159  1.0000
  O   O23       1.0  0.03671  0.38710  0.66159  1.0000
  O   O24       1.0  0.96329  0.88710  0.83841  1.0000
  O   O25       1.0  0.97284  0.68360  0.08485  1.0000
  O   O26       1.0  0.02716  0.18360  0.41515  1.0000
  O   O27       1.0  0.02716  0.31640  0.91515  1.0000
  O   O28       1.0  0.97284  0.81640  0.58485  1.0000
  O   O29       1.0  0.02781  0.48700  0.20340  1.0000
  O   O30       1.0  0.97219  0.98700  0.29660  1.0000
  O   O31       1.0  0.97219  0.51300  0.79660  1.0000
  O   O32       1.0  0.02781  0.01300  0.70340  1.0000
  O   O33       1.0  0.45256  0.69680  0.43951  1.0000
  O   O34       1.0  0.54744  0.19680  0.06049  1.0000
  O   O35       1.0  0.54744  0.30320  0.56049  1.0000
  O   O36       1.0  0.45256  0.80320  0.93951  1.0000
  O   O37       1.0  0.48808  0.87485  0.61677  1.0000
  O   O38       1.0  0.51192  0.37485  0.88323  1.0000
  O   O39       1.0  0.51192  0.12515  0.38323  1.0000
  O   O40       1.0  0.48808  0.62515  0.11677  1.0000
  O   O41       1.0  0.54454  0.72530  0.46650  1.0000
  O   O42       1.0  0.45546  0.22530  0.03350  1.0000
  O   O43       1.0  0.45546  0.27470  0.53350  1.0000
  O   O44       1.0  0.54454  0.77470  0.96650  1.0000
  H   H5        1.0  0.57110  0.68300  0.50790  1.0000
  H   H6        1.0  0.42890  0.18300  0.99210  1.0000
  H   H7        1.0  0.42890  0.31700  0.49210  1.0000
  H   H8        1.0  0.57110  0.81700  0.00790  1.0000
  O   O45       1.0  0.49681  0.60140  0.66156  1.0000
  O   O46       1.0  0.50319  0.10140  0.83844  1.0000
  O   O47       1.0  0.50319  0.39860  0.33844  1.0000
  O   O48       1.0  0.49681  0.89860  0.16156  1.0000
  C   C1        1.0  0.15489  0.40730  0.07820  1.0000
  C   C2        1.0  0.84511  0.90730  0.42180  1.0000
  C   C3        1.0  0.84511  0.59270  0.92180  1.0000
  C   C4        1.0  0.15489  0.09270  0.57820  1.0000
  C   C5        1.0  0.20837  0.40510  0.13280  1.0000
  C   C6        1.0  0.79163  0.90510  0.36720  1.0000
  C   C7        1.0  0.79163  0.59490  0.86720  1.0000
  C   C8        1.0  0.20837  0.09490  0.63280  1.0000
  C   C9        1.0  0.24186  0.50630  0.07870  1.0000
  C   C10       1.0  0.75814  0.00630  0.42130  1.0000
  C   C11       1.0  0.75814  0.49370  0.92130  1.0000
  C   C12       1.0  0.24186  0.99370  0.57870  1.0000
  H   H9        1.0  0.23140  0.57220  0.00790  1.0000
  H   H10       1.0  0.76860  0.07220  0.49210  1.0000
  H   H11       1.0  0.76860  0.42780  0.99210  1.0000
  H   H12       1.0  0.23140  0.92780  0.50790  1.0000
  C   C13       1.0  0.29086  0.50950  0.13010  1.0000
  C   C14       1.0  0.70914  0.00950  0.36990  1.0000
  C   C15       1.0  0.70914  0.49050  0.86990  1.0000
  C   C16       1.0  0.29086  0.99050  0.63010  1.0000
  H   H13       1.0  0.31310  0.57780  0.09360  1.0000
  H   H14       1.0  0.68690  0.07780  0.40640  1.0000
  H   H15       1.0  0.68690  0.42220  0.90640  1.0000
  H   H16       1.0  0.31310  0.92220  0.59360  1.0000
  C   C17       1.0  0.22423  0.30750  0.23890  1.0000
  C   C18       1.0  0.77577  0.80750  0.26110  1.0000
  C   C19       1.0  0.77577  0.69250  0.76110  1.0000
  C   C20       1.0  0.22423  0.19250  0.73890  1.0000
  H   H17       1.0  0.20190  0.23960  0.27580  1.0000
  H   H18       1.0  0.79810  0.73960  0.22420  1.0000
  H   H19       1.0  0.79810  0.76040  0.72420  1.0000
  H   H20       1.0  0.20190  0.26040  0.77580  1.0000
  C   C21       1.0  0.27327  0.31120  0.29010  1.0000
  C   C22       1.0  0.72673  0.81120  0.20990  1.0000
  C   C23       1.0  0.72673  0.68880  0.70990  1.0000
  C   C24       1.0  0.27327  0.18880  0.79010  1.0000
  H   H21       1.0  0.28370  0.24590  0.36150  1.0000
  H   H22       1.0  0.71630  0.74590  0.13850  1.0000
  H   H23       1.0  0.71630  0.75410  0.63850  1.0000
  H   H24       1.0  0.28370  0.25410  0.86150  1.0000
  C   C25       1.0  0.30688  0.41150  0.23540  1.0000
  C   C26       1.0  0.69312  0.91150  0.26460  1.0000
  C   C27       1.0  0.69312  0.58850  0.76460  1.0000
  C   C28       1.0  0.30688  0.08850  0.73540  1.0000
  C   C29       1.0  0.36039  0.41720  0.29010  1.0000
  C   C30       1.0  0.63961  0.91720  0.20990  1.0000
  C   C31       1.0  0.63961  0.58280  0.70990  1.0000
  C   C32       1.0  0.36039  0.08280  0.79010  1.0000
