data_image0
_chemical_formula_structural       U2S8O12H2O8H2O8H2O8H2C4H2C4H2C6H4C4H2C4H2C6H4C4H2C4H2C6H4C4H2C4H2C6H4
_chemical_formula_sum              "U2 S8 O36 H40 C56"
_cell_length_a       11.7485
_cell_length_b       11.7636
_cell_length_c       16.8054
_cell_angle_alpha    73.176
_cell_angle_beta     89.985
_cell_angle_gamma    89.854

_space_group_name_H-M_alt    "P 1"
_space_group_IT_number       1

loop_
  _space_group_symop_operation_xyz
  'x, y, z'

loop_
  _atom_site_type_symbol
  _atom_site_label
  _atom_site_symmetry_multiplicity
  _atom_site_fract_x
  _atom_site_fract_y
  _atom_site_fract_z
  _atom_site_occupancy
  U   U1        1.0  0.24916  0.15778  0.26547  1.0000
  U   U2        1.0  0.75084  0.84222  0.73453  1.0000
  S   S1        1.0  0.98610  0.22900  0.28300  1.0000
  S   S2        1.0  0.01390  0.77100  0.71700  1.0000
  S   S3        1.0  0.34880  0.42650  0.29590  1.0000
  S   S4        1.0  0.65120  0.57350  0.70410  1.0000
  S   S5        1.0  0.53710  0.04390  0.27250  1.0000
  S   S6        1.0  0.46290  0.95610  0.72750  1.0000
  S   S7        1.0  0.17130  0.86730  0.25581  1.0000
  S   S8        1.0  0.82870  0.13270  0.74419  1.0000
  O   O1        1.0  0.22650  0.25030  0.16380  1.0000
  O   O2        1.0  0.77350  0.74970  0.83620  1.0000
  O   O3        1.0  0.24120  0.07600  0.36910  1.0000
  O   O4        1.0  0.75880  0.92400  0.63090  1.0000
  O   O5        1.0  0.02980  0.13530  0.25680  1.0000
  O   O6        1.0  0.97020  0.86470  0.74320  1.0000
  O   O7        1.0  0.08780  0.27450  0.32000  1.0000
  O   O8        1.0  0.91220  0.72550  0.68000  1.0000
  O   O9        1.0  0.90070  0.19570  0.35260  1.0000
  O   O10       1.0  0.09930  0.80430  0.64740  1.0000
  O   O11       1.0  0.81030  0.59960  0.99170  1.0000
  O   O12       1.0  0.18970  0.40040  0.00830  1.0000
  H   H1        1.0  0.85710  0.66500  0.99460  1.0000
  H   H2        1.0  0.14290  0.33500  0.00540  1.0000
  O   O13       1.0  0.34420  0.30830  0.30600  1.0000
  O   O14       1.0  0.65580  0.69170  0.69400  1.0000
  O   O15       1.0  0.23020  0.49160  0.27710  1.0000
  O   O16       1.0  0.76980  0.50840  0.72290  1.0000
  O   O17       1.0  0.38710  0.45640  0.36570  1.0000
  O   O18       1.0  0.61290  0.54360  0.63430  1.0000
  O   O19       1.0  0.59820  0.66850  0.99340  1.0000
  O   O20       1.0  0.40180  0.33150  0.00660  1.0000
  H   H3        1.0  0.66070  0.61760  0.99510  1.0000
  H   H4        1.0  0.33930  0.38240  0.00490  1.0000
  O   O21       1.0  0.42550  0.11820  0.23550  1.0000
  O   O22       1.0  0.57450  0.88180  0.76450  1.0000
  O   O23       1.0  0.51000  0.95260  0.33410  1.0000
  O   O24       1.0  0.49000  0.04740  0.66590  1.0000
  O   O25       1.0  0.61900  0.12840  0.28200  1.0000
  O   O26       1.0  0.38100  0.87160  0.71800  1.0000
  O   O27       1.0  0.66780  0.88820  0.98510  1.0000
  O   O28       1.0  0.33220  0.11180  0.01490  1.0000
  H   H5        1.0  0.64780  0.80840  0.99340  1.0000
  H   H6        1.0  0.35220  0.19160  0.00660  1.0000
  O   O29       1.0  0.21490  0.99090  0.22180  1.0000
  O   O30       1.0  0.78510  0.00910  0.77820  1.0000
  O   O31       1.0  0.10540  0.85670  0.32920  1.0000
  O   O32       1.0  0.89460  0.14330  0.67080  1.0000
  O   O33       1.0  0.26000  0.78300  0.26510  1.0000
  O   O34       1.0  0.74000  0.21700  0.73490  1.0000
  O   O35       1.0  0.88140  0.81880  0.98130  1.0000
  O   O36       1.0  0.11860  0.18120  0.01870  1.0000
  H   H7        1.0  0.81780  0.84470  0.99760  1.0000
  H   H8        1.0  0.18220  0.15530  0.00240  1.0000
  C   C1        1.0  0.95910  0.52910  0.09240  1.0000
  C   C2        1.0  0.04090  0.47090  0.90760  1.0000
  C   C3        1.0  0.99710  0.44120  0.16110  1.0000
  C   C4        1.0  0.00290  0.55880  0.83890  1.0000
  H   H9        1.0  0.07030  0.44470  0.18130  1.0000
  H   H10       1.0  0.92970  0.55530  0.81870  1.0000
  C   C5        1.0  0.92610  0.34780  0.19990  1.0000
  C   C6        1.0  0.07390  0.65220  0.80010  1.0000
  C   C7        1.0  0.81640  0.33880  0.17180  1.0000
  C   C8        1.0  0.18360  0.66120  0.82820  1.0000
  H   H11       1.0  0.77010  0.27540  0.19870  1.0000
  H   H12       1.0  0.22990  0.72460  0.80130  1.0000
  C   C9        1.0  0.77730  0.42610  0.10320  1.0000
  C   C10       1.0  0.22270  0.57390  0.89680  1.0000
  C   C11       1.0  0.84780  0.51900  0.06350  1.0000
  C   C12       1.0  0.15220  0.48100  0.93650  1.0000
  C   C13       1.0  0.65770  0.41970  0.07120  1.0000
  C   C14       1.0  0.34230  0.58030  0.92880  1.0000
  H   H13       1.0  0.63470  0.33710  0.08550  1.0000
  H   H14       1.0  0.36530  0.66290  0.91450  1.0000
  H   H15       1.0  0.65810  0.45040  0.01110  1.0000
  H   H16       1.0  0.34190  0.54960  0.98890  1.0000
  C   C15       1.0  0.56950  0.48910  0.10590  1.0000
  C   C16       1.0  0.43050  0.51090  0.89410  1.0000
  C   C17       1.0  0.51060  0.42810  0.17700  1.0000
  C   C18       1.0  0.48940  0.57190  0.82300  1.0000
  H   H17       1.0  0.52330  0.34770  0.20260  1.0000
  H   H18       1.0  0.47670  0.65230  0.79740  1.0000
  C   C19       1.0  0.43210  0.49220  0.20800  1.0000
  C   C20       1.0  0.56790  0.50780  0.79200  1.0000
  C   C21       1.0  0.41220  0.61460  0.17150  1.0000
  C   C22       1.0  0.58780  0.38540  0.82850  1.0000
  H   H19       1.0  0.36000  0.65490  0.19510  1.0000
  H   H20       1.0  0.64000  0.34510  0.80490  1.0000
  C   C23       1.0  0.47070  0.67380  0.10100  1.0000
  C   C24       1.0  0.52930  0.32620  0.89900  1.0000
  C   C25       1.0  0.54670  0.60880  0.06750  1.0000
  C   C26       1.0  0.45330  0.39120  0.93250  1.0000
  C   C27       1.0  0.45010  0.80710  0.06110  1.0000
  C   C28       1.0  0.54990  0.19290  0.93890  1.0000
  H   H21       1.0  0.45750  0.82510  0.00130  1.0000
  H   H22       1.0  0.54250  0.17490  0.99870  1.0000
  H   H23       1.0  0.37300  0.82660  0.07320  1.0000
  H   H24       1.0  0.62700  0.17340  0.92680  1.0000
  C   C29       1.0  0.53320  0.88370  0.09250  1.0000
  C   C30       1.0  0.46680  0.11630  0.90750  1.0000
  C   C31       1.0  0.50490  0.92090  0.16020  1.0000
  C   C32       1.0  0.49510  0.07910  0.83980  1.0000
  H   H25       1.0  0.43530  0.89830  0.18620  1.0000
  H   H26       1.0  0.56470  0.10170  0.81380  1.0000
  C   C33       1.0  0.57790  0.99170  0.19100  1.0000
  C   C34       1.0  0.42210  0.00830  0.80900  1.0000
  C   C35       1.0  0.68470  0.02030  0.15440  1.0000
  C   C36       1.0  0.31530  0.97970  0.84560  1.0000
  H   H27       1.0  0.73560  0.06390  0.17610  1.0000
  H   H28       1.0  0.26440  0.93610  0.82390  1.0000
  C   C37       1.0  0.71460  0.98440  0.08700  1.0000
  C   C38       1.0  0.28540  0.01560  0.91300  1.0000
  C   C39       1.0  0.63800  0.91760  0.05630  1.0000
  C   C40       1.0  0.36200  0.08240  0.94370  1.0000
  C   C41       1.0  0.83260  0.01690  0.04730  1.0000
  C   C42       1.0  0.16740  0.98310  0.95270  1.0000
  H   H29       1.0  0.82630  0.02940  0.98790  1.0000
  H   H30       1.0  0.17370  0.97060  0.01210  1.0000
  H   H31       1.0  0.85670  0.09120  0.05600  1.0000
  H   H32       1.0  0.14330  0.90880  0.94400  1.0000
  C   C43       1.0  0.92240  0.92420  0.08140  1.0000
  C   C44       1.0  0.07760  0.07580  0.91860  1.0000
  C   C45       1.0  0.99360  0.93560  0.14570  1.0000
  C   C46       1.0  0.00640  0.06440  0.85430  1.0000
  H   H33       1.0  0.98470  0.99930  0.16760  1.0000
  H   H34       1.0  0.01530  0.00070  0.83240  1.0000
  C   C47       1.0  0.07720  0.85090  0.17640  1.0000
  C   C48       1.0  0.92280  0.14910  0.82360  1.0000
  C   C49       1.0  0.09150  0.75280  0.14730  1.0000
  C   C50       1.0  0.90850  0.24720  0.85270  1.0000
  H   H35       1.0  0.14700  0.69620  0.17020  1.0000
  H   H36       1.0  0.85300  0.30380  0.82980  1.0000
  C   C51       1.0  0.02220  0.74000  0.08370  1.0000
  C   C52       1.0  0.97780  0.26000  0.91630  1.0000
  C   C53       1.0  0.94160  0.82790  0.05060  1.0000
  C   C54       1.0  0.05840  0.17210  0.94940  1.0000
  C   C55       1.0  0.03860  0.63160  0.05090  1.0000
  C   C56       1.0  0.96140  0.36840  0.94910  1.0000
  H   H37       1.0  0.02520  0.65550  0.99140  1.0000
  H   H38       1.0  0.97480  0.34450  0.00860  1.0000
  H   H39       1.0  0.11680  0.60440  0.06030  1.0000
  H   H40       1.0  0.88320  0.39560  0.93970  1.0000
