data_image0
_chemical_formula_structural       Zn4O24C12
_chemical_formula_sum              "Zn4 O24 C12"
_cell_length_a       10.108
_cell_length_b       15.6
_cell_length_c       9.768
_cell_angle_alpha    90
_cell_angle_beta     105.289
_cell_angle_gamma    90

_space_group_name_H-M_alt    "P 1"
_space_group_IT_number       1

loop_
  _space_group_symop_operation_xyz
  'x, y, z'

loop_
  _atom_site_type_symbol
  _atom_site_label
  _atom_site_symmetry_multiplicity
  _atom_site_fract_x
  _atom_site_fract_y
  _atom_site_fract_z
  _atom_site_occupancy
  Zn  Zn1       1.0  0.98088  0.67564  0.97714  1.0000
  Zn  Zn2       1.0  0.01912  0.17564  0.52286  1.0000
  Zn  Zn3       1.0  0.01912  0.32436  0.02286  1.0000
  Zn  Zn4       1.0  0.98088  0.82436  0.47714  1.0000
  O   O1        1.0  0.10100  0.68028  0.83137  1.0000
  O   O2        1.0  0.89900  0.18028  0.66863  1.0000
  O   O3        1.0  0.89900  0.31972  0.16863  1.0000
  O   O4        1.0  0.10100  0.81972  0.33137  1.0000
  O   O5        1.0  0.09125  0.73387  0.61766  1.0000
  O   O6        1.0  0.90875  0.23387  0.88234  1.0000
  O   O7        1.0  0.90875  0.26613  0.38234  1.0000
  O   O8        1.0  0.09125  0.76613  0.11766  1.0000
  O   O9        1.0  0.85877  0.75436  0.82405  1.0000
  O   O10       1.0  0.14123  0.25436  0.67595  1.0000
  O   O11       1.0  0.14123  0.24564  0.17595  1.0000
  O   O12       1.0  0.85877  0.74564  0.32405  1.0000
  O   O13       1.0  0.85629  0.81470  0.61629  1.0000
  O   O14       1.0  0.14371  0.31470  0.88371  1.0000
  O   O15       1.0  0.14371  0.18530  0.38371  1.0000
  O   O16       1.0  0.85629  0.68530  0.11629  1.0000
  O   O17       1.0  0.10933  0.57850  0.09459  1.0000
  O   O18       1.0  0.89067  0.07850  0.40541  1.0000
  O   O19       1.0  0.89067  0.42150  0.90541  1.0000
  O   O20       1.0  0.10933  0.92150  0.59459  1.0000
  O   O21       1.0  0.12046  0.43624  0.11663  1.0000
  O   O22       1.0  0.87954  0.93624  0.38337  1.0000
  O   O23       1.0  0.87954  0.56376  0.88337  1.0000
  O   O24       1.0  0.12046  0.06376  0.61663  1.0000
  C   C1        1.0  0.04545  0.72346  0.72317  1.0000
  C   C2        1.0  0.95455  0.22346  0.77683  1.0000
  C   C3        1.0  0.95455  0.27654  0.27683  1.0000
  C   C4        1.0  0.04545  0.77654  0.22317  1.0000
  C   C5        1.0  0.90720  0.76846  0.72129  1.0000
  C   C6        1.0  0.09280  0.26846  0.77871  1.0000
  C   C7        1.0  0.09280  0.23154  0.27871  1.0000
  C   C8        1.0  0.90720  0.73154  0.22129  1.0000
  C   C9        1.0  0.06666  0.50511  0.06110  1.0000
  C   C10       1.0  0.93334  0.00511  0.43890  1.0000
  C   C11       1.0  0.93334  0.49489  0.93890  1.0000
  C   C12       1.0  0.06666  0.99489  0.56110  1.0000
