data_image0
_chemical_formula_structural       B2W24Ni2O4H4O78C2H2C2H2C4H2C2H2C6H2C2H2C2H2C2H2C2H2C2H2C2H2C2H2C2H2C2H2C2H2N12
_chemical_formula_sum              "B2 W24 Ni2 O82 H34 C36 N12"
_cell_length_a       13.5142
_cell_length_b       15.0538
_cell_length_c       17.907
_cell_angle_alpha    80.182
_cell_angle_beta     76.351
_cell_angle_gamma    67.581

_space_group_name_H-M_alt    "P 1"
_space_group_IT_number       1

loop_
  _space_group_symop_operation_xyz
  'x, y, z'

loop_
  _atom_site_type_symbol
  _atom_site_label
  _atom_site_symmetry_multiplicity
  _atom_site_fract_x
  _atom_site_fract_y
  _atom_site_fract_z
  _atom_site_occupancy
  B   B1        1.0  0.82300  0.75680  0.23700  1.0000
  B   B2        1.0  0.17700  0.24320  0.76300  1.0000
  W   W1        1.0  0.09978  0.60888  0.20669  1.0000
  W   W2        1.0  0.90022  0.39112  0.79331  1.0000
  W   W3        1.0  0.91602  0.52145  0.18921  1.0000
  W   W4        1.0  0.08398  0.47855  0.81079  1.0000
  W   W5        1.0  0.67885  0.82507  0.08439  1.0000
  W   W6        1.0  0.32115  0.17493  0.91561  1.0000
  W   W7        1.0  0.86964  0.93600  0.10009  1.0000
  W   W8        1.0  0.13036  0.06400  0.89991  1.0000
  W   W9        1.0  0.74614  0.99535  0.27798  1.0000
  W   W10       1.0  0.25386  0.00465  0.72202  1.0000
  W   W11       1.0  0.77761  0.58320  0.38464  1.0000
  W   W12       1.0  0.22239  0.41680  0.61536  1.0000
  W   W13       1.0  0.97232  0.68543  0.05690  1.0000
  W   W14       1.0  0.02768  0.31457  0.94310  1.0000
  W   W15       1.0  0.68366  0.81180  0.42227  1.0000
  W   W16       1.0  0.31634  0.18820  0.57773  1.0000
  W   W17       1.0  0.62483  0.66759  0.22634  1.0000
  W   W18       1.0  0.37517  0.33241  0.77366  1.0000
  W   W19       1.0  0.01087  0.86200  0.24231  1.0000
  W   W20       1.0  0.98913  0.13800  0.75769  1.0000
  W   W21       1.0  0.54774  0.89606  0.25666  1.0000
  W   W22       1.0  0.45226  0.10394  0.74334  1.0000
  W   W23       1.0  0.94932  0.68771  0.39715  1.0000
  W   W24       1.0  0.05068  0.31229  0.60285  1.0000
  Ni  Ni1       1.0  0.93921  0.26688  0.15648  1.0000
  Ni  Ni2       1.0  0.06079  0.73312  0.84352  1.0000
  O   O1        1.0  0.96150  0.55950  0.08330  1.0000
  O   O2        1.0  0.03850  0.44050  0.91670  1.0000
  O   O3        1.0  0.95410  0.13750  0.11150  1.0000
  O   O4        1.0  0.04590  0.86250  0.88850  1.0000
  H   H1        1.0  0.93500  0.09410  0.15310  1.0000
  H   H2        1.0  0.06500  0.90590  0.84690  1.0000
  H   H3        1.0  0.02800  0.10720  0.08600  1.0000
  H   H4        1.0  0.97200  0.89280  0.91400  1.0000
  O   O5        1.0  0.96170  0.81230  0.06290  1.0000
  O   O6        1.0  0.03830  0.18770  0.93710  1.0000
  O   O7        1.0  0.87430  0.52120  0.29910  1.0000
  O   O8        1.0  0.12570  0.47880  0.70090  1.0000
  O   O9        1.0  0.93330  0.40410  0.17990  1.0000
  O   O10       1.0  0.06670  0.59590  0.82010  1.0000
  O   O11       1.0  0.06190  0.50090  0.20390  1.0000
  O   O12       1.0  0.93810  0.49910  0.79610  1.0000
  O   O13       1.0  0.02930  0.67720  0.96000  1.0000
  O   O14       1.0  0.97070  0.32280  0.04000  1.0000
  O   O15       1.0  0.08670  0.74120  0.20390  1.0000
  O   O16       1.0  0.91330  0.25880  0.79610  1.0000
  O   O17       1.0  0.10420  0.63500  0.09640  1.0000
  O   O18       1.0  0.89580  0.36500  0.90360  1.0000
  O   O19       1.0  0.82130  0.73530  0.05310  1.0000
  O   O20       1.0  0.17870  0.26470  0.94690  1.0000
  O   O21       1.0  0.99530  0.92680  0.14270  1.0000
  O   O22       1.0  0.00470  0.07320  0.85730  1.0000
  O   O23       1.0  0.72620  0.91840  0.36890  1.0000
  O   O24       1.0  0.27380  0.08160  0.63110  1.0000
  O   O25       1.0  0.89140  0.97350  0.28370  1.0000
  O   O26       1.0  0.10860  0.02650  0.71630  1.0000
  O   O27       1.0  0.81330  0.72460  0.32260  1.0000
  O   O28       1.0  0.18670  0.27540  0.67740  1.0000
  O   O29       1.0  0.78400  0.03280  0.16770  1.0000
  O   O30       1.0  0.21600  0.96720  0.83230  1.0000
  O   O31       1.0  0.97940  0.79420  0.34100  1.0000
  O   O32       1.0  0.02060  0.20580  0.65900  1.0000
  O   O33       1.0  0.75120  0.91370  0.08460  1.0000
  O   O34       1.0  0.24880  0.08630  0.91540  1.0000
  O   O35       1.0  0.62230  0.72630  0.12010  1.0000
  O   O36       1.0  0.37770  0.27370  0.87990  1.0000
  O   O37       1.0  0.11400  0.89380  0.25570  1.0000
  O   O38       1.0  0.88600  0.10620  0.74430  1.0000
  O   O39       1.0  0.91330  0.67670  0.19110  1.0000
  O   O40       1.0  0.08670  0.32330  0.80890  1.0000
  O   O41       1.0  0.23580  0.55380  0.20600  1.0000
  O   O42       1.0  0.76420  0.44620  0.79400  1.0000
  O   O43       1.0  0.71560  0.77760  0.21250  1.0000
  O   O44       1.0  0.28440  0.22240  0.78750  1.0000
  O   O45       1.0  0.85190  0.84730  0.21960  1.0000
  O   O46       1.0  0.14810  0.15270  0.78040  1.0000
  O   O47       1.0  0.04480  0.61470  0.31260  1.0000
  O   O48       1.0  0.95520  0.38530  0.68740  1.0000
  O   O49       1.0  0.58350  0.84510  0.35690  1.0000
  O   O50       1.0  0.41650  0.15490  0.64310  1.0000
  O   O51       1.0  0.51320  0.78150  0.26040  1.0000
  O   O52       1.0  0.48680  0.21850  0.73960  1.0000
  O   O53       1.0  0.63450  0.86210  0.99910  1.0000
  O   O54       1.0  0.36550  0.13790  0.00090  1.0000
  O   O55       1.0  0.41860  0.97650  0.28270  1.0000
  O   O56       1.0  0.58140  0.02350  0.71730  1.0000
  O   O57       1.0  0.66730  0.62510  0.32230  1.0000
  O   O58       1.0  0.33270  0.37490  0.67770  1.0000
  O   O59       1.0  0.76910  0.58140  0.18360  1.0000
  O   O60       1.0  0.23090  0.41860  0.81640  1.0000
  O   O61       1.0  0.62700  0.97660  0.25170  1.0000
  O   O62       1.0  0.37300  0.02340  0.74830  1.0000
  O   O63       1.0  0.54910  0.59920  0.22620  1.0000
  O   O64       1.0  0.45090  0.40080  0.77380  1.0000
  O   O65       1.0  0.88980  0.00940  0.01820  1.0000
  O   O66       1.0  0.11020  0.99060  0.98180  1.0000
  O   O67       1.0  0.89320  0.58270  0.42680  1.0000
  O   O68       1.0  0.10680  0.41730  0.57320  1.0000
  O   O69       1.0  0.55450  0.91190  0.14860  1.0000
  O   O70       1.0  0.44550  0.08810  0.85140  1.0000
  O   O71       1.0  0.03480  0.65640  0.46160  1.0000
  O   O72       1.0  0.96520  0.34360  0.53840  1.0000
  O   O73       1.0  0.67930  0.68640  0.44820  1.0000
  O   O74       1.0  0.32070  0.31360  0.55180  1.0000
  O   O75       1.0  0.82090  0.76740  0.45780  1.0000
  O   O76       1.0  0.17910  0.23260  0.54220  1.0000
  O   O77       1.0  0.74780  0.48970  0.43980  1.0000
  O   O78       1.0  0.25220  0.51030  0.56020  1.0000
  O   O79       1.0  0.60120  0.86370  0.50330  1.0000
  O   O80       1.0  0.39880  0.13630  0.49670  1.0000
  O   O81       1.0  0.68400  0.10860  0.30860  1.0000
  O   O82       1.0  0.31600  0.89140  0.69140  1.0000
  C   C1        1.0  0.71930  0.26170  0.15920  1.0000
  C   C2        1.0  0.28070  0.73830  0.84080  1.0000
  H   H5        1.0  0.74710  0.19470  0.16210  1.0000
  H   H6        1.0  0.25290  0.80530  0.83790  1.0000
  C   C3        1.0  0.94690  0.14460  0.31280  1.0000
  C   C4        1.0  0.05310  0.85540  0.68720  1.0000
  H   H7        1.0  0.98530  0.08670  0.29050  1.0000
  H   H8        1.0  0.01470  0.91330  0.70950  1.0000
  C   C5        1.0  0.96150  0.07470  0.44660  1.0000
  C   C6        1.0  0.03850  0.92530  0.55340  1.0000
  C   C7        1.0  0.16630  0.25670  0.15100  1.0000
  C   C8        1.0  0.83370  0.74330  0.84900  1.0000
  H   H9        1.0  0.14500  0.32360  0.14420  1.0000
  H   H10       1.0  0.85500  0.67640  0.85580  1.0000
  C   C9        1.0  0.41870  0.34460  0.18580  1.0000
  C   C10       1.0  0.58130  0.65540  0.81420  1.0000
  H   H11       1.0  0.40420  0.40460  0.20200  1.0000
  H   H12       1.0  0.59580  0.59540  0.79800  1.0000
  C   C11       1.0  0.52430  0.28480  0.16230  1.0000
  C   C12       1.0  0.47570  0.71520  0.83770  1.0000
  C   C13       1.0  0.35420  0.22660  0.16020  1.0000
  C   C14       1.0  0.64580  0.77340  0.83980  1.0000
  C   C15       1.0  0.46240  0.16570  0.13660  1.0000
  C   C16       1.0  0.53760  0.83430  0.86340  1.0000
  H   H13       1.0  0.47670  0.10570  0.12060  1.0000
  H   H14       1.0  0.52330  0.89430  0.87940  1.0000
  C   C17       1.0  0.33400  0.31400  0.18510  1.0000
  C   C18       1.0  0.66600  0.68600  0.81490  1.0000
  H   H15       1.0  0.26240  0.35360  0.20180  1.0000
  H   H16       1.0  0.73760  0.64640  0.79820  1.0000
  C   C19       1.0  0.54660  0.19470  0.13720  1.0000
  C   C20       1.0  0.45340  0.80530  0.86280  1.0000
  H   H17       1.0  0.61820  0.15490  0.12100  1.0000
  H   H18       1.0  0.38180  0.84510  0.87900  1.0000
  C   C21       1.0  0.96680  0.98450  0.43780  1.0000
  C   C22       1.0  0.03320  0.01550  0.56220  1.0000
  H   H19       1.0  0.94280  0.97470  0.39630  1.0000
  H   H20       1.0  0.05720  0.02530  0.60370  1.0000
  C   C23       1.0  0.99220  0.09240  0.50960  1.0000
  C   C24       1.0  0.00780  0.90760  0.49040  1.0000
  H   H21       1.0  0.98530  0.15450  0.51640  1.0000
  H   H22       1.0  0.01470  0.84550  0.48360  1.0000
  C   C25       1.0  0.26860  0.10350  0.16530  1.0000
  C   C26       1.0  0.73140  0.89650  0.83470  1.0000
  H   H23       1.0  0.32800  0.04680  0.17010  1.0000
  H   H24       1.0  0.67200  0.95320  0.82990  1.0000
  C   C27       1.0  0.16600  0.11090  0.16280  1.0000
  C   C28       1.0  0.83400  0.88910  0.83720  1.0000
  H   H25       1.0  0.14240  0.05960  0.16650  1.0000
  H   H26       1.0  0.85760  0.94040  0.83350  1.0000
  C   C29       1.0  0.85950  0.29450  0.32810  1.0000
  C   C30       1.0  0.14050  0.70550  0.67190  1.0000
  H   H27       1.0  0.82570  0.36060  0.31750  1.0000
  H   H28       1.0  0.17430  0.63940  0.68250  1.0000
  C   C31       1.0  0.86810  0.24850  0.39930  1.0000
  C   C32       1.0  0.13190  0.75150  0.60070  1.0000
  H   H29       1.0  0.84140  0.27640  0.44590  1.0000
  H   H30       1.0  0.15860  0.72360  0.55410  1.0000
  C   C33       1.0  0.70590  0.40950  0.15150  1.0000
  C   C34       1.0  0.29410  0.59050  0.84850  1.0000
  H   H31       1.0  0.72460  0.46380  0.14740  1.0000
  H   H32       1.0  0.27540  0.53620  0.85260  1.0000
  C   C35       1.0  0.60430  0.41060  0.15670  1.0000
  C   C36       1.0  0.39570  0.58940  0.84330  1.0000
  H   H33       1.0  0.54090  0.46490  0.15740  1.0000
  H   H34       1.0  0.45910  0.53510  0.84260  1.0000
  N   N1        1.0  0.77780  0.31570  0.15330  1.0000
  N   N2        1.0  0.22220  0.68430  0.84670  1.0000
  N   N3        1.0  0.90790  0.22910  0.27360  1.0000
  N   N4        1.0  0.09210  0.77090  0.72640  1.0000
  N   N5        1.0  0.10160  0.20920  0.15370  1.0000
  N   N6        1.0  0.89840  0.79080  0.84630  1.0000
  N   N7        1.0  0.61200  0.31700  0.16060  1.0000
  N   N8        1.0  0.38800  0.68300  0.83940  1.0000
  N   N9        1.0  0.92370  0.15320  0.38920  1.0000
  N   N10       1.0  0.07630  0.84680  0.61080  1.0000
  N   N11       1.0  0.26710  0.19680  0.15920  1.0000
  N   N12       1.0  0.73290  0.80320  0.84080  1.0000
