data_image0
_chemical_formula_structural       W24B2Co2O2H4O80N12C2H2C2H2C2H2C4H2C2H2C4H2C2H2C2H2C2H2C2H2C2H2C2H2C2H2C2H2C4H2
_chemical_formula_sum              "W24 B2 Co2 O82 H34 N12 C36"
_cell_length_a       13.545
_cell_length_b       15.0834
_cell_length_c       17.9157
_cell_angle_alpha    80.493
_cell_angle_beta     76.181
_cell_angle_gamma    67.282

_space_group_name_H-M_alt    "P 1"
_space_group_IT_number       1

loop_
  _space_group_symop_operation_xyz
  'x, y, z'

loop_
  _atom_site_type_symbol
  _atom_site_label
  _atom_site_symmetry_multiplicity
  _atom_site_fract_x
  _atom_site_fract_y
  _atom_site_fract_z
  _atom_site_occupancy
  W   W1        1.0  0.44653  0.69132  0.39722  1.0000
  W   W2        1.0  0.55347  0.30868  0.60278  1.0000
  W   W3        1.0  0.27447  0.58812  0.38555  1.0000
  W   W4        1.0  0.72553  0.41188  0.61445  1.0000
  W   W5        1.0  0.50978  0.86264  0.24157  1.0000
  W   W6        1.0  0.49022  0.13736  0.75843  1.0000
  W   W7        1.0  0.18081  0.81696  0.42247  1.0000
  W   W8        1.0  0.81919  0.18304  0.57753  1.0000
  W   W9        1.0  0.04613  0.90016  0.25680  1.0000
  W   W10       1.0  0.95387  0.09984  0.74320  1.0000
  W   W11       1.0  0.12228  0.67133  0.22751  1.0000
  W   W12       1.0  0.87772  0.32867  0.77249  1.0000
  W   W13       1.0  0.36897  0.93565  0.09972  1.0000
  W   W14       1.0  0.63103  0.06435  0.90028  1.0000
  W   W15       1.0  0.17740  0.82618  0.08487  1.0000
  W   W16       1.0  0.82260  0.17382  0.91513  1.0000
  W   W17       1.0  0.47124  0.68458  0.05742  1.0000
  W   W18       1.0  0.52876  0.31542  0.94258  1.0000
  W   W19       1.0  0.41332  0.52341  0.18994  1.0000
  W   W20       1.0  0.58668  0.47659  0.81006  1.0000
  W   W21       1.0  0.24529  0.99765  0.27757  1.0000
  W   W22       1.0  0.75471  0.00235  0.72243  1.0000
  W   W23       1.0  0.59772  0.60895  0.20693  1.0000
  W   W24       1.0  0.40228  0.39105  0.79307  1.0000
  B   B1        1.0  0.31840  0.76000  0.23640  1.0000
  B   B2        1.0  0.68160  0.24000  0.76360  1.0000
  Co  Co1       1.0  0.43666  0.26866  0.15676  1.0000
  Co  Co2       1.0  0.56334  0.73134  0.84324  1.0000
  O   O1        1.0  0.45170  0.13670  0.11100  1.0000
  O   O2        1.0  0.54830  0.86330  0.88900  1.0000
  H   H1        1.0  0.43730  0.09220  0.15310  1.0000
  H   H2        1.0  0.56270  0.90780  0.84690  1.0000
  H   H3        1.0  0.52430  0.10800  0.08230  1.0000
  H   H4        1.0  0.47570  0.89200  0.91770  1.0000
  O   O3        1.0  0.52580  0.67430  0.95800  1.0000
  O   O4        1.0  0.47420  0.32570  0.04200  1.0000
  O   O5        1.0  0.39070  0.97630  0.28340  1.0000
  O   O6        1.0  0.60930  0.02370  0.71660  1.0000
  O   O7        1.0  0.34850  0.84990  0.21950  1.0000
  O   O8        1.0  0.65150  0.15010  0.78050  1.0000
  O   O9        1.0  0.31310  0.72650  0.32380  1.0000
  O   O10       1.0  0.68690  0.27350  0.67620  1.0000
  O   O11       1.0  0.21190  0.78020  0.21270  1.0000
  O   O12       1.0  0.78810  0.21980  0.78730  1.0000
  O   O13       1.0  0.73350  0.55310  0.20750  1.0000
  O   O14       1.0  0.26650  0.44690  0.79250  1.0000
  O   O15       1.0  0.24440  0.49710  0.43990  1.0000
  O   O16       1.0  0.75560  0.50290  0.56010  1.0000
  O   O17       1.0  0.54190  0.61760  0.31310  1.0000
  O   O18       1.0  0.45810  0.38240  0.68690  1.0000
  O   O19       1.0  0.16590  0.62970  0.32420  1.0000
  O   O20       1.0  0.83410  0.37030  0.67580  1.0000
  O   O21       1.0  0.11860  0.72930  0.12020  1.0000
  O   O22       1.0  0.88140  0.27070  0.87980  1.0000
  O   O23       1.0  0.32190  0.73550  0.05250  1.0000
  O   O24       1.0  0.67810  0.26450  0.94750  1.0000
  O   O25       1.0  0.37450  0.52350  0.30270  1.0000
  O   O26       1.0  0.62550  0.47650  0.69730  1.0000
  O   O27       1.0  0.46260  0.55770  0.08520  1.0000
  O   O28       1.0  0.53740  0.44230  0.91480  1.0000
  O   O29       1.0  0.60320  0.63310  0.09590  1.0000
  O   O30       1.0  0.39680  0.36690  0.90410  1.0000
  O   O31       1.0  0.55900  0.50140  0.20490  1.0000
  O   O32       1.0  0.44100  0.49860  0.79510  1.0000
  O   O33       1.0  0.58300  0.74100  0.20260  1.0000
  O   O34       1.0  0.41700  0.25900  0.79740  1.0000
  O   O35       1.0  0.46160  0.81100  0.06350  1.0000
  O   O36       1.0  0.53840  0.18900  0.93650  1.0000
  O   O37       1.0  0.61760  0.89160  0.25690  1.0000
  O   O38       1.0  0.38240  0.10840  0.74310  1.0000
  O   O39       1.0  0.39430  0.58530  0.42900  1.0000
  O   O40       1.0  0.60570  0.41470  0.57100  1.0000
  O   O41       1.0  0.10030  0.86820  0.50630  1.0000
  O   O42       1.0  0.89970  0.13180  0.49370  1.0000
  O   O43       1.0  0.42780  0.40650  0.17730  1.0000
  O   O44       1.0  0.57220  0.59350  0.82270  1.0000
  O   O45       1.0  0.08320  0.85090  0.35700  1.0000
  O   O46       1.0  0.91680  0.14910  0.64300  1.0000
  O   O47       1.0  0.53110  0.66110  0.46090  1.0000
  O   O48       1.0  0.46890  0.33890  0.53910  1.0000
  O   O49       1.0  0.00940  0.78780  0.26000  1.0000
  O   O50       1.0  0.99060  0.21220  0.74000  1.0000
  O   O51       1.0  0.31650  0.77320  0.45720  1.0000
  O   O52       1.0  0.68350  0.22680  0.54280  1.0000
  O   O53       1.0  0.47890  0.79640  0.34110  1.0000
  O   O54       1.0  0.52110  0.20360  0.65890  1.0000
  O   O55       1.0  0.26880  0.58220  0.18530  1.0000
  O   O56       1.0  0.73120  0.41780  0.81470  1.0000
  O   O57       1.0  0.12410  0.97940  0.24900  1.0000
  O   O58       1.0  0.87590  0.02060  0.75100  1.0000
  O   O59       1.0  0.22130  0.92510  0.36640  1.0000
  O   O60       1.0  0.77870  0.07490  0.63360  1.0000
  O   O61       1.0  0.28170  0.03380  0.16530  1.0000
  O   O62       1.0  0.71830  0.96620  0.83470  1.0000
  O   O63       1.0  0.91570  0.98250  0.28040  1.0000
  O   O64       1.0  0.08430  0.01750  0.71960  1.0000
  O   O65       1.0  0.04310  0.60360  0.22710  1.0000
  O   O66       1.0  0.95690  0.39640  0.77290  1.0000
  O   O67       1.0  0.39150  0.00610  0.01940  1.0000
  O   O68       1.0  0.60850  0.99390  0.98060  1.0000
  O   O69       1.0  0.25200  0.91300  0.08830  1.0000
  O   O70       1.0  0.74800  0.08700  0.91170  1.0000
  O   O71       1.0  0.40920  0.67820  0.18990  1.0000
  O   O72       1.0  0.59080  0.32180  0.81010  1.0000
  O   O73       1.0  0.13430  0.86050  0.00040  1.0000
  O   O74       1.0  0.86570  0.13950  0.99960  1.0000
  O   O75       1.0  0.18680  0.11020  0.31200  1.0000
  O   O76       1.0  0.81320  0.88980  0.68800  1.0000
  O   O77       1.0  0.49430  0.92650  0.14160  1.0000
  O   O78       1.0  0.50570  0.07350  0.85840  1.0000
  O   O79       1.0  0.17980  0.69130  0.44990  1.0000
  O   O80       1.0  0.82020  0.30870  0.55010  1.0000
  O   O81       1.0  0.05490  0.91280  0.14920  1.0000
  O   O82       1.0  0.94510  0.08720  0.85080  1.0000
  N   N1        1.0  0.27140  0.31890  0.15140  1.0000
  N   N2        1.0  0.72860  0.68110  0.84860  1.0000
  N   N3        1.0  0.10690  0.31890  0.16090  1.0000
  N   N4        1.0  0.89310  0.68110  0.83910  1.0000
  N   N5        1.0  0.76700  0.19510  0.15850  1.0000
  N   N6        1.0  0.23300  0.80490  0.84150  1.0000
  N   N7        1.0  0.60540  0.20670  0.15140  1.0000
  N   N8        1.0  0.39460  0.79330  0.84860  1.0000
  N   N9        1.0  0.42230  0.15330  0.39210  1.0000
  N   N10       1.0  0.57770  0.84670  0.60790  1.0000
  N   N11       1.0  0.40720  0.23010  0.27770  1.0000
  N   N12       1.0  0.59280  0.76990  0.72230  1.0000
  C   C1        1.0  0.21710  0.26400  0.15970  1.0000
  C   C2        1.0  0.78290  0.73600  0.84030  1.0000
  H   H5        1.0  0.24670  0.19690  0.16430  1.0000
  H   H6        1.0  0.75330  0.80310  0.83570  1.0000
  C   C3        1.0  0.20390  0.41010  0.15770  1.0000
  C   C4        1.0  0.79610  0.58990  0.84230  1.0000
  H   H7        1.0  0.22290  0.46100  0.16390  1.0000
  H   H8        1.0  0.77710  0.53900  0.83610  1.0000
  C   C5        1.0  0.09590  0.41660  0.15310  1.0000
  C   C6        1.0  0.90410  0.58340  0.84690  1.0000
  H   H9        1.0  0.03490  0.47140  0.14680  1.0000
  H   H10       1.0  0.96510  0.52860  0.85320  1.0000
  C   C7        1.0  0.02250  0.28670  0.16230  1.0000
  C   C8        1.0  0.97750  0.71330  0.83770  1.0000
  C   C9        1.0  0.04430  0.19640  0.13730  1.0000
  C   C10       1.0  0.95570  0.80360  0.86270  1.0000
  H   H11       1.0  0.11600  0.15570  0.12160  1.0000
  H   H12       1.0  0.88400  0.84430  0.87840  1.0000
  C   C11       1.0  0.95980  0.16820  0.13600  1.0000
  C   C12       1.0  0.04020  0.83180  0.86400  1.0000
  H   H13       1.0  0.97440  0.10910  0.11800  1.0000
  H   H14       1.0  0.02560  0.89090  0.88200  1.0000
  C   C13       1.0  0.85420  0.22660  0.16100  1.0000
  C   C14       1.0  0.14580  0.77340  0.83900  1.0000
  C   C15       1.0  0.83180  0.31600  0.18500  1.0000
  C   C16       1.0  0.16820  0.68400  0.81500  1.0000
  H   H15       1.0  0.75980  0.35610  0.20050  1.0000
  H   H16       1.0  0.24020  0.64390  0.79950  1.0000
  C   C17       1.0  0.91520  0.34660  0.18620  1.0000
  C   C18       1.0  0.08480  0.65340  0.81380  1.0000
  H   H17       1.0  0.89960  0.40670  0.20280  1.0000
  H   H18       1.0  0.10040  0.59330  0.79720  1.0000
  C   C19       1.0  0.66380  0.25640  0.14700  1.0000
  C   C20       1.0  0.33620  0.74360  0.85300  1.0000
  H   H19       1.0  0.64120  0.32310  0.13760  1.0000
  H   H20       1.0  0.35880  0.67690  0.86240  1.0000
  C   C21       1.0  0.77010  0.10390  0.16550  1.0000
  C   C22       1.0  0.22990  0.89610  0.83450  1.0000
  H   H21       1.0  0.82910  0.04750  0.17220  1.0000
  H   H22       1.0  0.17090  0.95250  0.82780  1.0000
  C   C23       1.0  0.66290  0.11280  0.16040  1.0000
  C   C24       1.0  0.33710  0.88720  0.83960  1.0000
  H   H23       1.0  0.63810  0.06260  0.16280  1.0000
  H   H24       1.0  0.36190  0.93740  0.83720  1.0000
  C   C25       1.0  0.35900  0.29740  0.33150  1.0000
  C   C26       1.0  0.64100  0.70260  0.66850  1.0000
  H   H25       1.0  0.32640  0.36370  0.32120  1.0000
  H   H26       1.0  0.67360  0.63630  0.67880  1.0000
  C   C27       1.0  0.36770  0.24970  0.40220  1.0000
  C   C28       1.0  0.63230  0.75030  0.59780  1.0000
  H   H27       1.0  0.34140  0.27730  0.44910  1.0000
  H   H28       1.0  0.65860  0.72270  0.55090  1.0000
  C   C29       1.0  0.43790  0.14830  0.31250  1.0000
  C   C30       1.0  0.56210  0.85170  0.68750  1.0000
  H   H29       1.0  0.46760  0.09100  0.28860  1.0000
  H   H30       1.0  0.53240  0.90900  0.71140  1.0000
  C   C31       1.0  0.49490  0.09020  0.51090  1.0000
  C   C32       1.0  0.50510  0.90980  0.48910  1.0000
  H   H31       1.0  0.49300  0.15060  0.51790  1.0000
  H   H32       1.0  0.50700  0.84940  0.48210  1.0000
  C   C33       1.0  0.45570  0.07880  0.44430  1.0000
  C   C34       1.0  0.54430  0.92120  0.55570  1.0000
  C   C35       1.0  0.46600  0.98630  0.43720  1.0000
  C   C36       1.0  0.53400  0.01370  0.56280  1.0000
  H   H33       1.0  0.44540  0.97480  0.39480  1.0000
  H   H34       1.0  0.55460  0.02520  0.60520  1.0000
