data_image0
_chemical_formula_structural       C12O24Cr2Mn2
_chemical_formula_sum              "C12 O24 Cr2 Mn2"
_cell_length_a       9.431
_cell_length_b       12.807
_cell_length_c       16.068
_cell_angle_alpha    101.392
_cell_angle_beta     96.264
_cell_angle_gamma    97.548

_space_group_name_H-M_alt    "P 1"
_space_group_IT_number       1

loop_
  _space_group_symop_operation_xyz
  'x, y, z'

loop_
  _atom_site_type_symbol
  _atom_site_label
  _atom_site_symmetry_multiplicity
  _atom_site_fract_x
  _atom_site_fract_y
  _atom_site_fract_z
  _atom_site_occupancy
  C   C1        1.0  0.46470  0.44920  0.46575  1.0000
  C   C2        1.0  0.53530  0.55080  0.53425  1.0000
  C   C3        1.0  0.03220  0.55300  0.48743  1.0000
  C   C4        1.0  0.96780  0.44700  0.51257  1.0000
  C   C5        1.0  0.20810  0.53670  0.75208  1.0000
  C   C6        1.0  0.79190  0.46330  0.24792  1.0000
  C   C7        1.0  0.27940  0.43320  0.74238  1.0000
  C   C8        1.0  0.72060  0.56680  0.25762  1.0000
  C   C9        1.0  0.47220  0.45120  0.01839  1.0000
  C   C10       1.0  0.52780  0.54880  0.98161  1.0000
  C   C11       1.0  0.96410  0.44480  0.97134  1.0000
  C   C12       1.0  0.03590  0.55520  0.02866  1.0000
  O   O1        1.0  0.34270  0.40411  0.47711  1.0000
  O   O2        1.0  0.65730  0.59589  0.52289  1.0000
  O   O3        1.0  0.53460  0.41952  0.40605  1.0000
  O   O4        1.0  0.46540  0.58048  0.59395  1.0000
  O   O5        1.0  0.31620  0.39905  0.67055  1.0000
  O   O6        1.0  0.68380  0.60095  0.32945  1.0000
  O   O7        1.0  0.29100  0.39239  0.80696  1.0000
  O   O8        1.0  0.70900  0.60761  0.19304  1.0000
  O   O9        1.0  0.19800  0.57937  0.68784  1.0000
  O   O10       1.0  0.80200  0.42063  0.31216  1.0000
  O   O11       1.0  0.16690  0.57032  0.82217  1.0000
  O   O12       1.0  0.83310  0.42968  0.17783  1.0000
  O   O13       1.0  0.84130  0.40834  0.98688  1.0000
  O   O14       1.0  0.15870  0.59166  0.01312  1.0000
  O   O15       1.0  0.03370  0.40064  0.91603  1.0000
  O   O16       1.0  0.96630  0.59936  0.08397  1.0000
  O   O17       1.0  0.34090  0.41359  0.99868  1.0000
  O   O18       1.0  0.65910  0.58641  0.00132  1.0000
  O   O19       1.0  0.56270  0.41708  0.06513  1.0000
  O   O20       1.0  0.43730  0.58292  0.93487  1.0000
  O   O21       1.0  0.16570  0.58206  0.50688  1.0000
  O   O22       1.0  0.83430  0.41794  0.49312  1.0000
  O   O23       1.0  0.94480  0.59915  0.44917  1.0000
  O   O24       1.0  0.05520  0.40085  0.55083  1.0000
  Cr  Cr1       1.0  0.26236  0.48800  0.58093  1.0000
  Cr  Cr2       1.0  0.73764  0.51200  0.41907  1.0000
  Mn  Mn1       1.0  0.23259  0.49001  0.91560  1.0000
  Mn  Mn2       1.0  0.76741  0.50999  0.08440  1.0000
