data_image0
_chemical_formula_structural       Tb4S8O8H8O8H8O36C12H4C8H4C4H4C16H4C12H4C4H4C4
_chemical_formula_sum              "Tb4 S8 O52 H40 C60"
_cell_length_a       19.6142
_cell_length_b       16.2865
_cell_length_c       9.2476
_cell_angle_alpha    90
_cell_angle_beta     98.754
_cell_angle_gamma    90

_space_group_name_H-M_alt    "P 1"
_space_group_IT_number       1

loop_
  _space_group_symop_operation_xyz
  'x, y, z'

loop_
  _atom_site_type_symbol
  _atom_site_label
  _atom_site_symmetry_multiplicity
  _atom_site_fract_x
  _atom_site_fract_y
  _atom_site_fract_z
  _atom_site_occupancy
  Tb  Tb1       1.0  0.50000  0.47080  0.75000  1.0000
  Tb  Tb2       1.0  0.50000  0.52920  0.25000  1.0000
  Tb  Tb3       1.0  0.00000  0.01611  0.75000  1.0000
  Tb  Tb4       1.0  0.00000  0.98389  0.25000  1.0000
  S   S1        1.0  0.65951  0.59130  0.78767  1.0000
  S   S2        1.0  0.34049  0.59130  0.71233  1.0000
  S   S3        1.0  0.34049  0.40870  0.21233  1.0000
  S   S4        1.0  0.65951  0.40870  0.28767  1.0000
  S   S5        1.0  0.89124  0.83285  0.72617  1.0000
  S   S6        1.0  0.10876  0.83285  0.77383  1.0000
  S   S7        1.0  0.10876  0.16715  0.27383  1.0000
  S   S8        1.0  0.89124  0.16715  0.22617  1.0000
  O   O1        1.0  0.52815  0.56824  0.93250  1.0000
  O   O2        1.0  0.47185  0.56824  0.56750  1.0000
  O   O3        1.0  0.47185  0.43176  0.06750  1.0000
  O   O4        1.0  0.52815  0.43176  0.43250  1.0000
  O   O5        1.0  0.40498  0.40804  0.58920  1.0000
  O   O6        1.0  0.59502  0.40804  0.91080  1.0000
  O   O7        1.0  0.59502  0.59196  0.41080  1.0000
  O   O8        1.0  0.40498  0.59196  0.08920  1.0000
  H   H1        1.0  0.40960  0.35620  0.58840  1.0000
  H   H2        1.0  0.59040  0.35620  0.91160  1.0000
  H   H3        1.0  0.59040  0.64380  0.41160  1.0000
  H   H4        1.0  0.40960  0.64380  0.08840  1.0000
  H   H5        1.0  0.40390  0.42560  0.50230  1.0000
  H   H6        1.0  0.59610  0.42560  0.99770  1.0000
  H   H7        1.0  0.59610  0.57440  0.49770  1.0000
  H   H8        1.0  0.40390  0.57440  0.00230  1.0000
  O   O9        1.0  0.54945  0.64097  0.13410  1.0000
  O   O10       1.0  0.45055  0.64097  0.36590  1.0000
  O   O11       1.0  0.45055  0.35903  0.86590  1.0000
  O   O12       1.0  0.54945  0.35903  0.63410  1.0000
  O   O13       1.0  0.02921  0.13762  0.89480  1.0000
  O   O14       1.0  0.97079  0.13762  0.60520  1.0000
  O   O15       1.0  0.97079  0.86238  0.10520  1.0000
  O   O16       1.0  0.02921  0.86238  0.39480  1.0000
  H   H9        1.0  0.06170  0.16350  0.86390  1.0000
  H   H10       1.0  0.93830  0.16350  0.63610  1.0000
  H   H11       1.0  0.93830  0.83650  0.13610  1.0000
  H   H12       1.0  0.06170  0.83650  0.36390  1.0000
  H   H13       1.0  0.04230  0.12460  0.98370  1.0000
  H   H14       1.0  0.95770  0.12460  0.51630  1.0000
  H   H15       1.0  0.95770  0.87540  0.01630  1.0000
  H   H16       1.0  0.04230  0.87540  0.48370  1.0000
  O   O17       1.0  0.60702  0.53794  0.70550  1.0000
  O   O18       1.0  0.39298  0.53794  0.79450  1.0000
  O   O19       1.0  0.39298  0.46206  0.29450  1.0000
  O   O20       1.0  0.60702  0.46206  0.20550  1.0000
  O   O21       1.0  0.68313  0.56121  0.93380  1.0000
  O   O22       1.0  0.31687  0.56121  0.56620  1.0000
  O   O23       1.0  0.31687  0.43879  0.06620  1.0000
  O   O24       1.0  0.68313  0.43879  0.43380  1.0000
  O   O25       1.0  0.71409  0.60811  0.70300  1.0000
  O   O26       1.0  0.28591  0.60811  0.79700  1.0000
  O   O27       1.0  0.28591  0.39189  0.29700  1.0000
  O   O28       1.0  0.71409  0.39189  0.20300  1.0000
  O   O29       1.0  0.58669  0.95777  0.63070  1.0000
  O   O30       1.0  0.41331  0.95777  0.86930  1.0000
  O   O31       1.0  0.41331  0.04223  0.36930  1.0000
  O   O32       1.0  0.58669  0.04223  0.13070  1.0000
  O   O33       1.0  0.93605  0.97231  0.52980  1.0000
  O   O34       1.0  0.06395  0.97231  0.97020  1.0000
  O   O35       1.0  0.06395  0.02769  0.47020  1.0000
  O   O36       1.0  0.93605  0.02769  0.02980  1.0000
  O   O37       1.0  0.88968  0.93659  0.30770  1.0000
  O   O38       1.0  0.11032  0.93659  0.19230  1.0000
  O   O39       1.0  0.11032  0.06341  0.69230  1.0000
  O   O40       1.0  0.88968  0.06341  0.80770  1.0000
  O   O41       1.0  0.93377  0.89693  0.80460  1.0000
  O   O42       1.0  0.06623  0.89693  0.69540  1.0000
  O   O43       1.0  0.06623  0.10307  0.19540  1.0000
  O   O44       1.0  0.93377  0.10307  0.30460  1.0000
  O   O45       1.0  0.92482  0.79175  0.61780  1.0000
  O   O46       1.0  0.07518  0.79175  0.88220  1.0000
  O   O47       1.0  0.07518  0.20825  0.38220  1.0000
  O   O48       1.0  0.92482  0.20825  0.11780  1.0000
  O   O49       1.0  0.86509  0.77851  0.82810  1.0000
  O   O50       1.0  0.13491  0.77851  0.67190  1.0000
  O   O51       1.0  0.13491  0.22149  0.17190  1.0000
  O   O52       1.0  0.86509  0.22149  0.32810  1.0000
  C   C1        1.0  0.57649  0.70016  0.91610  1.0000
  C   C2        1.0  0.42351  0.70016  0.58390  1.0000
  C   C3        1.0  0.42351  0.29984  0.08390  1.0000
  C   C4        1.0  0.57649  0.29984  0.41610  1.0000
  C   C5        1.0  0.61957  0.68803  0.80990  1.0000
  C   C6        1.0  0.38043  0.68803  0.69010  1.0000
  C   C7        1.0  0.38043  0.31197  0.19010  1.0000
  C   C8        1.0  0.61957  0.31197  0.30990  1.0000
  C   C9        1.0  0.63736  0.75382  0.72880  1.0000
  C   C10       1.0  0.36264  0.75382  0.77120  1.0000
  C   C11       1.0  0.36264  0.24618  0.27120  1.0000
  C   C12       1.0  0.63736  0.24618  0.22880  1.0000
  H   H17       1.0  0.66600  0.74540  0.65870  1.0000
  H   H18       1.0  0.33400  0.74540  0.84130  1.0000
  H   H19       1.0  0.33400  0.25460  0.34130  1.0000
  H   H20       1.0  0.66600  0.25460  0.15870  1.0000
  C   C13       1.0  0.61323  0.83194  0.75040  1.0000
  C   C14       1.0  0.38677  0.83194  0.74960  1.0000
  C   C15       1.0  0.38677  0.16806  0.24960  1.0000
  C   C16       1.0  0.61323  0.16806  0.25040  1.0000
  C   C17       1.0  0.57193  0.84446  0.85900  1.0000
  C   C18       1.0  0.42807  0.84446  0.64100  1.0000
  C   C19       1.0  0.42807  0.15554  0.14100  1.0000
  C   C20       1.0  0.57193  0.15554  0.35900  1.0000
  H   H21       1.0  0.55640  0.89700  0.87650  1.0000
  H   H22       1.0  0.44360  0.89700  0.62350  1.0000
  H   H23       1.0  0.44360  0.10300  0.12350  1.0000
  H   H24       1.0  0.55640  0.10300  0.37650  1.0000
  C   C21       1.0  0.55424  0.77911  0.93990  1.0000
  C   C22       1.0  0.44576  0.77911  0.56010  1.0000
  C   C23       1.0  0.44576  0.22089  0.06010  1.0000
  C   C24       1.0  0.55424  0.22089  0.43990  1.0000
  H   H25       1.0  0.52680  0.78810  0.01200  1.0000
  H   H26       1.0  0.47320  0.78810  0.48800  1.0000
  H   H27       1.0  0.47320  0.21190  0.98800  1.0000
  H   H28       1.0  0.52680  0.21190  0.51200  1.0000
  C   C25       1.0  0.55031  0.63129  0.99960  1.0000
  C   C26       1.0  0.44969  0.63129  0.50040  1.0000
  C   C27       1.0  0.44969  0.36871  0.00040  1.0000
  C   C28       1.0  0.55031  0.36871  0.49960  1.0000
  C   C29       1.0  0.62780  0.90243  0.65760  1.0000
  C   C30       1.0  0.37220  0.90243  0.84240  1.0000
  C   C31       1.0  0.37220  0.09757  0.34240  1.0000
  C   C32       1.0  0.62780  0.09757  0.15760  1.0000
  C   C33       1.0  0.69461  0.90562  0.59880  1.0000
  C   C34       1.0  0.30539  0.90562  0.90120  1.0000
  C   C35       1.0  0.30539  0.09438  0.40120  1.0000
  C   C36       1.0  0.69461  0.09438  0.09880  1.0000
  C   C37       1.0  0.75465  0.87179  0.67550  1.0000
  C   C38       1.0  0.24535  0.87179  0.82450  1.0000
  C   C39       1.0  0.24535  0.12821  0.32450  1.0000
  C   C40       1.0  0.75465  0.12821  0.17550  1.0000
  H   H29       1.0  0.75260  0.84190  0.76040  1.0000
  H   H30       1.0  0.24740  0.84190  0.73960  1.0000
  H   H31       1.0  0.24740  0.15810  0.23960  1.0000
  H   H32       1.0  0.75260  0.15810  0.26040  1.0000
  C   C41       1.0  0.81746  0.88224  0.62640  1.0000
  C   C42       1.0  0.18254  0.88224  0.87360  1.0000
  C   C43       1.0  0.18254  0.11776  0.37360  1.0000
  C   C44       1.0  0.81746  0.11776  0.12640  1.0000
  C   C45       1.0  0.82090  0.92490  0.49680  1.0000
  C   C46       1.0  0.17910  0.92490  0.00320  1.0000
  C   C47       1.0  0.17910  0.07510  0.50320  1.0000
  C   C48       1.0  0.82090  0.07510  0.99680  1.0000
  C   C49       1.0  0.76034  0.95520  0.41810  1.0000
  C   C50       1.0  0.23966  0.95520  0.08190  1.0000
  C   C51       1.0  0.23966  0.04480  0.58190  1.0000
  C   C52       1.0  0.76034  0.04480  0.91810  1.0000
  H   H33       1.0  0.76160  0.98110  0.32900  1.0000
  H   H34       1.0  0.23840  0.98110  0.17100  1.0000
  H   H35       1.0  0.23840  0.01890  0.67100  1.0000
  H   H36       1.0  0.76160  0.01890  0.82900  1.0000
  C   C53       1.0  0.69758  0.94767  0.46990  1.0000
  C   C54       1.0  0.30242  0.94767  0.03010  1.0000
  C   C55       1.0  0.30242  0.05233  0.53010  1.0000
  C   C56       1.0  0.69758  0.05233  0.96990  1.0000
  H   H37       1.0  0.65790  0.97080  0.41810  1.0000
  H   H38       1.0  0.34210  0.97080  0.08190  1.0000
  H   H39       1.0  0.34210  0.02920  0.58190  1.0000
  H   H40       1.0  0.65790  0.02920  0.91810  1.0000
  C   C57       1.0  0.88703  0.94469  0.44120  1.0000
  C   C58       1.0  0.11297  0.94469  0.05880  1.0000
  C   C59       1.0  0.11297  0.05531  0.55880  1.0000
  C   C60       1.0  0.88703  0.05531  0.94120  1.0000
