data_image0
_chemical_formula_structural       Eu4S8O8H8O8H8O36C12H4C8H4C4H4C16H4C12H4C4H4C4
_chemical_formula_sum              "Eu4 S8 O52 H40 C60"
_cell_length_a       19.6761
_cell_length_b       16.3241
_cell_length_c       9.2356
_cell_angle_alpha    90
_cell_angle_beta     99.061
_cell_angle_gamma    90

_space_group_name_H-M_alt    "P 1"
_space_group_IT_number       1

loop_
  _space_group_symop_operation_xyz
  'x, y, z'

loop_
  _atom_site_type_symbol
  _atom_site_label
  _atom_site_symmetry_multiplicity
  _atom_site_fract_x
  _atom_site_fract_y
  _atom_site_fract_z
  _atom_site_occupancy
  Eu  Eu1       1.0  0.50000  0.47042  0.75000  1.0000
  Eu  Eu2       1.0  0.50000  0.52958  0.25000  1.0000
  Eu  Eu3       1.0  0.00000  0.01621  0.75000  1.0000
  Eu  Eu4       1.0  0.00000  0.98379  0.25000  1.0000
  S   S1        1.0  0.66014  0.59189  0.79168  1.0000
  S   S2        1.0  0.33986  0.59189  0.70832  1.0000
  S   S3        1.0  0.33986  0.40811  0.20832  1.0000
  S   S4        1.0  0.66014  0.40811  0.29168  1.0000
  S   S5        1.0  0.89113  0.83179  0.72104  1.0000
  S   S6        1.0  0.10887  0.83179  0.77896  1.0000
  S   S7        1.0  0.10887  0.16821  0.27896  1.0000
  S   S8        1.0  0.89113  0.16821  0.22104  1.0000
  O   O1        1.0  0.52848  0.56935  0.93750  1.0000
  O   O2        1.0  0.47152  0.56935  0.56250  1.0000
  O   O3        1.0  0.47152  0.43065  0.06250  1.0000
  O   O4        1.0  0.52848  0.43065  0.43750  1.0000
  O   O5        1.0  0.40385  0.40679  0.58650  1.0000
  O   O6        1.0  0.59615  0.40679  0.91350  1.0000
  O   O7        1.0  0.59615  0.59321  0.41350  1.0000
  O   O8        1.0  0.40385  0.59321  0.08650  1.0000
  H   H1        1.0  0.40840  0.35490  0.58580  1.0000
  H   H2        1.0  0.59160  0.35490  0.91420  1.0000
  H   H3        1.0  0.59160  0.64510  0.41420  1.0000
  H   H4        1.0  0.40840  0.64510  0.08580  1.0000
  H   H5        1.0  0.40270  0.42440  0.49960  1.0000
  H   H6        1.0  0.59730  0.42440  0.00040  1.0000
  H   H7        1.0  0.59730  0.57560  0.50040  1.0000
  H   H8        1.0  0.40270  0.57560  0.99960  1.0000
  O   O9        1.0  0.55016  0.64424  0.13620  1.0000
  O   O10       1.0  0.44984  0.64424  0.36380  1.0000
  O   O11       1.0  0.44984  0.35576  0.86380  1.0000
  O   O12       1.0  0.55016  0.35576  0.63620  1.0000
  O   O13       1.0  0.02896  0.13998  0.89630  1.0000
  O   O14       1.0  0.97104  0.13998  0.60370  1.0000
  O   O15       1.0  0.97104  0.86002  0.10370  1.0000
  O   O16       1.0  0.02896  0.86002  0.39630  1.0000
  H   H9        1.0  0.06150  0.16590  0.86540  1.0000
  H   H10       1.0  0.93850  0.16590  0.63460  1.0000
  H   H11       1.0  0.93850  0.83410  0.13460  1.0000
  H   H12       1.0  0.06150  0.83410  0.36540  1.0000
  H   H13       1.0  0.04200  0.12690  0.98520  1.0000
  H   H14       1.0  0.95800  0.12690  0.51480  1.0000
  H   H15       1.0  0.95800  0.87310  0.01480  1.0000
  H   H16       1.0  0.04200  0.87310  0.48520  1.0000
  O   O17       1.0  0.60774  0.53837  0.70830  1.0000
  O   O18       1.0  0.39226  0.53837  0.79170  1.0000
  O   O19       1.0  0.39226  0.46163  0.29170  1.0000
  O   O20       1.0  0.60774  0.46163  0.20830  1.0000
  O   O21       1.0  0.68305  0.56206  0.93900  1.0000
  O   O22       1.0  0.31695  0.56206  0.56100  1.0000
  O   O23       1.0  0.31695  0.43794  0.06100  1.0000
  O   O24       1.0  0.68305  0.43794  0.43900  1.0000
  O   O25       1.0  0.71500  0.60803  0.70860  1.0000
  O   O26       1.0  0.28500  0.60803  0.79140  1.0000
  O   O27       1.0  0.28500  0.39197  0.29140  1.0000
  O   O28       1.0  0.71500  0.39197  0.20860  1.0000
  O   O29       1.0  0.58696  0.95797  0.62860  1.0000
  O   O30       1.0  0.41304  0.95797  0.87140  1.0000
  O   O31       1.0  0.41304  0.04203  0.37140  1.0000
  O   O32       1.0  0.58696  0.04203  0.12860  1.0000
  O   O33       1.0  0.93559  0.97240  0.52330  1.0000
  O   O34       1.0  0.06441  0.97240  0.97670  1.0000
  O   O35       1.0  0.06441  0.02760  0.47670  1.0000
  O   O36       1.0  0.93559  0.02760  0.02330  1.0000
  O   O37       1.0  0.88751  0.93524  0.30180  1.0000
  O   O38       1.0  0.11249  0.93524  0.19820  1.0000
  O   O39       1.0  0.11249  0.06476  0.69820  1.0000
  O   O40       1.0  0.88751  0.06476  0.80180  1.0000
  O   O41       1.0  0.93295  0.89594  0.80160  1.0000
  O   O42       1.0  0.06705  0.89594  0.69840  1.0000
  O   O43       1.0  0.06705  0.10406  0.19840  1.0000
  O   O44       1.0  0.93295  0.10406  0.30160  1.0000
  O   O45       1.0  0.92481  0.79210  0.61200  1.0000
  O   O46       1.0  0.07519  0.79210  0.88800  1.0000
  O   O47       1.0  0.07519  0.20790  0.38800  1.0000
  O   O48       1.0  0.92481  0.20790  0.11200  1.0000
  O   O49       1.0  0.86541  0.77640  0.82270  1.0000
  O   O50       1.0  0.13459  0.77640  0.67730  1.0000
  O   O51       1.0  0.13459  0.22360  0.17730  1.0000
  O   O52       1.0  0.86541  0.22360  0.32270  1.0000
  C   C1        1.0  0.57684  0.70130  0.91790  1.0000
  C   C2        1.0  0.42316  0.70130  0.58210  1.0000
  C   C3        1.0  0.42316  0.29870  0.08210  1.0000
  C   C4        1.0  0.57684  0.29870  0.41790  1.0000
  C   C5        1.0  0.62002  0.68890  0.81250  1.0000
  C   C6        1.0  0.37998  0.68890  0.68750  1.0000
  C   C7        1.0  0.37998  0.31110  0.18750  1.0000
  C   C8        1.0  0.62002  0.31110  0.31250  1.0000
  C   C9        1.0  0.63790  0.75380  0.72990  1.0000
  C   C10       1.0  0.36210  0.75380  0.77010  1.0000
  C   C11       1.0  0.36210  0.24620  0.27010  1.0000
  C   C12       1.0  0.63790  0.24620  0.22990  1.0000
  H   H17       1.0  0.66670  0.74480  0.66070  1.0000
  H   H18       1.0  0.33330  0.74480  0.83930  1.0000
  H   H19       1.0  0.33330  0.25520  0.33930  1.0000
  H   H20       1.0  0.66670  0.25520  0.16070  1.0000
  C   C13       1.0  0.61330  0.83220  0.74930  1.0000
  C   C14       1.0  0.38670  0.83220  0.75070  1.0000
  C   C15       1.0  0.38670  0.16780  0.25070  1.0000
  C   C16       1.0  0.61330  0.16780  0.24930  1.0000
  C   C17       1.0  0.57242  0.84500  0.85690  1.0000
  C   C18       1.0  0.42758  0.84500  0.64310  1.0000
  C   C19       1.0  0.42758  0.15500  0.14310  1.0000
  C   C20       1.0  0.57242  0.15500  0.35690  1.0000
  H   H21       1.0  0.55710  0.89750  0.87370  1.0000
  H   H22       1.0  0.44290  0.89750  0.62630  1.0000
  H   H23       1.0  0.44290  0.10250  0.12630  1.0000
  H   H24       1.0  0.55710  0.10250  0.37370  1.0000
  C   C21       1.0  0.55455  0.78070  0.93860  1.0000
  C   C22       1.0  0.44545  0.78070  0.56140  1.0000
  C   C23       1.0  0.44545  0.21930  0.06140  1.0000
  C   C24       1.0  0.55455  0.21930  0.43860  1.0000
  H   H25       1.0  0.52680  0.79040  0.00960  1.0000
  H   H26       1.0  0.47320  0.79040  0.49040  1.0000
  H   H27       1.0  0.47320  0.20960  0.99040  1.0000
  H   H28       1.0  0.52680  0.20960  0.50960  1.0000
  C   C25       1.0  0.55061  0.63310  0.00210  1.0000
  C   C26       1.0  0.44939  0.63310  0.49790  1.0000
  C   C27       1.0  0.44939  0.36690  0.99790  1.0000
  C   C28       1.0  0.55061  0.36690  0.50210  1.0000
  C   C29       1.0  0.62797  0.90230  0.65510  1.0000
  C   C30       1.0  0.37203  0.90230  0.84490  1.0000
  C   C31       1.0  0.37203  0.09770  0.34490  1.0000
  C   C32       1.0  0.62797  0.09770  0.15510  1.0000
  C   C33       1.0  0.69473  0.90580  0.59650  1.0000
  C   C34       1.0  0.30527  0.90580  0.90350  1.0000
  C   C35       1.0  0.30527  0.09420  0.40350  1.0000
  C   C36       1.0  0.69473  0.09420  0.09650  1.0000
  C   C37       1.0  0.75439  0.87090  0.67180  1.0000
  C   C38       1.0  0.24561  0.87090  0.82820  1.0000
  C   C39       1.0  0.24561  0.12910  0.32820  1.0000
  C   C40       1.0  0.75439  0.12910  0.17180  1.0000
  H   H29       1.0  0.75240  0.84020  0.75590  1.0000
  H   H30       1.0  0.24760  0.84020  0.74410  1.0000
  H   H31       1.0  0.24760  0.15980  0.24410  1.0000
  H   H32       1.0  0.75240  0.15980  0.25590  1.0000
  C   C41       1.0  0.81730  0.88140  0.62240  1.0000
  C   C42       1.0  0.18270  0.88140  0.87760  1.0000
  C   C43       1.0  0.18270  0.11860  0.37760  1.0000
  C   C44       1.0  0.81730  0.11860  0.12240  1.0000
  C   C45       1.0  0.82022  0.92470  0.49270  1.0000
  C   C46       1.0  0.17978  0.92470  0.00730  1.0000
  C   C47       1.0  0.17978  0.07530  0.50730  1.0000
  C   C48       1.0  0.82022  0.07530  0.99270  1.0000
  C   C49       1.0  0.75920  0.95650  0.41500  1.0000
  C   C50       1.0  0.24080  0.95650  0.08500  1.0000
  C   C51       1.0  0.24080  0.04350  0.58500  1.0000
  C   C52       1.0  0.75920  0.04350  0.91500  1.0000
  H   H33       1.0  0.76010  0.98360  0.32670  1.0000
  H   H34       1.0  0.23990  0.98360  0.17330  1.0000
  H   H35       1.0  0.23990  0.01640  0.67330  1.0000
  H   H36       1.0  0.76010  0.01640  0.82670  1.0000
  C   C53       1.0  0.69726  0.94830  0.46780  1.0000
  C   C54       1.0  0.30274  0.94830  0.03220  1.0000
  C   C55       1.0  0.30274  0.05170  0.53220  1.0000
  C   C56       1.0  0.69726  0.05170  0.96780  1.0000
  H   H37       1.0  0.65740  0.97140  0.41650  1.0000
  H   H38       1.0  0.34260  0.97140  0.08350  1.0000
  H   H39       1.0  0.34260  0.02860  0.58350  1.0000
  H   H40       1.0  0.65740  0.02860  0.91650  1.0000
  C   C57       1.0  0.88564  0.94410  0.43630  1.0000
  C   C58       1.0  0.11436  0.94410  0.06370  1.0000
  C   C59       1.0  0.11436  0.05590  0.56370  1.0000
  C   C60       1.0  0.88564  0.05590  0.93630  1.0000
