data_image0
_chemical_formula_structural       Gd4S8O8H8O8H8O36C12H4C8H4C4H4C16H4C12H4C4H4C4
_chemical_formula_sum              "Gd4 S8 O52 H40 C60"
_cell_length_a       19.6583
_cell_length_b       16.301
_cell_length_c       9.2484
_cell_angle_alpha    90
_cell_angle_beta     98.577
_cell_angle_gamma    90

_space_group_name_H-M_alt    "P 1"
_space_group_IT_number       1

loop_
  _space_group_symop_operation_xyz
  'x, y, z'

loop_
  _atom_site_type_symbol
  _atom_site_label
  _atom_site_symmetry_multiplicity
  _atom_site_fract_x
  _atom_site_fract_y
  _atom_site_fract_z
  _atom_site_occupancy
  Gd  Gd1       1.0  0.50000  0.47018  0.75000  1.0000
  Gd  Gd2       1.0  0.50000  0.52982  0.25000  1.0000
  Gd  Gd3       1.0  0.00000  0.01634  0.75000  1.0000
  Gd  Gd4       1.0  0.00000  0.98366  0.25000  1.0000
  S   S1        1.0  0.65979  0.59143  0.78860  1.0000
  S   S2        1.0  0.34021  0.59143  0.71140  1.0000
  S   S3        1.0  0.34021  0.40857  0.21140  1.0000
  S   S4        1.0  0.65979  0.40857  0.28860  1.0000
  S   S5        1.0  0.89118  0.83259  0.72440  1.0000
  S   S6        1.0  0.10882  0.83259  0.77560  1.0000
  S   S7        1.0  0.10882  0.16741  0.27560  1.0000
  S   S8        1.0  0.89118  0.16741  0.22440  1.0000
  O   O1        1.0  0.52820  0.56820  0.93590  1.0000
  O   O2        1.0  0.47180  0.56820  0.56410  1.0000
  O   O3        1.0  0.47180  0.43180  0.06410  1.0000
  O   O4        1.0  0.52820  0.43180  0.43590  1.0000
  O   O5        1.0  0.40430  0.40690  0.58820  1.0000
  O   O6        1.0  0.59570  0.40690  0.91180  1.0000
  O   O7        1.0  0.59570  0.59310  0.41180  1.0000
  O   O8        1.0  0.40430  0.59310  0.08820  1.0000
  H   H1        1.0  0.40890  0.35500  0.58750  1.0000
  H   H2        1.0  0.59110  0.35500  0.91250  1.0000
  H   H3        1.0  0.59110  0.64500  0.41250  1.0000
  H   H4        1.0  0.40890  0.64500  0.08750  1.0000
  H   H5        1.0  0.40320  0.42450  0.50130  1.0000
  H   H6        1.0  0.59680  0.42450  0.99870  1.0000
  H   H7        1.0  0.59680  0.57550  0.49870  1.0000
  H   H8        1.0  0.40320  0.57550  0.00130  1.0000
  O   O9        1.0  0.55100  0.64250  0.13390  1.0000
  O   O10       1.0  0.44900  0.64250  0.36610  1.0000
  O   O11       1.0  0.44900  0.35750  0.86610  1.0000
  O   O12       1.0  0.55100  0.35750  0.63390  1.0000
  O   O13       1.0  0.02880  0.13860  0.89770  1.0000
  O   O14       1.0  0.97120  0.13860  0.60230  1.0000
  O   O15       1.0  0.97120  0.86140  0.10230  1.0000
  O   O16       1.0  0.02880  0.86140  0.39770  1.0000
  H   H9        1.0  0.06130  0.16450  0.86690  1.0000
  H   H10       1.0  0.93870  0.16450  0.63310  1.0000
  H   H11       1.0  0.93870  0.83550  0.13310  1.0000
  H   H12       1.0  0.06130  0.83550  0.36690  1.0000
  H   H13       1.0  0.04190  0.12560  0.98660  1.0000
  H   H14       1.0  0.95810  0.12560  0.51340  1.0000
  H   H15       1.0  0.95810  0.87440  0.01340  1.0000
  H   H16       1.0  0.04190  0.87440  0.48660  1.0000
  O   O17       1.0  0.60760  0.53750  0.70700  1.0000
  O   O18       1.0  0.39240  0.53750  0.79300  1.0000
  O   O19       1.0  0.39240  0.46250  0.29300  1.0000
  O   O20       1.0  0.60760  0.46250  0.20700  1.0000
  O   O21       1.0  0.68310  0.56150  0.93510  1.0000
  O   O22       1.0  0.31690  0.56150  0.56490  1.0000
  O   O23       1.0  0.31690  0.43850  0.06490  1.0000
  O   O24       1.0  0.68310  0.43850  0.43510  1.0000
  O   O25       1.0  0.71450  0.60740  0.70420  1.0000
  O   O26       1.0  0.28550  0.60740  0.79580  1.0000
  O   O27       1.0  0.28550  0.39260  0.29580  1.0000
  O   O28       1.0  0.71450  0.39260  0.20420  1.0000
  O   O29       1.0  0.58630  0.95790  0.62990  1.0000
  O   O30       1.0  0.41370  0.95790  0.87010  1.0000
  O   O31       1.0  0.41370  0.04210  0.37010  1.0000
  O   O32       1.0  0.58630  0.04210  0.12990  1.0000
  O   O33       1.0  0.93620  0.97260  0.52700  1.0000
  O   O34       1.0  0.06380  0.97260  0.97300  1.0000
  O   O35       1.0  0.06380  0.02740  0.47300  1.0000
  O   O36       1.0  0.93620  0.02740  0.02700  1.0000
  O   O37       1.0  0.88890  0.93570  0.30520  1.0000
  O   O38       1.0  0.11110  0.93570  0.19480  1.0000
  O   O39       1.0  0.11110  0.06430  0.69480  1.0000
  O   O40       1.0  0.88890  0.06430  0.80520  1.0000
  O   O41       1.0  0.93340  0.89640  0.80310  1.0000
  O   O42       1.0  0.06660  0.89640  0.69690  1.0000
  O   O43       1.0  0.06660  0.10360  0.19690  1.0000
  O   O44       1.0  0.93340  0.10360  0.30310  1.0000
  O   O45       1.0  0.92500  0.79180  0.61670  1.0000
  O   O46       1.0  0.07500  0.79180  0.88330  1.0000
  O   O47       1.0  0.07500  0.20820  0.38330  1.0000
  O   O48       1.0  0.92500  0.20820  0.11670  1.0000
  O   O49       1.0  0.86530  0.77820  0.82870  1.0000
  O   O50       1.0  0.13470  0.77820  0.67130  1.0000
  O   O51       1.0  0.13470  0.22180  0.17130  1.0000
  O   O52       1.0  0.86530  0.22180  0.32870  1.0000
  C   C1        1.0  0.57710  0.70010  0.91830  1.0000
  C   C2        1.0  0.42290  0.70010  0.58170  1.0000
  C   C3        1.0  0.42290  0.29990  0.08170  1.0000
  C   C4        1.0  0.57710  0.29990  0.41830  1.0000
  C   C5        1.0  0.62090  0.68790  0.81420  1.0000
  C   C6        1.0  0.37910  0.68790  0.68580  1.0000
  C   C7        1.0  0.37910  0.31210  0.18580  1.0000
  C   C8        1.0  0.62090  0.31210  0.31420  1.0000
  C   C9        1.0  0.63780  0.75300  0.73060  1.0000
  C   C10       1.0  0.36220  0.75300  0.76940  1.0000
  C   C11       1.0  0.36220  0.24700  0.26940  1.0000
  C   C12       1.0  0.63780  0.24700  0.23060  1.0000
  H   H17       1.0  0.66610  0.74410  0.66010  1.0000
  H   H18       1.0  0.33390  0.74410  0.83990  1.0000
  H   H19       1.0  0.33390  0.25590  0.33990  1.0000
  H   H20       1.0  0.66610  0.25590  0.16010  1.0000
  C   C13       1.0  0.61310  0.83200  0.75020  1.0000
  C   C14       1.0  0.38690  0.83200  0.74980  1.0000
  C   C15       1.0  0.38690  0.16800  0.24980  1.0000
  C   C16       1.0  0.61310  0.16800  0.25020  1.0000
  C   C17       1.0  0.57220  0.84400  0.85810  1.0000
  C   C18       1.0  0.42780  0.84400  0.64190  1.0000
  C   C19       1.0  0.42780  0.15600  0.14190  1.0000
  C   C20       1.0  0.57220  0.15600  0.35810  1.0000
  H   H21       1.0  0.55680  0.89660  0.87540  1.0000
  H   H22       1.0  0.44320  0.89660  0.62460  1.0000
  H   H23       1.0  0.44320  0.10340  0.12460  1.0000
  H   H24       1.0  0.55680  0.10340  0.37540  1.0000
  C   C21       1.0  0.55420  0.77970  0.93950  1.0000
  C   C22       1.0  0.44580  0.77970  0.56050  1.0000
  C   C23       1.0  0.44580  0.22030  0.06050  1.0000
  C   C24       1.0  0.55420  0.22030  0.43950  1.0000
  H   H25       1.0  0.52620  0.78910  0.01050  1.0000
  H   H26       1.0  0.47380  0.78910  0.48950  1.0000
  H   H27       1.0  0.47380  0.21090  0.98950  1.0000
  H   H28       1.0  0.52620  0.21090  0.51050  1.0000
  C   C25       1.0  0.55090  0.63150  0.00140  1.0000
  C   C26       1.0  0.44910  0.63150  0.49860  1.0000
  C   C27       1.0  0.44910  0.36850  0.99860  1.0000
  C   C28       1.0  0.55090  0.36850  0.50140  1.0000
  C   C29       1.0  0.62820  0.90240  0.65660  1.0000
  C   C30       1.0  0.37180  0.90240  0.84340  1.0000
  C   C31       1.0  0.37180  0.09760  0.34340  1.0000
  C   C32       1.0  0.62820  0.09760  0.15660  1.0000
  C   C33       1.0  0.69500  0.90590  0.59860  1.0000
  C   C34       1.0  0.30500  0.90590  0.90140  1.0000
  C   C35       1.0  0.30500  0.09410  0.40140  1.0000
  C   C36       1.0  0.69500  0.09410  0.09860  1.0000
  C   C37       1.0  0.75400  0.87150  0.67300  1.0000
  C   C38       1.0  0.24600  0.87150  0.82700  1.0000
  C   C39       1.0  0.24600  0.12850  0.32700  1.0000
  C   C40       1.0  0.75400  0.12850  0.17300  1.0000
  H   H29       1.0  0.75140  0.84060  0.75650  1.0000
  H   H30       1.0  0.24860  0.84060  0.74350  1.0000
  H   H31       1.0  0.24860  0.15940  0.24350  1.0000
  H   H32       1.0  0.75140  0.15940  0.25650  1.0000
  C   C41       1.0  0.81770  0.88210  0.62520  1.0000
  C   C42       1.0  0.18230  0.88210  0.87480  1.0000
  C   C43       1.0  0.18230  0.11790  0.37480  1.0000
  C   C44       1.0  0.81770  0.11790  0.12520  1.0000
  C   C45       1.0  0.82020  0.92580  0.49500  1.0000
  C   C46       1.0  0.17980  0.92580  0.00500  1.0000
  C   C47       1.0  0.17980  0.07420  0.50500  1.0000
  C   C48       1.0  0.82020  0.07420  0.99500  1.0000
  C   C49       1.0  0.76100  0.95650  0.41830  1.0000
  C   C50       1.0  0.23900  0.95650  0.08170  1.0000
  C   C51       1.0  0.23900  0.04350  0.58170  1.0000
  C   C52       1.0  0.76100  0.04350  0.91830  1.0000
  H   H33       1.0  0.76250  0.98330  0.33010  1.0000
  H   H34       1.0  0.23750  0.98330  0.16990  1.0000
  H   H35       1.0  0.23750  0.01670  0.66990  1.0000
  H   H36       1.0  0.76250  0.01670  0.83010  1.0000
  C   C53       1.0  0.69800  0.94810  0.47020  1.0000
  C   C54       1.0  0.30200  0.94810  0.02980  1.0000
  C   C55       1.0  0.30200  0.05190  0.52980  1.0000
  C   C56       1.0  0.69800  0.05190  0.97020  1.0000
  H   H37       1.0  0.65830  0.97090  0.41840  1.0000
  H   H38       1.0  0.34170  0.97090  0.08160  1.0000
  H   H39       1.0  0.34170  0.02910  0.58160  1.0000
  H   H40       1.0  0.65830  0.02910  0.91840  1.0000
  C   C57       1.0  0.88690  0.94420  0.44020  1.0000
  C   C58       1.0  0.11310  0.94420  0.05980  1.0000
  C   C59       1.0  0.11310  0.05580  0.55980  1.0000
  C   C60       1.0  0.88690  0.05580  0.94020  1.0000
