data_image0
_chemical_formula_structural       Zn4O24N4H4C4H12C4H12C12H4C4H4C12H4C4H4C12H4C4H4
_chemical_formula_sum              "Zn4 O24 N4 H52 C56"
_cell_length_a       17.546
_cell_length_b       11.158
_cell_length_c       18.392
_cell_angle_alpha    90
_cell_angle_beta     118.33
_cell_angle_gamma    90

_space_group_name_H-M_alt    "P 1"
_space_group_IT_number       1

loop_
  _space_group_symop_operation_xyz
  'x, y, z'

loop_
  _atom_site_type_symbol
  _atom_site_label
  _atom_site_symmetry_multiplicity
  _atom_site_fract_x
  _atom_site_fract_y
  _atom_site_fract_z
  _atom_site_occupancy
  Zn  Zn1       1.0  0.83923  0.16180  0.66285  1.0000
  Zn  Zn2       1.0  0.16077  0.66180  0.83715  1.0000
  Zn  Zn3       1.0  0.16077  0.83820  0.33715  1.0000
  Zn  Zn4       1.0  0.83923  0.33820  0.16285  1.0000
  O   O1        1.0  0.87436  0.08070  0.59224  1.0000
  O   O2        1.0  0.12564  0.58070  0.90776  1.0000
  O   O3        1.0  0.12564  0.91930  0.40776  1.0000
  O   O4        1.0  0.87436  0.41930  0.09224  1.0000
  O   O5        1.0  0.00115  0.17400  0.67048  1.0000
  O   O6        1.0  0.99885  0.67400  0.82952  1.0000
  O   O7        1.0  0.99885  0.82600  0.32952  1.0000
  O   O8        1.0  0.00115  0.32600  0.17048  1.0000
  O   O9        1.0  0.72853  0.07420  0.60200  1.0000
  O   O10       1.0  0.27147  0.57420  0.89800  1.0000
  O   O11       1.0  0.27147  0.92580  0.39800  1.0000
  O   O12       1.0  0.72853  0.42580  0.10200  1.0000
  O   O13       1.0  0.67077  0.21620  0.64010  1.0000
  O   O14       1.0  0.32923  0.71620  0.85990  1.0000
  O   O15       1.0  0.32923  0.78380  0.35990  1.0000
  O   O16       1.0  0.67077  0.28380  0.14010  1.0000
  O   O17       1.0  0.90095  0.15110  0.78942  1.0000
  O   O18       1.0  0.09905  0.65110  0.71058  1.0000
  O   O19       1.0  0.09905  0.84890  0.21058  1.0000
  O   O20       1.0  0.90095  0.34890  0.28942  1.0000
  O   O21       1.0  0.90920  0.95820  0.76910  1.0000
  O   O22       1.0  0.09080  0.45820  0.73090  1.0000
  O   O23       1.0  0.09080  0.04180  0.23090  1.0000
  O   O24       1.0  0.90920  0.54180  0.26910  1.0000
  N   N1        1.0  0.82220  0.34220  0.64170  1.0000
  N   N2        1.0  0.17780  0.84220  0.85830  1.0000
  N   N3        1.0  0.17780  0.65780  0.35830  1.0000
  N   N4        1.0  0.82220  0.15780  0.14170  1.0000
  H   H1        1.0  0.78040  0.31690  0.64800  1.0000
  H   H2        1.0  0.21960  0.81690  0.85200  1.0000
  H   H3        1.0  0.21960  0.68310  0.35200  1.0000
  H   H4        1.0  0.78040  0.18310  0.14800  1.0000
  C   C1        1.0  0.79440  0.38020  0.55540  1.0000
  C   C2        1.0  0.20560  0.88020  0.94460  1.0000
  C   C3        1.0  0.20560  0.61980  0.44460  1.0000
  C   C4        1.0  0.79440  0.11980  0.05540  1.0000
  H   H5        1.0  0.78380  0.46680  0.55040  1.0000
  H   H6        1.0  0.21620  0.96680  0.94960  1.0000
  H   H7        1.0  0.21620  0.53320  0.44960  1.0000
  H   H8        1.0  0.78380  0.03320  0.05040  1.0000
  H   H9        1.0  0.74110  0.33800  0.51790  1.0000
  H   H10       1.0  0.25890  0.83800  0.98210  1.0000
  H   H11       1.0  0.25890  0.66200  0.48210  1.0000
  H   H12       1.0  0.74110  0.16200  0.01790  1.0000
  H   H13       1.0  0.84000  0.36110  0.54080  1.0000
  H   H14       1.0  0.16000  0.86110  0.95920  1.0000
  H   H15       1.0  0.16000  0.63890  0.45920  1.0000
  H   H16       1.0  0.84000  0.13890  0.04080  1.0000
  C   C5        1.0  0.88120  0.41690  0.70790  1.0000
  C   C6        1.0  0.11880  0.91690  0.79210  1.0000
  C   C7        1.0  0.11880  0.58310  0.29210  1.0000
  C   C8        1.0  0.88120  0.08310  0.20790  1.0000
  H   H17       1.0  0.93850  0.41320  0.71100  1.0000
  H   H18       1.0  0.06150  0.91320  0.78900  1.0000
  H   H19       1.0  0.06150  0.58680  0.28900  1.0000
  H   H20       1.0  0.93850  0.08680  0.21100  1.0000
  H   H21       1.0  0.88530  0.38880  0.76010  1.0000
  H   H22       1.0  0.11470  0.88880  0.73990  1.0000
  H   H23       1.0  0.11470  0.61120  0.23990  1.0000
  H   H24       1.0  0.88530  0.11120  0.26010  1.0000
  H   H25       1.0  0.86020  0.49980  0.69790  1.0000
  H   H26       1.0  0.13980  0.99980  0.80210  1.0000
  H   H27       1.0  0.13980  0.50020  0.30210  1.0000
  H   H28       1.0  0.86020  0.00020  0.19790  1.0000
  C   C9        1.0  0.95130  0.10650  0.61150  1.0000
  C   C10       1.0  0.04870  0.60650  0.88850  1.0000
  C   C11       1.0  0.04870  0.89350  0.38850  1.0000
  C   C12       1.0  0.95130  0.39350  0.11150  1.0000
  C   C13       1.0  0.97600  0.05010  0.55360  1.0000
  C   C14       1.0  0.02400  0.55010  0.94640  1.0000
  C   C15       1.0  0.02400  0.94990  0.44640  1.0000
  C   C16       1.0  0.97600  0.44990  0.05360  1.0000
  C   C17       1.0  0.91910  0.97610  0.48520  1.0000
  C   C18       1.0  0.08090  0.47610  0.01480  1.0000
  C   C19       1.0  0.08090  0.02390  0.51480  1.0000
  C   C20       1.0  0.91910  0.52390  0.98520  1.0000
  H   H29       1.0  0.86230  0.96110  0.47700  1.0000
  H   H30       1.0  0.13770  0.46110  0.02300  1.0000
  H   H31       1.0  0.13770  0.03890  0.52300  1.0000
  H   H32       1.0  0.86230  0.53890  0.97700  1.0000
  C   C21       1.0  0.05690  0.07290  0.56790  1.0000
  C   C22       1.0  0.94310  0.57290  0.93210  1.0000
  C   C23       1.0  0.94310  0.92710  0.43210  1.0000
  C   C24       1.0  0.05690  0.42710  0.06790  1.0000
  H   H33       1.0  0.09540  0.12100  0.61310  1.0000
  H   H34       1.0  0.90460  0.62100  0.88690  1.0000
  H   H35       1.0  0.90460  0.87900  0.38690  1.0000
  H   H36       1.0  0.09540  0.37900  0.11310  1.0000
  C   C25       1.0  0.66510  0.12240  0.60180  1.0000
  C   C26       1.0  0.33490  0.62240  0.89820  1.0000
  C   C27       1.0  0.33490  0.87760  0.39820  1.0000
  C   C28       1.0  0.66510  0.37760  0.10180  1.0000
  C   C29       1.0  0.57970  0.05780  0.54850  1.0000
  C   C30       1.0  0.42030  0.55780  0.95150  1.0000
  C   C31       1.0  0.42030  0.94220  0.45150  1.0000
  C   C32       1.0  0.57970  0.44220  0.04850  1.0000
  C   C33       1.0  0.56780  0.96830  0.49200  1.0000
  C   C34       1.0  0.43220  0.46830  0.00800  1.0000
  C   C35       1.0  0.43220  0.03170  0.50800  1.0000
  C   C36       1.0  0.56780  0.53170  0.99200  1.0000
  H   H37       1.0  0.61630  0.94490  0.48550  1.0000
  H   H38       1.0  0.38370  0.44490  0.01450  1.0000
  H   H39       1.0  0.38370  0.05510  0.51450  1.0000
  H   H40       1.0  0.61630  0.55510  0.98550  1.0000
  C   C37       1.0  0.51090  0.09000  0.55620  1.0000
  C   C38       1.0  0.48910  0.59000  0.94380  1.0000
  C   C39       1.0  0.48910  0.91000  0.44380  1.0000
  C   C40       1.0  0.51090  0.41000  0.05620  1.0000
  H   H41       1.0  0.51520  0.15140  0.59370  1.0000
  H   H42       1.0  0.48480  0.65140  0.90630  1.0000
  H   H43       1.0  0.48480  0.84860  0.40630  1.0000
  H   H44       1.0  0.51520  0.34860  0.09370  1.0000
  C   C41       1.0  0.92240  0.04370  0.81710  1.0000
  C   C42       1.0  0.07760  0.54370  0.68290  1.0000
  C   C43       1.0  0.07760  0.95630  0.18290  1.0000
  C   C44       1.0  0.92240  0.45630  0.31710  1.0000
  C   C45       1.0  0.96390  0.02290  0.91220  1.0000
  C   C46       1.0  0.03610  0.52290  0.58780  1.0000
  C   C47       1.0  0.03610  0.97710  0.08780  1.0000
  C   C48       1.0  0.96390  0.47710  0.41220  1.0000
  C   C49       1.0  0.97760  0.11610  0.96820  1.0000
  C   C50       1.0  0.02240  0.61610  0.53180  1.0000
  C   C51       1.0  0.02240  0.88390  0.03180  1.0000
  C   C52       1.0  0.97760  0.38390  0.46820  1.0000
  H   H45       1.0  0.96290  0.19580  0.94820  1.0000
  H   H46       1.0  0.03710  0.69580  0.55180  1.0000
  H   H47       1.0  0.03710  0.80420  0.05180  1.0000
  H   H48       1.0  0.96290  0.30420  0.44820  1.0000
  C   C53       1.0  0.98640  0.90650  0.94470  1.0000
  C   C54       1.0  0.01360  0.40650  0.55530  1.0000
  C   C55       1.0  0.01360  0.09350  0.05530  1.0000
  C   C56       1.0  0.98640  0.59350  0.44470  1.0000
  H   H49       1.0  0.97780  0.84130  0.90840  1.0000
  H   H50       1.0  0.02220  0.34130  0.59160  1.0000
  H   H51       1.0  0.02220  0.15870  0.09160  1.0000
  H   H52       1.0  0.97780  0.65870  0.40840  1.0000
