data_image0
_chemical_formula_structural       W72Ge8Fe16O272N8H16N8H16C8H16C8H16
_chemical_formula_sum              "W72 Ge8 Fe16 O272 N16 H64 C16"
_cell_length_a       45.118
_cell_length_b       16.866
_cell_length_c       24.124
_cell_angle_alpha    90
_cell_angle_beta     119.215
_cell_angle_gamma    90

_space_group_name_H-M_alt    "P 1"
_space_group_IT_number       1

loop_
  _space_group_symop_operation_xyz
  'x, y, z'

loop_
  _atom_site_type_symbol
  _atom_site_label
  _atom_site_symmetry_multiplicity
  _atom_site_fract_x
  _atom_site_fract_y
  _atom_site_fract_z
  _atom_site_occupancy
  W   W1        1.0  0.21027  0.98192  0.11791  1.0000
  W   W2        1.0  0.78973  0.98192  0.38209  1.0000
  W   W3        1.0  0.71027  0.48192  0.11791  1.0000
  W   W4        1.0  0.28973  0.48192  0.38209  1.0000
  W   W5        1.0  0.78973  0.01808  0.88209  1.0000
  W   W6        1.0  0.21027  0.01808  0.61791  1.0000
  W   W7        1.0  0.28973  0.51808  0.88209  1.0000
  W   W8        1.0  0.71027  0.51808  0.61791  1.0000
  W   W9        1.0  0.18762  0.88976  0.96069  1.0000
  W   W10       1.0  0.81238  0.88976  0.53931  1.0000
  W   W11       1.0  0.68762  0.38976  0.96069  1.0000
  W   W12       1.0  0.31238  0.38976  0.53931  1.0000
  W   W13       1.0  0.81238  0.11024  0.03931  1.0000
  W   W14       1.0  0.18762  0.11024  0.46069  1.0000
  W   W15       1.0  0.31238  0.61024  0.03931  1.0000
  W   W16       1.0  0.68762  0.61024  0.46069  1.0000
  W   W17       1.0  0.27937  0.90719  0.08856  1.0000
  W   W18       1.0  0.72063  0.90719  0.41144  1.0000
  W   W19       1.0  0.77937  0.40719  0.08856  1.0000
  W   W20       1.0  0.22063  0.40719  0.41144  1.0000
  W   W21       1.0  0.72063  0.09281  0.91144  1.0000
  W   W22       1.0  0.27937  0.09281  0.58856  1.0000
  W   W23       1.0  0.22063  0.59281  0.91144  1.0000
  W   W24       1.0  0.77937  0.59281  0.58856  1.0000
  W   W25       1.0  0.31714  0.08881  0.12753  1.0000
  W   W26       1.0  0.68286  0.08881  0.37247  1.0000
  W   W27       1.0  0.81714  0.58881  0.12753  1.0000
  W   W28       1.0  0.18286  0.58881  0.37247  1.0000
  W   W29       1.0  0.68286  0.91119  0.87247  1.0000
  W   W30       1.0  0.31714  0.91119  0.62753  1.0000
  W   W31       1.0  0.18286  0.41119  0.87247  1.0000
  W   W32       1.0  0.81714  0.41119  0.62753  1.0000
  W   W33       1.0  0.24772  0.16308  0.15711  1.0000
  W   W34       1.0  0.75228  0.16308  0.34289  1.0000
  W   W35       1.0  0.74772  0.66308  0.15711  1.0000
  W   W36       1.0  0.25228  0.66308  0.34289  1.0000
  W   W37       1.0  0.75228  0.83692  0.84289  1.0000
  W   W38       1.0  0.24772  0.83692  0.65711  1.0000
  W   W39       1.0  0.25228  0.33692  0.84289  1.0000
  W   W40       1.0  0.74772  0.33692  0.65711  1.0000
  W   W41       1.0  0.16658  0.14654  0.04065  1.0000
  W   W42       1.0  0.83342  0.14654  0.45935  1.0000
  W   W43       1.0  0.66658  0.64654  0.04065  1.0000
  W   W44       1.0  0.33342  0.64654  0.45935  1.0000
  W   W45       1.0  0.83342  0.85346  0.95935  1.0000
  W   W46       1.0  0.16658  0.85346  0.54065  1.0000
  W   W47       1.0  0.33342  0.35346  0.95935  1.0000
  W   W48       1.0  0.66658  0.35346  0.54065  1.0000
  W   W49       1.0  0.14492  0.05751  0.88422  1.0000
  W   W50       1.0  0.85508  0.05751  0.61578  1.0000
  W   W51       1.0  0.64492  0.55751  0.88422  1.0000
  W   W52       1.0  0.35508  0.55751  0.61578  1.0000
  W   W53       1.0  0.85508  0.94249  0.11578  1.0000
  W   W54       1.0  0.14492  0.94249  0.38422  1.0000
  W   W55       1.0  0.35508  0.44249  0.11578  1.0000
  W   W56       1.0  0.64492  0.44249  0.38422  1.0000
  W   W57       1.0  0.20722  0.99277  0.85990  1.0000
  W   W58       1.0  0.79278  0.99277  0.64010  1.0000
  W   W59       1.0  0.70722  0.49277  0.85990  1.0000
  W   W60       1.0  0.29278  0.49277  0.64010  1.0000
  W   W61       1.0  0.79278  0.00723  0.14010  1.0000
  W   W62       1.0  0.20722  0.00723  0.35990  1.0000
  W   W63       1.0  0.29278  0.50723  0.14010  1.0000
  W   W64       1.0  0.70722  0.50723  0.35990  1.0000
  W   W65       1.0  0.29751  0.01052  0.98664  1.0000
  W   W66       1.0  0.70249  0.01052  0.51336  1.0000
  W   W67       1.0  0.79751  0.51052  0.98664  1.0000
  W   W68       1.0  0.20249  0.51052  0.51336  1.0000
  W   W69       1.0  0.70249  0.98948  0.01336  1.0000
  W   W70       1.0  0.29751  0.98948  0.48664  1.0000
  W   W71       1.0  0.20249  0.48948  0.01336  1.0000
  W   W72       1.0  0.79751  0.48948  0.48664  1.0000
  Ge  Ge1       1.0  0.23029  0.08535  0.00621  1.0000
  Ge  Ge2       1.0  0.76971  0.08535  0.49379  1.0000
  Ge  Ge3       1.0  0.73029  0.58535  0.00621  1.0000
  Ge  Ge4       1.0  0.26971  0.58535  0.49379  1.0000
  Ge  Ge5       1.0  0.76971  0.91465  0.99379  1.0000
  Ge  Ge6       1.0  0.23029  0.91465  0.50621  1.0000
  Ge  Ge7       1.0  0.26971  0.41465  0.99379  1.0000
  Ge  Ge8       1.0  0.73029  0.41465  0.50621  1.0000
  Fe  Fe1       1.0  0.21988  0.28142  0.01318  1.0000
  Fe  Fe2       1.0  0.78012  0.28142  0.48682  1.0000
  Fe  Fe3       1.0  0.71988  0.78142  0.01318  1.0000
  Fe  Fe4       1.0  0.28012  0.78142  0.48682  1.0000
  Fe  Fe5       1.0  0.78012  0.71858  0.98682  1.0000
  Fe  Fe6       1.0  0.21988  0.71858  0.51318  1.0000
  Fe  Fe7       1.0  0.28012  0.21858  0.98682  1.0000
  Fe  Fe8       1.0  0.71988  0.21858  0.51318  1.0000
  Fe  Fe9       1.0  0.20116  0.20615  0.87596  1.0000
  Fe  Fe10      1.0  0.79884  0.20615  0.62404  1.0000
  Fe  Fe11      1.0  0.70116  0.70615  0.87596  1.0000
  Fe  Fe12      1.0  0.29884  0.70615  0.62404  1.0000
  Fe  Fe13      1.0  0.79884  0.79385  0.12404  1.0000
  Fe  Fe14      1.0  0.20116  0.79385  0.37596  1.0000
  Fe  Fe15      1.0  0.29884  0.29385  0.12404  1.0000
  Fe  Fe16      1.0  0.70116  0.29385  0.37596  1.0000
  O   O1        1.0  0.20390  0.91300  0.16340  1.0000
  O   O2        1.0  0.79610  0.91300  0.33660  1.0000
  O   O3        1.0  0.70390  0.41300  0.16340  1.0000
  O   O4        1.0  0.29610  0.41300  0.33660  1.0000
  O   O5        1.0  0.79610  0.08700  0.83660  1.0000
  O   O6        1.0  0.20390  0.08700  0.66340  1.0000
  O   O7        1.0  0.29610  0.58700  0.83660  1.0000
  O   O8        1.0  0.70390  0.58700  0.66340  1.0000
  O   O9        1.0  0.25270  0.94550  0.12600  1.0000
  O   O10       1.0  0.74730  0.94550  0.37400  1.0000
  O   O11       1.0  0.75270  0.44550  0.12600  1.0000
  O   O12       1.0  0.24730  0.44550  0.37400  1.0000
  O   O13       1.0  0.74730  0.05450  0.87400  1.0000
  O   O14       1.0  0.25270  0.05450  0.62600  1.0000
  O   O15       1.0  0.24730  0.55450  0.87400  1.0000
  O   O16       1.0  0.75270  0.55450  0.62600  1.0000
  O   O17       1.0  0.17140  0.04790  0.08910  1.0000
  O   O18       1.0  0.82860  0.04790  0.41090  1.0000
  O   O19       1.0  0.67140  0.54790  0.08910  1.0000
  O   O20       1.0  0.32860  0.54790  0.41090  1.0000
  O   O21       1.0  0.82860  0.95210  0.91090  1.0000
  O   O22       1.0  0.17140  0.95210  0.58910  1.0000
  O   O23       1.0  0.32860  0.45210  0.91090  1.0000
  O   O24       1.0  0.67140  0.45210  0.58910  1.0000
  O   O25       1.0  0.21760  0.09080  0.06380  1.0000
  O   O26       1.0  0.78240  0.09080  0.43620  1.0000
  O   O27       1.0  0.71760  0.59080  0.06380  1.0000
  O   O28       1.0  0.28240  0.59080  0.43620  1.0000
  O   O29       1.0  0.78240  0.90920  0.93620  1.0000
  O   O30       1.0  0.21760  0.90920  0.56380  1.0000
  O   O31       1.0  0.28240  0.40920  0.93620  1.0000
  O   O32       1.0  0.71760  0.40920  0.56380  1.0000
  O   O33       1.0  0.23750  0.05870  0.17970  1.0000
  O   O34       1.0  0.76250  0.05870  0.32030  1.0000
  O   O35       1.0  0.73750  0.55870  0.17970  1.0000
  O   O36       1.0  0.26250  0.55870  0.32030  1.0000
  O   O37       1.0  0.76250  0.94130  0.82030  1.0000
  O   O38       1.0  0.23750  0.94130  0.67970  1.0000
  O   O39       1.0  0.26250  0.44130  0.82030  1.0000
  O   O40       1.0  0.73750  0.44130  0.67970  1.0000
  O   O41       1.0  0.19040  0.93090  0.03720  1.0000
  O   O42       1.0  0.80960  0.93090  0.46280  1.0000
  O   O43       1.0  0.69040  0.43090  0.03720  1.0000
  O   O44       1.0  0.30960  0.43090  0.46280  1.0000
  O   O45       1.0  0.80960  0.06910  0.96280  1.0000
  O   O46       1.0  0.19040  0.06910  0.53720  1.0000
  O   O47       1.0  0.30960  0.56910  0.96280  1.0000
  O   O48       1.0  0.69040  0.56910  0.53720  1.0000
  O   O49       1.0  0.17510  0.79320  0.96140  1.0000
  O   O50       1.0  0.82490  0.79320  0.53860  1.0000
  O   O51       1.0  0.67510  0.29320  0.96140  1.0000
  O   O52       1.0  0.32490  0.29320  0.53860  1.0000
  O   O53       1.0  0.82490  0.20680  0.03860  1.0000
  O   O54       1.0  0.17510  0.20680  0.46140  1.0000
  O   O55       1.0  0.32490  0.70680  0.03860  1.0000
  O   O56       1.0  0.67510  0.70680  0.46140  1.0000
  O   O57       1.0  0.14620  0.94230  0.91170  1.0000
  O   O58       1.0  0.85380  0.94230  0.58830  1.0000
  O   O59       1.0  0.64620  0.44230  0.91170  1.0000
  O   O60       1.0  0.35380  0.44230  0.58830  1.0000
  O   O61       1.0  0.85380  0.05770  0.08830  1.0000
  O   O62       1.0  0.14620  0.05770  0.41170  1.0000
  O   O63       1.0  0.35380  0.55770  0.08830  1.0000
  O   O64       1.0  0.64620  0.55770  0.41170  1.0000
  O   O65       1.0  0.19790  0.88810  0.89320  1.0000
  O   O66       1.0  0.80210  0.88810  0.60680  1.0000
  O   O67       1.0  0.69790  0.38810  0.89320  1.0000
  O   O68       1.0  0.30210  0.38810  0.60680  1.0000
  O   O69       1.0  0.80210  0.11190  0.10680  1.0000
  O   O70       1.0  0.19790  0.11190  0.39320  1.0000
  O   O71       1.0  0.30210  0.61190  0.10680  1.0000
  O   O72       1.0  0.69790  0.61190  0.39320  1.0000
  O   O73       1.0  0.20100  0.02260  0.94660  1.0000
  O   O74       1.0  0.79900  0.02260  0.55340  1.0000
  O   O75       1.0  0.70100  0.52260  0.94660  1.0000
  O   O76       1.0  0.29900  0.52260  0.55340  1.0000
  O   O77       1.0  0.79900  0.97740  0.05340  1.0000
  O   O78       1.0  0.20100  0.97740  0.44660  1.0000
  O   O79       1.0  0.29900  0.47740  0.05340  1.0000
  O   O80       1.0  0.70100  0.47740  0.44660  1.0000
  O   O81       1.0  0.23690  0.87500  0.01740  1.0000
  O   O82       1.0  0.76310  0.87500  0.48260  1.0000
  O   O83       1.0  0.73690  0.37500  0.01740  1.0000
  O   O84       1.0  0.26310  0.37500  0.48260  1.0000
  O   O85       1.0  0.76310  0.12500  0.98260  1.0000
  O   O86       1.0  0.23690  0.12500  0.51740  1.0000
  O   O87       1.0  0.26310  0.62500  0.98260  1.0000
  O   O88       1.0  0.73690  0.62500  0.51740  1.0000
  O   O89       1.0  0.29400  0.81780  0.12740  1.0000
  O   O90       1.0  0.70600  0.81780  0.37260  1.0000
  O   O91       1.0  0.79400  0.31780  0.12740  1.0000
  O   O92       1.0  0.20600  0.31780  0.37260  1.0000
  O   O93       1.0  0.70600  0.18220  0.87260  1.0000
  O   O94       1.0  0.29400  0.18220  0.62740  1.0000
  O   O95       1.0  0.20600  0.68220  0.87260  1.0000
  O   O96       1.0  0.79400  0.68220  0.62740  1.0000
  O   O97       1.0  0.29870  0.90890  0.03380  1.0000
  O   O98       1.0  0.70130  0.90890  0.46620  1.0000
  O   O99       1.0  0.79870  0.40890  0.03380  1.0000
  O   O100      1.0  0.20130  0.40890  0.46620  1.0000
  O   O101      1.0  0.70130  0.09110  0.96620  1.0000
  O   O102      1.0  0.29870  0.09110  0.53380  1.0000
  O   O103      1.0  0.20130  0.59110  0.96620  1.0000
  O   O104      1.0  0.79870  0.59110  0.53380  1.0000
  O   O105      1.0  0.26960  0.03570  0.04210  1.0000
  O   O106      1.0  0.73040  0.03570  0.45790  1.0000
  O   O107      1.0  0.76960  0.53570  0.04210  1.0000
  O   O108      1.0  0.23040  0.53570  0.45790  1.0000
  O   O109      1.0  0.73040  0.96430  0.95790  1.0000
  O   O110      1.0  0.26960  0.96430  0.54210  1.0000
  O   O111      1.0  0.23040  0.46430  0.95790  1.0000
  O   O112      1.0  0.76960  0.46430  0.54210  1.0000
  O   O113      1.0  0.31500  0.97380  0.14740  1.0000
  O   O114      1.0  0.68500  0.97380  0.35260  1.0000
  O   O115      1.0  0.81500  0.47380  0.14740  1.0000
  O   O116      1.0  0.18500  0.47380  0.35260  1.0000
  O   O117      1.0  0.68500  0.02620  0.85260  1.0000
  O   O118      1.0  0.31500  0.02620  0.64740  1.0000
  O   O119      1.0  0.18500  0.52620  0.85260  1.0000
  O   O120      1.0  0.81500  0.52620  0.64740  1.0000
  O   O121      1.0  0.35660  0.10810  0.19160  1.0000
  O   O122      1.0  0.64340  0.10810  0.30840  1.0000
  O   O123      1.0  0.85660  0.60810  0.19160  1.0000
  O   O124      1.0  0.14340  0.60810  0.30840  1.0000
  O   O125      1.0  0.64340  0.89190  0.80840  1.0000
  O   O126      1.0  0.35660  0.89190  0.69160  1.0000
  O   O127      1.0  0.14340  0.39190  0.80840  1.0000
  O   O128      1.0  0.85660  0.39190  0.69160  1.0000
  O   O129      1.0  0.30540  0.18370  0.08300  1.0000
  O   O130      1.0  0.69460  0.18370  0.41700  1.0000
  O   O131      1.0  0.80540  0.68370  0.08300  1.0000
  O   O132      1.0  0.19460  0.68370  0.41700  1.0000
  O   O133      1.0  0.69460  0.81630  0.91700  1.0000
  O   O134      1.0  0.30540  0.81630  0.58300  1.0000
  O   O135      1.0  0.19460  0.31630  0.91700  1.0000
  O   O136      1.0  0.80540  0.31630  0.58300  1.0000
  O   O137      1.0  0.33160  0.04640  0.06940  1.0000
  O   O138      1.0  0.66840  0.04640  0.43060  1.0000
  O   O139      1.0  0.83160  0.54640  0.06940  1.0000
  O   O140      1.0  0.16840  0.54640  0.43060  1.0000
  O   O141      1.0  0.66840  0.95360  0.93060  1.0000
  O   O142      1.0  0.33160  0.95360  0.56940  1.0000
  O   O143      1.0  0.16840  0.45360  0.93060  1.0000
  O   O144      1.0  0.83160  0.45360  0.56940  1.0000
  O   O145      1.0  0.28730  0.11160  0.16210  1.0000
  O   O146      1.0  0.71270  0.11160  0.33790  1.0000
  O   O147      1.0  0.78730  0.61160  0.16210  1.0000
  O   O148      1.0  0.21270  0.61160  0.33790  1.0000
  O   O149      1.0  0.71270  0.88840  0.83790  1.0000
  O   O150      1.0  0.28730  0.88840  0.66210  1.0000
  O   O151      1.0  0.21270  0.38840  0.83790  1.0000
  O   O152      1.0  0.78730  0.38840  0.66210  1.0000
  O   O153      1.0  0.26610  0.20710  0.23190  1.0000
  O   O154      1.0  0.73390  0.20710  0.26810  1.0000
  O   O155      1.0  0.76610  0.70710  0.23190  1.0000
  O   O156      1.0  0.23390  0.70710  0.26810  1.0000
  O   O157      1.0  0.73390  0.79290  0.76810  1.0000
  O   O158      1.0  0.26610  0.79290  0.73190  1.0000
  O   O159      1.0  0.23390  0.29290  0.76810  1.0000
  O   O160      1.0  0.76610  0.29290  0.73190  1.0000
  O   O161      1.0  0.25170  0.24070  0.10760  1.0000
  O   O162      1.0  0.74830  0.24070  0.39240  1.0000
  O   O163      1.0  0.75170  0.74070  0.10760  1.0000
  O   O164      1.0  0.24830  0.74070  0.39240  1.0000
  O   O165      1.0  0.74830  0.75930  0.89240  1.0000
  O   O166      1.0  0.25170  0.75930  0.60760  1.0000
  O   O167      1.0  0.24830  0.25930  0.89240  1.0000
  O   O168      1.0  0.75170  0.25930  0.60760  1.0000
  O   O169      1.0  0.19990  0.18770  0.12560  1.0000
  O   O170      1.0  0.80010  0.18770  0.37440  1.0000
  O   O171      1.0  0.69990  0.68770  0.12560  1.0000
  O   O172      1.0  0.30010  0.68770  0.37440  1.0000
  O   O173      1.0  0.80010  0.81230  0.87440  1.0000
  O   O174      1.0  0.19990  0.81230  0.62560  1.0000
  O   O175      1.0  0.30010  0.31230  0.87440  1.0000
  O   O176      1.0  0.69990  0.31230  0.62560  1.0000
  O   O177      1.0  0.12920  0.17960  0.03800  1.0000
  O   O178      1.0  0.87080  0.17960  0.46200  1.0000
  O   O179      1.0  0.62920  0.67960  0.03800  1.0000
  O   O180      1.0  0.37080  0.67960  0.46200  1.0000
  O   O181      1.0  0.87080  0.82040  0.96200  1.0000
  O   O182      1.0  0.12920  0.82040  0.53800  1.0000
  O   O183      1.0  0.37080  0.32040  0.96200  1.0000
  O   O184      1.0  0.62920  0.32040  0.53800  1.0000
  O   O185      1.0  0.17780  0.22700  0.00530  1.0000
  O   O186      1.0  0.82220  0.22700  0.49470  1.0000
  O   O187      1.0  0.67780  0.72700  0.00530  1.0000
  O   O188      1.0  0.32220  0.72700  0.49470  1.0000
  O   O189      1.0  0.82220  0.77300  0.99470  1.0000
  O   O190      1.0  0.17780  0.77300  0.50530  1.0000
  O   O191      1.0  0.32220  0.27300  0.99470  1.0000
  O   O192      1.0  0.67780  0.27300  0.50530  1.0000
  O   O193      1.0  0.14820  0.08390  0.96570  1.0000
  O   O194      1.0  0.85180  0.08390  0.53430  1.0000
  O   O195      1.0  0.64820  0.58390  0.96570  1.0000
  O   O196      1.0  0.35180  0.58390  0.53430  1.0000
  O   O197      1.0  0.85180  0.91610  0.03430  1.0000
  O   O198      1.0  0.14820  0.91610  0.46570  1.0000
  O   O199      1.0  0.35180  0.41610  0.03430  1.0000
  O   O200      1.0  0.64820  0.41610  0.46570  1.0000
  O   O201      1.0  0.10120  0.06150  0.83490  1.0000
  O   O202      1.0  0.89880  0.06150  0.66510  1.0000
  O   O203      1.0  0.60120  0.56150  0.83490  1.0000
  O   O204      1.0  0.39880  0.56150  0.66510  1.0000
  O   O205      1.0  0.89880  0.93850  0.16510  1.0000
  O   O206      1.0  0.10120  0.93850  0.33490  1.0000
  O   O207      1.0  0.39880  0.43850  0.16510  1.0000
  O   O208      1.0  0.60120  0.43850  0.33490  1.0000
  O   O209      1.0  0.15930  0.15350  0.87700  1.0000
  O   O210      1.0  0.84070  0.15350  0.62300  1.0000
  O   O211      1.0  0.65930  0.65350  0.87700  1.0000
  O   O212      1.0  0.34070  0.65350  0.62300  1.0000
  O   O213      1.0  0.84070  0.84650  0.12300  1.0000
  O   O214      1.0  0.15930  0.84650  0.37700  1.0000
  O   O215      1.0  0.34070  0.34650  0.12300  1.0000
  O   O216      1.0  0.65930  0.34650  0.37700  1.0000
  O   O217      1.0  0.15820  0.00760  0.82760  1.0000
  O   O218      1.0  0.84180  0.00760  0.67240  1.0000
  O   O219      1.0  0.65820  0.50760  0.82760  1.0000
  O   O220      1.0  0.34180  0.50760  0.67240  1.0000
  O   O221      1.0  0.84180  0.99240  0.17240  1.0000
  O   O222      1.0  0.15820  0.99240  0.32760  1.0000
  O   O223      1.0  0.34180  0.49240  0.17240  1.0000
  O   O224      1.0  0.65820  0.49240  0.32760  1.0000
  O   O225      1.0  0.20660  0.95260  0.79200  1.0000
  O   O226      1.0  0.79340  0.95260  0.70800  1.0000
  O   O227      1.0  0.70660  0.45260  0.79200  1.0000
  O   O228      1.0  0.29340  0.45260  0.70800  1.0000
  O   O229      1.0  0.79340  0.04740  0.20800  1.0000
  O   O230      1.0  0.20660  0.04740  0.29200  1.0000
  O   O231      1.0  0.29340  0.54740  0.20800  1.0000
  O   O232      1.0  0.70660  0.54740  0.29200  1.0000
  O   O233      1.0  0.21350  0.09480  0.85270  1.0000
  O   O234      1.0  0.78650  0.09480  0.64730  1.0000
  O   O235      1.0  0.71350  0.59480  0.85270  1.0000
  O   O236      1.0  0.28650  0.59480  0.64730  1.0000
  O   O237      1.0  0.78650  0.90520  0.14730  1.0000
  O   O238      1.0  0.21350  0.90520  0.35270  1.0000
  O   O239      1.0  0.28650  0.40520  0.14730  1.0000
  O   O240      1.0  0.71350  0.40520  0.35270  1.0000
  O   O241      1.0  0.25370  0.97260  0.92180  1.0000
  O   O242      1.0  0.74630  0.97260  0.57820  1.0000
  O   O243      1.0  0.75370  0.47260  0.92180  1.0000
  O   O244      1.0  0.24630  0.47260  0.57820  1.0000
  O   O245      1.0  0.74630  0.02740  0.07820  1.0000
  O   O246      1.0  0.25370  0.02740  0.42180  1.0000
  O   O247      1.0  0.24630  0.52740  0.07820  1.0000
  O   O248      1.0  0.75370  0.52740  0.42180  1.0000
  O   O249      1.0  0.32290  0.97510  0.95650  1.0000
  O   O250      1.0  0.67710  0.97510  0.54350  1.0000
  O   O251      1.0  0.82290  0.47510  0.95650  1.0000
  O   O252      1.0  0.17710  0.47510  0.54350  1.0000
  O   O253      1.0  0.67710  0.02490  0.04350  1.0000
  O   O254      1.0  0.32290  0.02490  0.45650  1.0000
  O   O255      1.0  0.17710  0.52490  0.04350  1.0000
  O   O256      1.0  0.82290  0.52490  0.45650  1.0000
  O   O257      1.0  0.28870  0.11050  0.95860  1.0000
  O   O258      1.0  0.71130  0.11050  0.54140  1.0000
  O   O259      1.0  0.78870  0.61050  0.95860  1.0000
  O   O260      1.0  0.21130  0.61050  0.54140  1.0000
  O   O261      1.0  0.71130  0.88950  0.04140  1.0000
  O   O262      1.0  0.28870  0.88950  0.45860  1.0000
  O   O263      1.0  0.21130  0.38950  0.04140  1.0000
  O   O264      1.0  0.78870  0.38950  0.45860  1.0000
  O   O265      1.0  0.23300  0.17780  0.97760  1.0000
  O   O266      1.0  0.76700  0.17780  0.52240  1.0000
  O   O267      1.0  0.73300  0.67780  0.97760  1.0000
  O   O268      1.0  0.26700  0.67780  0.52240  1.0000
  O   O269      1.0  0.76700  0.82220  0.02240  1.0000
  O   O270      1.0  0.23300  0.82220  0.47760  1.0000
  O   O271      1.0  0.26700  0.32220  0.02240  1.0000
  O   O272      1.0  0.73300  0.32220  0.47760  1.0000
  N   N1        1.0  0.16910  0.23960  0.77750  1.0000
  N   N2        1.0  0.83090  0.23960  0.72250  1.0000
  N   N3        1.0  0.66910  0.73960  0.77750  1.0000
  N   N4        1.0  0.33090  0.73960  0.72250  1.0000
  N   N5        1.0  0.83090  0.76040  0.22250  1.0000
  N   N6        1.0  0.16910  0.76040  0.27750  1.0000
  N   N7        1.0  0.33090  0.26040  0.22250  1.0000
  N   N8        1.0  0.66910  0.26040  0.27750  1.0000
  H   H1        1.0  0.14780  0.24580  0.77130  1.0000
  H   H2        1.0  0.85220  0.24580  0.72870  1.0000
  H   H3        1.0  0.64780  0.74580  0.77130  1.0000
  H   H4        1.0  0.35220  0.74580  0.72870  1.0000
  H   H5        1.0  0.85220  0.75420  0.22870  1.0000
  H   H6        1.0  0.14780  0.75420  0.27130  1.0000
  H   H7        1.0  0.35220  0.25420  0.22870  1.0000
  H   H8        1.0  0.64780  0.25420  0.27130  1.0000
  H   H9        1.0  0.17610  0.28750  0.77200  1.0000
  H   H10       1.0  0.82390  0.28750  0.72800  1.0000
  H   H11       1.0  0.67610  0.78750  0.77200  1.0000
  H   H12       1.0  0.32390  0.78750  0.72800  1.0000
  H   H13       1.0  0.82390  0.71250  0.22800  1.0000
  H   H14       1.0  0.17610  0.71250  0.27200  1.0000
  H   H15       1.0  0.32390  0.21250  0.22800  1.0000
  H   H16       1.0  0.67610  0.21250  0.27200  1.0000
  N   N9        1.0  0.13480  0.08390  0.65350  1.0000
  N   N10       1.0  0.86520  0.08390  0.84650  1.0000
  N   N11       1.0  0.63480  0.58390  0.65350  1.0000
  N   N12       1.0  0.36520  0.58390  0.84650  1.0000
  N   N13       1.0  0.86520  0.91610  0.34650  1.0000
  N   N14       1.0  0.13480  0.91610  0.15350  1.0000
  N   N15       1.0  0.36520  0.41610  0.34650  1.0000
  N   N16       1.0  0.63480  0.41610  0.15350  1.0000
  H   H17       1.0  0.14690  0.09490  0.63570  1.0000
  H   H18       1.0  0.85310  0.09490  0.86430  1.0000
  H   H19       1.0  0.64690  0.59490  0.63570  1.0000
  H   H20       1.0  0.35310  0.59490  0.86430  1.0000
  H   H21       1.0  0.85310  0.90510  0.36430  1.0000
  H   H22       1.0  0.14690  0.90510  0.13570  1.0000
  H   H23       1.0  0.35310  0.40510  0.36430  1.0000
  H   H24       1.0  0.64690  0.40510  0.13570  1.0000
  H   H25       1.0  0.11970  0.04720  0.63790  1.0000
  H   H26       1.0  0.88030  0.04720  0.86210  1.0000
  H   H27       1.0  0.61970  0.54720  0.63790  1.0000
  H   H28       1.0  0.38030  0.54720  0.86210  1.0000
  H   H29       1.0  0.88030  0.95280  0.36210  1.0000
  H   H30       1.0  0.11970  0.95280  0.13790  1.0000
  H   H31       1.0  0.38030  0.45280  0.36210  1.0000
  H   H32       1.0  0.61970  0.45280  0.13790  1.0000
  C   C1        1.0  0.16710  0.18630  0.72640  1.0000
  C   C2        1.0  0.83290  0.18630  0.77360  1.0000
  C   C3        1.0  0.66710  0.68630  0.72640  1.0000
  C   C4        1.0  0.33290  0.68630  0.77360  1.0000
  C   C5        1.0  0.83290  0.81370  0.27360  1.0000
  C   C6        1.0  0.16710  0.81370  0.22640  1.0000
  C   C7        1.0  0.33290  0.31370  0.27360  1.0000
  C   C8        1.0  0.66710  0.31370  0.22640  1.0000
  H   H33       1.0  0.16240  0.21730  0.68920  1.0000
  H   H34       1.0  0.83760  0.21730  0.81080  1.0000
  H   H35       1.0  0.66240  0.71730  0.68920  1.0000
  H   H36       1.0  0.33760  0.71730  0.81080  1.0000
  H   H37       1.0  0.83760  0.78270  0.31080  1.0000
  H   H38       1.0  0.16240  0.78270  0.18920  1.0000
  H   H39       1.0  0.33760  0.28270  0.31080  1.0000
  H   H40       1.0  0.66240  0.28270  0.18920  1.0000
  H   H41       1.0  0.18860  0.15950  0.74090  1.0000
  H   H42       1.0  0.81140  0.15950  0.75910  1.0000
  H   H43       1.0  0.68860  0.65950  0.74090  1.0000
  H   H44       1.0  0.31140  0.65950  0.75910  1.0000
  H   H45       1.0  0.81140  0.84050  0.25910  1.0000
  H   H46       1.0  0.18860  0.84050  0.24090  1.0000
  H   H47       1.0  0.31140  0.34050  0.25910  1.0000
  H   H48       1.0  0.68860  0.34050  0.24090  1.0000
  C   C9        1.0  0.14010  0.12780  0.71020  1.0000
  C   C10       1.0  0.85990  0.12780  0.78980  1.0000
  C   C11       1.0  0.64010  0.62780  0.71020  1.0000
  C   C12       1.0  0.35990  0.62780  0.78980  1.0000
  C   C13       1.0  0.85990  0.87220  0.28980  1.0000
  C   C14       1.0  0.14010  0.87220  0.21020  1.0000
  C   C15       1.0  0.35990  0.37220  0.28980  1.0000
  C   C16       1.0  0.64010  0.37220  0.21020  1.0000
  H   H49       1.0  0.11920  0.15430  0.70190  1.0000
  H   H50       1.0  0.88080  0.15430  0.79810  1.0000
  H   H51       1.0  0.61920  0.65430  0.70190  1.0000
  H   H52       1.0  0.38080  0.65430  0.79810  1.0000
  H   H53       1.0  0.88080  0.84570  0.29810  1.0000
  H   H54       1.0  0.11920  0.84570  0.20190  1.0000
  H   H55       1.0  0.38080  0.34570  0.29810  1.0000
  H   H56       1.0  0.61920  0.34570  0.20190  1.0000
  H   H57       1.0  0.14640  0.09140  0.74540  1.0000
  H   H58       1.0  0.85360  0.09140  0.75460  1.0000
  H   H59       1.0  0.64640  0.59140  0.74540  1.0000
  H   H60       1.0  0.35360  0.59140  0.75460  1.0000
  H   H61       1.0  0.85360  0.90860  0.25460  1.0000
  H   H62       1.0  0.14640  0.90860  0.24540  1.0000
  H   H63       1.0  0.35360  0.40860  0.25460  1.0000
  H   H64       1.0  0.64640  0.40860  0.24540  1.0000
