data_image0
_chemical_formula_structural       Tm4O18H2O6H2O2H2O2H2C4H2C4H2C8H2C2H2C6H2C2H2C8H2C4H2C4H2C6H2C4H2C6H2C2O6C4O6
_chemical_formula_sum              "Tm4 O40 H32 C64"
_cell_length_a       9.941
_cell_length_b       12.433
_cell_length_c       21.299
_cell_angle_alpha    105.511
_cell_angle_beta     90.826
_cell_angle_gamma    98.693

_space_group_name_H-M_alt    "P 1"
_space_group_IT_number       1

loop_
  _space_group_symop_operation_xyz
  'x, y, z'

loop_
  _atom_site_type_symbol
  _atom_site_label
  _atom_site_symmetry_multiplicity
  _atom_site_fract_x
  _atom_site_fract_y
  _atom_site_fract_z
  _atom_site_occupancy
  Tm  Tm1       1.0  0.51775  0.67986  0.19718  1.0000
  Tm  Tm2       1.0  0.48225  0.32014  0.80282  1.0000
  Tm  Tm3       1.0  0.42385  0.33267  0.30475  1.0000
  Tm  Tm4       1.0  0.57615  0.66733  0.69525  1.0000
  O   O1        1.0  0.43900  0.51250  0.34340  1.0000
  O   O2        1.0  0.56100  0.48750  0.65660  1.0000
  O   O3        1.0  0.48820  0.64070  0.29080  1.0000
  O   O4        1.0  0.51180  0.35930  0.70920  1.0000
  O   O5        1.0  0.44980  0.37170  0.21150  1.0000
  O   O6        1.0  0.55020  0.62830  0.78850  1.0000
  O   O7        1.0  0.50130  0.49760  0.15700  1.0000
  O   O8        1.0  0.49870  0.50240  0.84300  1.0000
  O   O9        1.0  0.18980  0.34250  0.30030  1.0000
  O   O10       1.0  0.81020  0.65750  0.69970  1.0000
  O   O11       1.0  0.25520  0.18880  0.24150  1.0000
  O   O12       1.0  0.74480  0.81120  0.75850  1.0000
  O   O13       1.0  0.68530  0.82070  0.26190  1.0000
  O   O14       1.0  0.31470  0.17930  0.73810  1.0000
  O   O15       1.0  0.75590  0.67200  0.20300  1.0000
  O   O16       1.0  0.24410  0.32800  0.79700  1.0000
  O   O17       1.0  0.09980  0.08310  0.36750  1.0000
  O   O18       1.0  0.90020  0.91690  0.63250  1.0000
  H   H1        1.0  0.17950  0.11280  0.36820  1.0000
  H   H2        1.0  0.82050  0.88720  0.63180  1.0000
  O   O19       1.0  0.65350  0.78820  0.62780  1.0000
  O   O20       1.0  0.34650  0.21180  0.37220  1.0000
  O   O21       1.0  0.51090  0.63760  0.58610  1.0000
  O   O22       1.0  0.48910  0.36240  0.41390  1.0000
  O   O23       1.0  0.64680  0.00310  0.45950  1.0000
  O   O24       1.0  0.35320  0.99690  0.54050  1.0000
  H   H3        1.0  0.63180  0.00970  0.42290  1.0000
  H   H4        1.0  0.36820  0.99030  0.57710  1.0000
  O   O25       1.0  0.33870  0.00060  0.04390  1.0000
  O   O26       1.0  0.66130  0.99940  0.95610  1.0000
  H   H5        1.0  0.33910  0.99670  0.08180  1.0000
  H   H6        1.0  0.66090  0.00330  0.91820  1.0000
  O   O27       1.0  0.84160  0.92620  0.14290  1.0000
  O   O28       1.0  0.15840  0.07380  0.85710  1.0000
  H   H7        1.0  0.76000  0.90220  0.13500  1.0000
  H   H8        1.0  0.24000  0.09780  0.86500  1.0000
  C   C1        1.0  0.15960  0.24370  0.26280  1.0000
  C   C2        1.0  0.84040  0.75630  0.73720  1.0000
  C   C3        1.0  0.99180  0.08550  0.20040  1.0000
  C   C4        1.0  0.00820  0.91450  0.79960  1.0000
  H   H9        1.0  0.06320  0.05000  0.18180  1.0000
  H   H10       1.0  0.93680  0.95000  0.81820  1.0000
  C   C5        1.0  0.01820  0.18900  0.24230  1.0000
  C   C6        1.0  0.98180  0.81100  0.75770  1.0000
  C   C7        1.0  0.91240  0.24500  0.26740  1.0000
  C   C8        1.0  0.08760  0.75500  0.73260  1.0000
  H   H11       1.0  0.93050  0.31790  0.29520  1.0000
  H   H12       1.0  0.06950  0.68210  0.70480  1.0000
  C   C9        1.0  0.85890  0.03150  0.18470  1.0000
  C   C10       1.0  0.14110  0.96850  0.81530  1.0000
  C   C11       1.0  0.78160  0.76810  0.24090  1.0000
  C   C12       1.0  0.21840  0.23190  0.75910  1.0000
  C   C13       1.0  0.92600  0.82000  0.26250  1.0000
  C   C14       1.0  0.07400  0.18000  0.73750  1.0000
  C   C15       1.0  0.03390  0.76600  0.23810  1.0000
  C   C16       1.0  0.96610  0.23400  0.76190  1.0000
  H   H13       1.0  0.01770  0.69370  0.20950  1.0000
  H   H14       1.0  0.98230  0.30630  0.79050  1.0000
  C   C17       1.0  0.94900  0.92620  0.30590  1.0000
  C   C18       1.0  0.05100  0.07380  0.69410  1.0000
  H   H15       1.0  0.87630  0.96210  0.32230  1.0000
  H   H16       1.0  0.12370  0.03790  0.67770  1.0000
  C   C19       1.0  0.47840  0.61250  0.34250  1.0000
  C   C20       1.0  0.52160  0.38750  0.65750  1.0000
  C   C21       1.0  0.52150  0.70200  0.40460  1.0000
  C   C22       1.0  0.47850  0.29800  0.59540  1.0000
  C   C23       1.0  0.52610  0.67180  0.46100  1.0000
  C   C24       1.0  0.47390  0.32820  0.53900  1.0000
  H   H17       1.0  0.50030  0.59710  0.46180  1.0000
  H   H18       1.0  0.49970  0.40290  0.53820  1.0000
  C   C25       1.0  0.56030  0.81120  0.40280  1.0000
  C   C26       1.0  0.43970  0.18880  0.59720  1.0000
  H   H19       1.0  0.55730  0.82940  0.36320  1.0000
  H   H20       1.0  0.44270  0.17060  0.63680  1.0000
  C   C27       1.0  0.60450  0.89540  0.46020  1.0000
  C   C28       1.0  0.39550  0.10460  0.53980  1.0000
  C   C29       1.0  0.46610  0.39760  0.16000  1.0000
  C   C30       1.0  0.53390  0.60240  0.84000  1.0000
  C   C31       1.0  0.44680  0.30410  0.09760  1.0000
  C   C32       1.0  0.55320  0.69590  0.90240  1.0000
  C   C33       1.0  0.40440  0.19650  0.10060  1.0000
  C   C34       1.0  0.59560  0.80350  0.89940  1.0000
  H   H21       1.0  0.39020  0.18200  0.14080  1.0000
  H   H22       1.0  0.60980  0.81800  0.85920  1.0000
  C   C35       1.0  0.08090  0.97810  0.32460  1.0000
  C   C36       1.0  0.91910  0.02190  0.67540  1.0000
  C   C37       1.0  0.18770  0.92550  0.30060  1.0000
  C   C38       1.0  0.81230  0.07450  0.69940  1.0000
  H   H23       1.0  0.27660  0.96110  0.31410  1.0000
  H   H24       1.0  0.72340  0.03890  0.68590  1.0000
  C   C39       1.0  0.16460  0.82000  0.25650  1.0000
  C   C40       1.0  0.83540  0.18000  0.74350  1.0000
  C   C41       1.0  0.61030  0.86770  0.51720  1.0000
  C   C42       1.0  0.38970  0.13230  0.48280  1.0000
  H   H25       1.0  0.64070  0.92320  0.55570  1.0000
  H   H26       1.0  0.35930  0.07680  0.44430  1.0000
  C   C43       1.0  0.57120  0.75730  0.51830  1.0000
  C   C44       1.0  0.42880  0.24270  0.48170  1.0000
  C   C45       1.0  0.57920  0.72610  0.58060  1.0000
  C   C46       1.0  0.42080  0.27390  0.41940  1.0000
  C   C47       1.0  0.46410  0.32830  0.03930  1.0000
  C   C48       1.0  0.53590  0.67170  0.96070  1.0000
  H   H27       1.0  0.49100  0.40240  0.03770  1.0000
  H   H28       1.0  0.50900  0.59760  0.96230  1.0000
  C   C49       1.0  0.46150  0.26370  0.91870  1.0000
  C   C50       1.0  0.53850  0.73630  0.08130  1.0000
  C   C51       1.0  0.40020  0.13170  0.98460  1.0000
  C   C52       1.0  0.59980  0.86830  0.01540  1.0000
  H   H29       1.0  0.38490  0.07370  0.94600  1.0000
  H   H30       1.0  0.61510  0.92630  0.05400  1.0000
  C   C53       1.0  0.38200  0.10730  0.04320  1.0000
  C   C54       1.0  0.61800  0.89270  0.95680  1.0000
  C   C55       1.0  0.78050  0.19160  0.25090  1.0000
  C   C56       1.0  0.21950  0.80840  0.74910  1.0000
  C   C57       1.0  0.75290  0.08480  0.20910  1.0000
  C   C58       1.0  0.24710  0.91520  0.79090  1.0000
  H   H31       1.0  0.66340  0.04920  0.19760  1.0000
  H   H32       1.0  0.33660  0.95080  0.80240  1.0000
  C   C59       1.0  0.66480  0.24610  0.27540  1.0000
  C   C60       1.0  0.33520  0.75390  0.72460  1.0000
  O   O29       1.0  0.67550  0.35520  0.29870  1.0000
  O   O30       1.0  0.32450  0.64480  0.70130  1.0000
  O   O31       1.0  0.54750  0.19310  0.27200  1.0000
  O   O32       1.0  0.45250  0.80690  0.72800  1.0000
  O   O33       1.0  0.26980  0.66430  0.20310  1.0000
  O   O34       1.0  0.73020  0.33570  0.79690  1.0000
  C   C61       1.0  0.28550  0.76460  0.23000  1.0000
  C   C62       1.0  0.71450  0.23540  0.77000  1.0000
  C   C63       1.0  0.44080  0.24060  0.98230  1.0000
  C   C64       1.0  0.55920  0.75940  0.01770  1.0000
  O   O35       1.0  0.40670  0.19440  0.86730  1.0000
  O   O36       1.0  0.59330  0.80560  0.13270  1.0000
  O   O37       1.0  0.53280  0.35180  0.91420  1.0000
  O   O38       1.0  0.46720  0.64820  0.08580  1.0000
  O   O39       1.0  0.39650  0.82820  0.23650  1.0000
  O   O40       1.0  0.60350  0.17180  0.76350  1.0000
