data_image0
_chemical_formula_structural       Dy8N16O72H16O8H16C32H8C16H8C8H8C32H8C16H8C8H8
_chemical_formula_sum              "Dy8 N16 O80 H80 C112"
_cell_length_a       14.8901
_cell_length_b       9.8668
_cell_length_c       28.694
_cell_angle_alpha    90
_cell_angle_beta     90
_cell_angle_gamma    90

_space_group_name_H-M_alt    "P 1"
_space_group_IT_number       1

loop_
  _space_group_symop_operation_xyz
  'x, y, z'

loop_
  _atom_site_type_symbol
  _atom_site_label
  _atom_site_symmetry_multiplicity
  _atom_site_fract_x
  _atom_site_fract_y
  _atom_site_fract_z
  _atom_site_occupancy
  Dy  Dy1       1.0  0.50559  0.33836  0.38575  1.0000
  Dy  Dy2       1.0  0.99441  0.66164  0.88574  1.0000
  Dy  Dy3       1.0  0.49441  0.83836  0.11425  1.0000
  Dy  Dy4       1.0  0.00559  0.16164  0.61425  1.0000
  Dy  Dy5       1.0  0.49441  0.66164  0.61425  1.0000
  Dy  Dy6       1.0  0.00559  0.33836  0.11425  1.0000
  Dy  Dy7       1.0  0.50559  0.16164  0.88574  1.0000
  Dy  Dy8       1.0  0.99441  0.83836  0.38575  1.0000
  N   N1        1.0  0.63550  0.19580  0.34765  1.0000
  N   N2        1.0  0.86450  0.80420  0.84765  1.0000
  N   N3        1.0  0.36450  0.69580  0.15235  1.0000
  N   N4        1.0  0.13550  0.30420  0.65235  1.0000
  N   N5        1.0  0.36450  0.80420  0.65235  1.0000
  N   N6        1.0  0.13550  0.19580  0.15235  1.0000
  N   N7        1.0  0.63550  0.30420  0.84765  1.0000
  N   N8        1.0  0.86450  0.69580  0.34765  1.0000
  N   N9        1.0  0.37210  0.48450  0.35755  1.0000
  N   N10       1.0  0.12790  0.51550  0.85755  1.0000
  N   N11       1.0  0.62790  0.98450  0.14245  1.0000
  N   N12       1.0  0.87210  0.01550  0.64245  1.0000
  N   N13       1.0  0.62790  0.51550  0.64245  1.0000
  N   N14       1.0  0.87210  0.48450  0.14245  1.0000
  N   N15       1.0  0.37210  0.01550  0.85755  1.0000
  N   N16       1.0  0.12790  0.98450  0.35755  1.0000
  O   O1        1.0  0.64880  0.37780  0.41623  1.0000
  O   O2        1.0  0.85120  0.62220  0.91623  1.0000
  O   O3        1.0  0.35120  0.87780  0.08377  1.0000
  O   O4        1.0  0.14880  0.12220  0.58377  1.0000
  O   O5        1.0  0.35120  0.62220  0.58377  1.0000
  O   O6        1.0  0.14880  0.37780  0.08377  1.0000
  O   O7        1.0  0.64880  0.12220  0.91623  1.0000
  O   O8        1.0  0.85120  0.87780  0.41623  1.0000
  O   O9        1.0  0.79840  0.36630  0.41526  1.0000
  O   O10       1.0  0.70160  0.63370  0.91526  1.0000
  O   O11       1.0  0.20160  0.86630  0.08474  1.0000
  O   O12       1.0  0.29840  0.13370  0.58474  1.0000
  O   O13       1.0  0.20160  0.63370  0.58474  1.0000
  O   O14       1.0  0.29840  0.36630  0.08474  1.0000
  O   O15       1.0  0.79840  0.13370  0.91526  1.0000
  O   O16       1.0  0.70160  0.86630  0.41526  1.0000
  O   O17       1.0  0.93470  0.97150  0.32628  1.0000
  O   O18       1.0  0.56530  0.02850  0.82628  1.0000
  O   O19       1.0  0.06530  0.47150  0.17372  1.0000
  O   O20       1.0  0.43470  0.52850  0.67372  1.0000
  O   O21       1.0  0.06530  0.02850  0.67372  1.0000
  O   O22       1.0  0.43470  0.97150  0.17372  1.0000
  O   O23       1.0  0.93470  0.52850  0.82628  1.0000
  O   O24       1.0  0.56530  0.47150  0.32628  1.0000
  O   O25       1.0  0.86350  0.92580  0.25979  1.0000
  O   O26       1.0  0.63650  0.07420  0.75979  1.0000
  O   O27       1.0  0.13650  0.42580  0.24021  1.0000
  O   O28       1.0  0.36350  0.57420  0.74021  1.0000
  O   O29       1.0  0.13650  0.07420  0.74021  1.0000
  O   O30       1.0  0.36350  0.92580  0.24021  1.0000
  O   O31       1.0  0.86350  0.57420  0.75979  1.0000
  O   O32       1.0  0.63650  0.42580  0.25979  1.0000
  O   O33       1.0  0.36880  0.30220  0.42509  1.0000
  O   O34       1.0  0.13120  0.69780  0.92509  1.0000
  O   O35       1.0  0.63120  0.80220  0.07491  1.0000
  O   O36       1.0  0.86880  0.19780  0.57491  1.0000
  O   O37       1.0  0.63120  0.69780  0.57491  1.0000
  O   O38       1.0  0.86880  0.30220  0.07491  1.0000
  O   O39       1.0  0.36880  0.19780  0.92509  1.0000
  O   O40       1.0  0.13120  0.80220  0.42509  1.0000
  O   O41       1.0  0.22160  0.32870  0.43633  1.0000
  O   O42       1.0  0.27840  0.67130  0.93633  1.0000
  O   O43       1.0  0.77840  0.82870  0.06367  1.0000
  O   O44       1.0  0.72160  0.17130  0.56367  1.0000
  O   O45       1.0  0.77840  0.67130  0.56367  1.0000
  O   O46       1.0  0.72160  0.32870  0.06367  1.0000
  O   O47       1.0  0.22160  0.17130  0.93633  1.0000
  O   O48       1.0  0.27840  0.82870  0.43633  1.0000
  O   O49       1.0  0.06560  0.69170  0.33499  1.0000
  O   O50       1.0  0.43440  0.30830  0.83499  1.0000
  O   O51       1.0  0.93440  0.19170  0.16501  1.0000
  O   O52       1.0  0.56560  0.80830  0.66501  1.0000
  O   O53       1.0  0.93440  0.30830  0.66501  1.0000
  O   O54       1.0  0.56560  0.69170  0.16501  1.0000
  O   O55       1.0  0.06560  0.80830  0.83499  1.0000
  O   O56       1.0  0.43440  0.19170  0.33499  1.0000
  O   O57       1.0  0.14190  0.74850  0.27116  1.0000
  O   O58       1.0  0.35810  0.25150  0.77116  1.0000
  O   O59       1.0  0.85810  0.24850  0.22884  1.0000
  O   O60       1.0  0.64190  0.75150  0.72884  1.0000
  O   O61       1.0  0.85810  0.25150  0.72884  1.0000
  O   O62       1.0  0.64190  0.74850  0.22884  1.0000
  O   O63       1.0  0.14190  0.75150  0.77116  1.0000
  O   O64       1.0  0.35810  0.24850  0.27116  1.0000
  O   O65       1.0  0.53010  0.16120  0.43872  1.0000
  O   O66       1.0  0.96990  0.83880  0.93872  1.0000
  O   O67       1.0  0.46990  0.66120  0.06128  1.0000
  O   O68       1.0  0.03010  0.33880  0.56128  1.0000
  O   O69       1.0  0.46990  0.83880  0.56128  1.0000
  O   O70       1.0  0.03010  0.16120  0.06128  1.0000
  O   O71       1.0  0.53010  0.33880  0.93872  1.0000
  O   O72       1.0  0.96990  0.66120  0.43872  1.0000
  H   H1        1.0  0.58260  0.14290  0.44850  1.0000
  H   H2        1.0  0.91740  0.85710  0.94850  1.0000
  H   H3        1.0  0.41740  0.64290  0.05150  1.0000
  H   H4        1.0  0.08260  0.35710  0.55150  1.0000
  H   H5        1.0  0.41740  0.85710  0.55150  1.0000
  H   H6        1.0  0.08260  0.14290  0.05150  1.0000
  H   H7        1.0  0.58260  0.35710  0.94850  1.0000
  H   H8        1.0  0.91740  0.64290  0.44850  1.0000
  H   H9        1.0  0.49930  0.19090  0.46150  1.0000
  H   H10       1.0  0.00070  0.80910  0.96150  1.0000
  H   H11       1.0  0.50070  0.69090  0.03850  1.0000
  H   H12       1.0  0.99930  0.30910  0.53850  1.0000
  H   H13       1.0  0.50070  0.80910  0.53850  1.0000
  H   H14       1.0  0.99930  0.19090  0.03850  1.0000
  H   H15       1.0  0.49930  0.30910  0.96150  1.0000
  H   H16       1.0  0.00070  0.69090  0.46150  1.0000
  O   O73       1.0  0.49570  0.51470  0.44013  1.0000
  O   O74       1.0  0.00430  0.48530  0.94013  1.0000
  O   O75       1.0  0.50430  0.01470  0.05987  1.0000
  O   O76       1.0  0.99570  0.98530  0.55987  1.0000
  O   O77       1.0  0.50430  0.48530  0.55987  1.0000
  O   O78       1.0  0.99570  0.51470  0.05987  1.0000
  O   O79       1.0  0.49570  0.98530  0.94013  1.0000
  O   O80       1.0  0.00430  0.01470  0.44013  1.0000
  H   H17       1.0  0.53080  0.57640  0.44990  1.0000
  H   H18       1.0  0.96920  0.42360  0.94990  1.0000
  H   H19       1.0  0.46920  0.07640  0.05010  1.0000
  H   H20       1.0  0.03080  0.92360  0.55010  1.0000
  H   H21       1.0  0.46920  0.42360  0.55010  1.0000
  H   H22       1.0  0.03080  0.57640  0.05010  1.0000
  H   H23       1.0  0.53080  0.92360  0.94990  1.0000
  H   H24       1.0  0.96920  0.07640  0.44990  1.0000
  H   H25       1.0  0.44370  0.52980  0.45120  1.0000
  H   H26       1.0  0.05630  0.47020  0.95120  1.0000
  H   H27       1.0  0.55630  0.02980  0.04880  1.0000
  H   H28       1.0  0.94370  0.97020  0.54880  1.0000
  H   H29       1.0  0.55630  0.47020  0.54880  1.0000
  H   H30       1.0  0.94370  0.52980  0.04880  1.0000
  H   H31       1.0  0.44370  0.97020  0.95120  1.0000
  H   H32       1.0  0.05630  0.02980  0.45120  1.0000
  C   C1        1.0  0.72240  0.32860  0.40170  1.0000
  C   C2        1.0  0.77760  0.67140  0.90170  1.0000
  C   C3        1.0  0.27760  0.82860  0.09830  1.0000
  C   C4        1.0  0.22240  0.17140  0.59830  1.0000
  C   C5        1.0  0.27760  0.67140  0.59830  1.0000
  C   C6        1.0  0.22240  0.32860  0.09830  1.0000
  C   C7        1.0  0.72240  0.17140  0.90170  1.0000
  C   C8        1.0  0.77760  0.82860  0.40170  1.0000
  C   C9        1.0  0.86790  0.97670  0.29990  1.0000
  C   C10       1.0  0.63210  0.02330  0.79990  1.0000
  C   C11       1.0  0.13210  0.47670  0.20010  1.0000
  C   C12       1.0  0.36790  0.52330  0.70010  1.0000
  C   C13       1.0  0.13210  0.02330  0.70010  1.0000
  C   C14       1.0  0.36790  0.97670  0.20010  1.0000
  C   C15       1.0  0.86790  0.52330  0.79990  1.0000
  C   C16       1.0  0.63210  0.47670  0.29990  1.0000
  C   C17       1.0  0.71700  0.21930  0.36530  1.0000
  C   C18       1.0  0.78300  0.78070  0.86530  1.0000
  C   C19       1.0  0.28300  0.71930  0.13470  1.0000
  C   C20       1.0  0.21700  0.28070  0.63470  1.0000
  C   C21       1.0  0.28300  0.78070  0.63470  1.0000
  C   C22       1.0  0.21700  0.21930  0.13470  1.0000
  C   C23       1.0  0.71700  0.28070  0.86530  1.0000
  C   C24       1.0  0.78300  0.71930  0.36530  1.0000
  C   C25       1.0  0.79370  0.14930  0.35133  1.0000
  C   C26       1.0  0.70630  0.85070  0.85133  1.0000
  C   C27       1.0  0.20630  0.64930  0.14867  1.0000
  C   C28       1.0  0.29370  0.35070  0.64867  1.0000
  C   C29       1.0  0.20630  0.85070  0.64867  1.0000
  C   C30       1.0  0.29370  0.14930  0.14867  1.0000
  C   C31       1.0  0.79370  0.35070  0.85133  1.0000
  C   C32       1.0  0.70630  0.64930  0.35133  1.0000
  H   H33       1.0  0.84900  0.16650  0.36520  1.0000
  H   H34       1.0  0.65100  0.83350  0.86520  1.0000
  H   H35       1.0  0.15100  0.66650  0.13480  1.0000
  H   H36       1.0  0.34900  0.33350  0.63480  1.0000
  H   H37       1.0  0.15100  0.83350  0.63480  1.0000
  H   H38       1.0  0.34900  0.16650  0.13480  1.0000
  H   H39       1.0  0.84900  0.33350  0.86520  1.0000
  H   H40       1.0  0.65100  0.66650  0.36520  1.0000
  C   C33       1.0  0.78550  0.05330  0.31620  1.0000
  C   C34       1.0  0.71450  0.94670  0.81620  1.0000
  C   C35       1.0  0.21450  0.55330  0.18380  1.0000
  C   C36       1.0  0.28550  0.44670  0.68380  1.0000
  C   C37       1.0  0.21450  0.94670  0.68380  1.0000
  C   C38       1.0  0.28550  0.05330  0.18380  1.0000
  C   C39       1.0  0.78550  0.44670  0.81620  1.0000
  C   C40       1.0  0.71450  0.55330  0.31620  1.0000
  C   C41       1.0  0.70150  0.02910  0.29720  1.0000
  C   C42       1.0  0.79850  0.97090  0.79720  1.0000
  C   C43       1.0  0.29850  0.52910  0.20280  1.0000
  C   C44       1.0  0.20150  0.47090  0.70280  1.0000
  C   C45       1.0  0.29850  0.97090  0.70280  1.0000
  C   C46       1.0  0.20150  0.02910  0.20280  1.0000
  C   C47       1.0  0.70150  0.47090  0.79720  1.0000
  C   C48       1.0  0.79850  0.52910  0.29720  1.0000
  H   H41       1.0  0.69380  0.96560  0.27360  1.0000
  H   H42       1.0  0.80620  0.03440  0.77360  1.0000
  H   H43       1.0  0.30620  0.46560  0.22640  1.0000
  H   H44       1.0  0.19380  0.53440  0.72640  1.0000
  H   H45       1.0  0.30620  0.03440  0.72640  1.0000
  H   H46       1.0  0.19380  0.96560  0.22640  1.0000
  H   H47       1.0  0.69380  0.53440  0.77360  1.0000
  H   H48       1.0  0.80620  0.46560  0.27360  1.0000
  C   C49       1.0  0.62940  0.10200  0.31420  1.0000
  C   C50       1.0  0.87060  0.89800  0.81420  1.0000
  C   C51       1.0  0.37060  0.60200  0.18580  1.0000
  C   C52       1.0  0.12940  0.39800  0.68580  1.0000
  C   C53       1.0  0.37060  0.89800  0.68580  1.0000
  C   C54       1.0  0.12940  0.10200  0.18580  1.0000
  C   C55       1.0  0.62940  0.39800  0.81420  1.0000
  C   C56       1.0  0.87060  0.60200  0.31420  1.0000
  H   H49       1.0  0.57300  0.08460  0.30160  1.0000
  H   H50       1.0  0.92700  0.91540  0.80160  1.0000
  H   H51       1.0  0.42700  0.58460  0.19840  1.0000
  H   H52       1.0  0.07300  0.41540  0.69840  1.0000
  H   H53       1.0  0.42700  0.91540  0.69840  1.0000
  H   H54       1.0  0.07300  0.08460  0.19840  1.0000
  H   H55       1.0  0.57300  0.41540  0.80160  1.0000
  H   H56       1.0  0.92700  0.58460  0.30160  1.0000
  C   C57       1.0  0.29320  0.35480  0.41614  1.0000
  C   C58       1.0  0.20680  0.64520  0.91614  1.0000
  C   C59       1.0  0.70680  0.85480  0.08386  1.0000
  C   C60       1.0  0.79320  0.14520  0.58386  1.0000
  C   C61       1.0  0.70680  0.64520  0.58386  1.0000
  C   C62       1.0  0.79320  0.35480  0.08386  1.0000
  C   C63       1.0  0.29320  0.14520  0.91614  1.0000
  C   C64       1.0  0.20680  0.85480  0.41614  1.0000
  C   C65       1.0  0.13440  0.69300  0.31050  1.0000
  C   C66       1.0  0.36560  0.30700  0.81050  1.0000
  C   C67       1.0  0.86560  0.19300  0.18950  1.0000
  C   C68       1.0  0.63440  0.80700  0.68950  1.0000
  C   C69       1.0  0.86560  0.30700  0.68950  1.0000
  C   C70       1.0  0.63440  0.69300  0.18950  1.0000
  C   C71       1.0  0.13440  0.80700  0.81050  1.0000
  C   C72       1.0  0.36560  0.19300  0.31050  1.0000
  C   C73       1.0  0.29180  0.46000  0.37727  1.0000
  C   C74       1.0  0.20820  0.54000  0.87727  1.0000
  C   C75       1.0  0.70820  0.96000  0.12273  1.0000
  C   C76       1.0  0.79180  0.04000  0.62273  1.0000
  C   C77       1.0  0.70820  0.54000  0.62273  1.0000
  C   C78       1.0  0.79180  0.46000  0.12273  1.0000
  C   C79       1.0  0.29180  0.04000  0.87727  1.0000
  C   C80       1.0  0.20820  0.96000  0.37727  1.0000
  C   C81       1.0  0.21410  0.52540  0.36390  1.0000
  C   C82       1.0  0.28590  0.47460  0.86390  1.0000
  C   C83       1.0  0.78590  0.02540  0.13610  1.0000
  C   C84       1.0  0.71410  0.97460  0.63610  1.0000
  C   C85       1.0  0.78590  0.47460  0.63610  1.0000
  C   C86       1.0  0.71410  0.52540  0.13610  1.0000
  C   C87       1.0  0.21410  0.97460  0.86390  1.0000
  C   C88       1.0  0.28590  0.02540  0.36390  1.0000
  H   H57       1.0  0.16000  0.50590  0.37860  1.0000
  H   H58       1.0  0.34000  0.49410  0.87860  1.0000
  H   H59       1.0  0.84000  0.00590  0.12140  1.0000
  H   H60       1.0  0.66000  0.99410  0.62140  1.0000
  H   H61       1.0  0.84000  0.49410  0.62140  1.0000
  H   H62       1.0  0.66000  0.50590  0.12140  1.0000
  H   H63       1.0  0.16000  0.99410  0.87860  1.0000
  H   H64       1.0  0.34000  0.00590  0.37860  1.0000
  C   C89       1.0  0.21750  0.62110  0.32812  1.0000
  C   C90       1.0  0.28250  0.37890  0.82812  1.0000
  C   C91       1.0  0.78250  0.12110  0.17188  1.0000
  C   C92       1.0  0.71750  0.87890  0.67188  1.0000
  C   C93       1.0  0.78250  0.37890  0.67188  1.0000
  C   C94       1.0  0.71750  0.62110  0.17188  1.0000
  C   C95       1.0  0.21750  0.87890  0.82812  1.0000
  C   C96       1.0  0.28250  0.12110  0.32812  1.0000
  C   C97       1.0  0.30130  0.64980  0.30900  1.0000
  C   C98       1.0  0.19870  0.35020  0.80900  1.0000
  C   C99       1.0  0.69870  0.14980  0.19100  1.0000
  C   C100      1.0  0.80130  0.85020  0.69100  1.0000
  C   C101      1.0  0.69870  0.35020  0.69100  1.0000
  C   C102      1.0  0.80130  0.64980  0.19100  1.0000
  C   C103      1.0  0.30130  0.85020  0.80900  1.0000
  C   C104      1.0  0.19870  0.14980  0.30900  1.0000
  H   H65       1.0  0.30720  0.71610  0.28620  1.0000
  H   H66       1.0  0.19280  0.28390  0.78620  1.0000
  H   H67       1.0  0.69280  0.21610  0.21380  1.0000
  H   H68       1.0  0.80720  0.78390  0.71380  1.0000
  H   H69       1.0  0.69280  0.28390  0.71380  1.0000
  H   H70       1.0  0.80720  0.71610  0.21380  1.0000
  H   H71       1.0  0.30720  0.78390  0.78620  1.0000
  H   H72       1.0  0.19280  0.21610  0.28620  1.0000
  C   C105      1.0  0.37530  0.57920  0.32420  1.0000
  C   C106      1.0  0.12470  0.42080  0.82420  1.0000
  C   C107      1.0  0.62470  0.07920  0.17580  1.0000
  C   C108      1.0  0.87530  0.92080  0.67580  1.0000
  C   C109      1.0  0.62470  0.42080  0.67580  1.0000
  C   C110      1.0  0.87530  0.57920  0.17580  1.0000
  C   C111      1.0  0.37530  0.92080  0.82420  1.0000
  C   C112      1.0  0.12470  0.07920  0.32420  1.0000
  H   H73       1.0  0.43050  0.59830  0.31060  1.0000
  H   H74       1.0  0.06950  0.40170  0.81060  1.0000
  H   H75       1.0  0.56950  0.09830  0.18940  1.0000
  H   H76       1.0  0.93050  0.90170  0.68940  1.0000
  H   H77       1.0  0.56950  0.40170  0.68940  1.0000
  H   H78       1.0  0.93050  0.59830  0.18940  1.0000
  H   H79       1.0  0.43050  0.90170  0.81060  1.0000
  H   H80       1.0  0.06950  0.09830  0.31060  1.0000
