data_image0
_chemical_formula_structural       U4P6O8H2O18C4H2C4H2C4H2C2H4C2H4C2H4
_chemical_formula_sum              "U4 P6 O26 H20 C18"
_cell_length_a       9.9256
_cell_length_b       10.6108
_cell_length_c       12.3642
_cell_angle_alpha    110.333
_cell_angle_beta     91.174
_cell_angle_gamma    110.09

_space_group_name_H-M_alt    "P 1"
_space_group_IT_number       1

loop_
  _space_group_symop_operation_xyz
  'x, y, z'

loop_
  _atom_site_type_symbol
  _atom_site_label
  _atom_site_symmetry_multiplicity
  _atom_site_fract_x
  _atom_site_fract_y
  _atom_site_fract_z
  _atom_site_occupancy
  U   U1        1.0  0.15356  0.00362  0.62013  1.0000
  U   U2        1.0  0.84644  0.99638  0.37987  1.0000
  U   U3        1.0  0.54177  0.27628  0.04739  1.0000
  U   U4        1.0  0.45823  0.72372  0.95261  1.0000
  P   P1        1.0  0.58560  0.06500  0.20700  1.0000
  P   P2        1.0  0.41440  0.93500  0.79300  1.0000
  P   P3        1.0  0.90500  0.71060  0.46860  1.0000
  P   P4        1.0  0.09500  0.28940  0.53140  1.0000
  P   P5        1.0  0.43920  0.35540  0.80260  1.0000
  P   P6        1.0  0.56080  0.64460  0.19740  1.0000
  O   O1        1.0  0.48300  0.92920  0.11330  1.0000
  O   O2        1.0  0.51700  0.07080  0.88670  1.0000
  O   O3        1.0  0.64500  0.19210  0.16430  1.0000
  O   O4        1.0  0.35500  0.80790  0.83570  1.0000
  O   O5        1.0  0.70900  0.04300  0.26000  1.0000
  O   O6        1.0  0.29100  0.95700  0.74000  1.0000
  O   O7        1.0  0.90400  0.60220  0.34510  1.0000
  O   O8        1.0  0.09600  0.39780  0.65490  1.0000
  H   H1        1.0  0.91160  0.53010  0.35060  1.0000
  H   H2        1.0  0.08840  0.46990  0.64940  1.0000
  O   O9        1.0  0.02580  0.73800  0.55800  1.0000
  O   O10       1.0  0.97420  0.26200  0.44200  1.0000
  O   O11       1.0  0.93580  0.85880  0.45990  1.0000
  O   O12       1.0  0.06420  0.14120  0.54010  1.0000
  O   O13       1.0  0.44200  0.50590  0.81860  1.0000
  O   O14       1.0  0.55800  0.49410  0.18140  1.0000
  O   O15       1.0  0.43600  0.33730  0.91930  1.0000
  O   O16       1.0  0.56400  0.66270  0.08070  1.0000
  O   O17       1.0  0.31300  0.23720  0.71070  1.0000
  O   O18       1.0  0.68700  0.76280  0.28930  1.0000
  O   O19       1.0  0.26220  0.97560  0.50990  1.0000
  O   O20       1.0  0.73780  0.02440  0.49010  1.0000
  O   O21       1.0  0.03400  0.02700  0.72600  1.0000
  O   O22       1.0  0.96600  0.97300  0.27400  1.0000
  O   O23       1.0  0.72000  0.36700  0.02530  1.0000
  O   O24       1.0  0.28000  0.63300  0.97470  1.0000
  O   O25       1.0  0.36200  0.18680  0.07580  1.0000
  O   O26       1.0  0.63800  0.81320  0.92420  1.0000
  C   C1        1.0  0.55900  0.25000  0.42630  1.0000
  C   C2        1.0  0.44100  0.75000  0.57370  1.0000
  C   C3        1.0  0.61000  0.38400  0.41970  1.0000
  C   C4        1.0  0.39000  0.61600  0.58030  1.0000
  H   H3        1.0  0.59940  0.39250  0.34780  1.0000
  H   H4        1.0  0.40060  0.60750  0.65220  1.0000
  C   C5        1.0  0.67500  0.50300  0.51500  1.0000
  C   C6        1.0  0.32500  0.49700  0.48500  1.0000
  C   C7        1.0  0.67600  0.49300  0.62690  1.0000
  C   C8        1.0  0.32400  0.50700  0.37310  1.0000
  H   H5        1.0  0.71420  0.57600  0.69440  1.0000
  H   H6        1.0  0.28580  0.42400  0.30560  1.0000
  C   C9        1.0  0.61900  0.35700  0.63390  1.0000
  C   C10       1.0  0.38100  0.64300  0.36610  1.0000
  C   C11       1.0  0.56000  0.23600  0.53490  1.0000
  C   C12       1.0  0.44000  0.76400  0.46510  1.0000
  H   H7        1.0  0.52220  0.14480  0.53930  1.0000
  H   H8        1.0  0.47780  0.85520  0.46070  1.0000
  C   C13       1.0  0.47800  0.11500  0.31750  1.0000
  C   C14       1.0  0.52200  0.88500  0.68250  1.0000
  H   H9        1.0  0.39890  0.12940  0.28270  1.0000
  H   H10       1.0  0.60110  0.87060  0.71730  1.0000
  H   H11       1.0  0.43480  0.03380  0.34190  1.0000
  H   H12       1.0  0.56520  0.96620  0.65810  1.0000
  C   C15       1.0  0.72900  0.65000  0.51300  1.0000
  C   C16       1.0  0.27100  0.35000  0.48700  1.0000
  H   H13       1.0  0.73360  0.71760  0.59090  1.0000
  H   H14       1.0  0.26640  0.28240  0.40910  1.0000
  H   H15       1.0  0.65860  0.65480  0.46110  1.0000
  H   H16       1.0  0.34140  0.34520  0.53890  1.0000
  C   C17       1.0  0.60600  0.34900  0.75630  1.0000
  C   C18       1.0  0.39400  0.65100  0.24370  1.0000
  H   H17       1.0  0.68550  0.42940  0.81270  1.0000
  H   H18       1.0  0.31450  0.57060  0.18730  1.0000
  H   H19       1.0  0.61380  0.25990  0.75440  1.0000
  H   H20       1.0  0.38620  0.74010  0.24560  1.0000
