data_image0
_chemical_formula_structural       Y4S16O4H8O4H8C16N20C4H4C4H4C8H4C4H4N4C4H4C4H4C8H4C4H4
_chemical_formula_sum              "Y4 S16 O8 H48 C56 N24"
_cell_length_a       9.362
_cell_length_b       21.55
_cell_length_c       19.379
_cell_angle_alpha    90
_cell_angle_beta     98.64
_cell_angle_gamma    90

_space_group_name_H-M_alt    "P 1"
_space_group_IT_number       1

loop_
  _space_group_symop_operation_xyz
  'x, y, z'

loop_
  _atom_site_type_symbol
  _atom_site_label
  _atom_site_symmetry_multiplicity
  _atom_site_fract_x
  _atom_site_fract_y
  _atom_site_fract_z
  _atom_site_occupancy
  Y   Y1        1.0  0.28513  0.35527  0.38657  1.0000
  Y   Y2        1.0  0.21487  0.85527  0.11343  1.0000
  Y   Y3        1.0  0.71487  0.64473  0.61343  1.0000
  Y   Y4        1.0  0.78513  0.14473  0.88657  1.0000
  S   S1        1.0  0.32620  0.52070  0.20220  1.0000
  S   S2        1.0  0.17380  0.02070  0.29780  1.0000
  S   S3        1.0  0.67380  0.47930  0.79780  1.0000
  S   S4        1.0  0.82620  0.97930  0.70220  1.0000
  S   S5        1.0  0.40890  0.47000  0.61250  1.0000
  S   S6        1.0  0.09110  0.97000  0.88750  1.0000
  S   S7        1.0  0.59110  0.53000  0.38750  1.0000
  S   S8        1.0  0.90890  0.03000  0.11250  1.0000
  S   S9        1.0  0.56440  0.17280  0.50880  1.0000
  S   S10       1.0  0.93560  0.67280  0.99120  1.0000
  S   S11       1.0  0.43560  0.82720  0.49120  1.0000
  S   S12       1.0  0.06440  0.32720  0.00880  1.0000
  S   S13       1.0  0.99180  0.18720  0.25180  1.0000
  S   S14       1.0  0.50820  0.68720  0.24820  1.0000
  S   S15       1.0  0.00820  0.81280  0.74820  1.0000
  S   S16       1.0  0.49180  0.31280  0.75180  1.0000
  O   O1        1.0  0.05760  0.40660  0.38390  1.0000
  O   O2        1.0  0.44240  0.90660  0.11610  1.0000
  O   O3        1.0  0.94240  0.59340  0.61610  1.0000
  O   O4        1.0  0.55760  0.09340  0.88390  1.0000
  H   H1        1.0  0.01410  0.39730  0.34740  1.0000
  H   H2        1.0  0.48590  0.89730  0.15260  1.0000
  H   H3        1.0  0.98590  0.60270  0.65260  1.0000
  H   H4        1.0  0.51410  0.10270  0.84740  1.0000
  H   H5        1.0  0.08050  0.44300  0.37410  1.0000
  H   H6        1.0  0.41950  0.94300  0.12590  1.0000
  H   H7        1.0  0.91950  0.55700  0.62590  1.0000
  H   H8        1.0  0.58050  0.05700  0.87410  1.0000
  O   O5        1.0  0.52450  0.38920  0.39910  1.0000
  O   O6        1.0  0.97550  0.88920  0.10090  1.0000
  O   O7        1.0  0.47550  0.61080  0.60090  1.0000
  O   O8        1.0  0.02450  0.11080  0.89910  1.0000
  H   H9        1.0  0.50590  0.42810  0.38220  1.0000
  H   H10       1.0  0.99410  0.92810  0.11780  1.0000
  H   H11       1.0  0.49410  0.57190  0.61780  1.0000
  H   H12       1.0  0.00590  0.07190  0.88220  1.0000
  H   H13       1.0  0.58060  0.39490  0.44590  1.0000
  H   H14       1.0  0.91940  0.89490  0.05410  1.0000
  H   H15       1.0  0.41940  0.60510  0.55410  1.0000
  H   H16       1.0  0.08060  0.10510  0.94590  1.0000
  C   C1        1.0  0.28300  0.46640  0.25920  1.0000
  C   C2        1.0  0.21700  0.96640  0.24080  1.0000
  C   C3        1.0  0.71700  0.53360  0.74080  1.0000
  C   C4        1.0  0.78300  0.03360  0.75920  1.0000
  C   C5        1.0  0.35070  0.45050  0.53520  1.0000
  C   C6        1.0  0.14930  0.95050  0.96480  1.0000
  C   C7        1.0  0.64930  0.54950  0.46480  1.0000
  C   C8        1.0  0.85070  0.04950  0.03520  1.0000
  C   C9        1.0  0.48980  0.23040  0.46660  1.0000
  C   C10       1.0  0.01020  0.73040  0.03340  1.0000
  C   C11       1.0  0.51020  0.76960  0.53340  1.0000
  C   C12       1.0  0.98980  0.26960  0.96660  1.0000
  C   C13       1.0  0.05920  0.24570  0.29830  1.0000
  C   C14       1.0  0.44080  0.74570  0.20170  1.0000
  C   C15       1.0  0.94080  0.75430  0.70170  1.0000
  C   C16       1.0  0.55920  0.25430  0.79830  1.0000
  N   N1        1.0  0.27750  0.43470  0.30220  1.0000
  N   N2        1.0  0.22250  0.93470  0.19780  1.0000
  N   N3        1.0  0.72250  0.56530  0.69780  1.0000
  N   N4        1.0  0.77750  0.06530  0.80220  1.0000
  N   N5        1.0  0.31480  0.42530  0.48130  1.0000
  N   N6        1.0  0.18520  0.92530  0.01870  1.0000
  N   N7        1.0  0.68520  0.57470  0.51870  1.0000
  N   N8        1.0  0.81480  0.07470  0.98130  1.0000
  N   N9        1.0  0.43350  0.27210  0.43670  1.0000
  N   N10       1.0  0.06650  0.77210  0.06330  1.0000
  N   N11       1.0  0.56650  0.72790  0.56330  1.0000
  N   N12       1.0  0.93350  0.22790  0.93670  1.0000
  N   N13       1.0  0.11480  0.28570  0.33020  1.0000
  N   N14       1.0  0.38520  0.78570  0.16980  1.0000
  N   N15       1.0  0.88520  0.71430  0.66980  1.0000
  N   N16       1.0  0.61480  0.21430  0.83020  1.0000
  N   N17       1.0  0.39170  0.31030  0.28090  1.0000
  N   N18       1.0  0.10830  0.81030  0.21910  1.0000
  N   N19       1.0  0.60830  0.68970  0.71910  1.0000
  N   N20       1.0  0.89170  0.18970  0.78090  1.0000
  C   C17       1.0  0.52550  0.28500  0.28770  1.0000
  C   C18       1.0  0.97450  0.78500  0.21230  1.0000
  C   C19       1.0  0.47450  0.71500  0.71230  1.0000
  C   C20       1.0  0.02550  0.21500  0.78770  1.0000
  H   H17       1.0  0.58070  0.28220  0.33170  1.0000
  H   H18       1.0  0.91930  0.78220  0.16830  1.0000
  H   H19       1.0  0.41930  0.71780  0.66830  1.0000
  H   H20       1.0  0.08070  0.21780  0.83170  1.0000
  C   C21       1.0  0.58120  0.26310  0.23030  1.0000
  C   C22       1.0  0.91880  0.76310  0.26970  1.0000
  C   C23       1.0  0.41880  0.73690  0.76970  1.0000
  C   C24       1.0  0.08120  0.23690  0.73030  1.0000
  H   H21       1.0  0.67300  0.24570  0.23600  1.0000
  H   H22       1.0  0.82700  0.74570  0.26400  1.0000
  H   H23       1.0  0.32700  0.75430  0.76400  1.0000
  H   H24       1.0  0.17300  0.25430  0.73600  1.0000
  C   C25       1.0  0.50080  0.26710  0.16360  1.0000
  C   C26       1.0  0.99920  0.76710  0.33640  1.0000
  C   C27       1.0  0.49920  0.73290  0.83640  1.0000
  C   C28       1.0  0.00080  0.23290  0.66360  1.0000
  C   C29       1.0  0.36150  0.29140  0.16030  1.0000
  C   C30       1.0  0.13850  0.79140  0.33970  1.0000
  C   C31       1.0  0.63850  0.70860  0.83970  1.0000
  C   C32       1.0  0.86150  0.20860  0.66030  1.0000
  H   H25       1.0  0.30400  0.29460  0.11690  1.0000
  H   H26       1.0  0.19600  0.79460  0.38310  1.0000
  H   H27       1.0  0.69600  0.70540  0.88310  1.0000
  H   H28       1.0  0.80400  0.20540  0.61690  1.0000
  C   C33       1.0  0.30740  0.31010  0.21680  1.0000
  C   C34       1.0  0.19260  0.81010  0.28320  1.0000
  C   C35       1.0  0.69260  0.68990  0.78320  1.0000
  C   C36       1.0  0.80740  0.18990  0.71680  1.0000
  H   H29       1.0  0.21180  0.32320  0.21250  1.0000
  H   H30       1.0  0.28820  0.82320  0.28750  1.0000
  H   H31       1.0  0.78820  0.67680  0.78750  1.0000
  H   H32       1.0  0.71180  0.17680  0.71250  1.0000
  N   N21       1.0  0.66910  0.19260  0.98740  1.0000
  N   N22       1.0  0.83090  0.69260  0.51260  1.0000
  N   N23       1.0  0.33090  0.80740  0.01260  1.0000
  N   N24       1.0  0.16910  0.30740  0.48740  1.0000
  C   C37       1.0  0.74710  0.19430  0.05240  1.0000
  C   C38       1.0  0.75290  0.69430  0.44760  1.0000
  C   C39       1.0  0.25290  0.80570  0.94760  1.0000
  C   C40       1.0  0.24710  0.30570  0.55240  1.0000
  H   H33       1.0  0.83890  0.17680  0.05950  1.0000
  H   H34       1.0  0.66110  0.67680  0.44050  1.0000
  H   H35       1.0  0.16110  0.82320  0.94050  1.0000
  H   H36       1.0  0.33890  0.32320  0.55950  1.0000
  C   C41       1.0  0.69300  0.22230  0.11070  1.0000
  C   C42       1.0  0.80700  0.72230  0.38930  1.0000
  C   C43       1.0  0.30700  0.77770  0.88930  1.0000
  C   C44       1.0  0.19300  0.27770  0.61070  1.0000
  H   H37       1.0  0.74970  0.22630  0.15420  1.0000
  H   H38       1.0  0.75030  0.72630  0.34580  1.0000
  H   H39       1.0  0.25030  0.77370  0.84580  1.0000
  H   H40       1.0  0.24970  0.27370  0.65420  1.0000
  C   C45       1.0  0.55730  0.24220  0.09890  1.0000
  C   C46       1.0  0.94270  0.74220  0.40110  1.0000
  C   C47       1.0  0.44270  0.75780  0.90110  1.0000
  C   C48       1.0  0.05730  0.25780  0.59890  1.0000
  C   C49       1.0  0.47170  0.23820  0.03430  1.0000
  C   C50       1.0  0.02830  0.73820  0.46570  1.0000
  C   C51       1.0  0.52830  0.76180  0.96570  1.0000
  C   C52       1.0  0.97170  0.26180  0.53430  1.0000
  H   H41       1.0  0.37730  0.25290  0.02740  1.0000
  H   H42       1.0  0.12270  0.75290  0.47260  1.0000
  H   H43       1.0  0.62270  0.74710  0.97260  1.0000
  H   H44       1.0  0.87730  0.24710  0.52740  1.0000
  C   C53       1.0  0.53040  0.21190  0.98090  1.0000
  C   C54       1.0  0.96960  0.71190  0.51910  1.0000
  C   C55       1.0  0.46960  0.78810  0.01910  1.0000
  C   C56       1.0  0.03040  0.28810  0.48090  1.0000
  H   H45       1.0  0.47200  0.20700  0.93800  1.0000
  H   H46       1.0  0.02800  0.70700  0.56200  1.0000
  H   H47       1.0  0.52800  0.79300  0.06200  1.0000
  H   H48       1.0  0.97200  0.29300  0.43800  1.0000
