data_image0
_chemical_formula_structural       U8O64N32H8N8H8N8H8C24H8C8H8C8H8C8H8C48H8C8H8C8H8C8H8C24H8C16H8C16H8C8H8C8
_chemical_formula_sum              "U8 O64 N48 H120 C192"
_cell_length_a       31.3908
_cell_length_b       18.5386
_cell_length_c       13.1433
_cell_angle_alpha    90
_cell_angle_beta     94.544
_cell_angle_gamma    90

_space_group_name_H-M_alt    "P 1"
_space_group_IT_number       1

loop_
  _space_group_symop_operation_xyz
  'x, y, z'

loop_
  _atom_site_type_symbol
  _atom_site_label
  _atom_site_symmetry_multiplicity
  _atom_site_fract_x
  _atom_site_fract_y
  _atom_site_fract_z
  _atom_site_occupancy
  U   U1        1.0  0.63232  0.84603  0.11493  1.0000
  U   U2        1.0  0.36768  0.84603  0.38507  1.0000
  U   U3        1.0  0.13232  0.34603  0.11493  1.0000
  U   U4        1.0  0.86768  0.34603  0.38507  1.0000
  U   U5        1.0  0.36768  0.15397  0.88507  1.0000
  U   U6        1.0  0.63232  0.15397  0.61493  1.0000
  U   U7        1.0  0.86768  0.65397  0.88507  1.0000
  U   U8        1.0  0.13232  0.65397  0.61493  1.0000
  O   O1        1.0  0.62335  0.84620  0.97890  1.0000
  O   O2        1.0  0.37665  0.84620  0.52110  1.0000
  O   O3        1.0  0.12335  0.34620  0.97890  1.0000
  O   O4        1.0  0.87665  0.34620  0.52110  1.0000
  O   O5        1.0  0.37665  0.15380  0.02110  1.0000
  O   O6        1.0  0.62335  0.15380  0.47890  1.0000
  O   O7        1.0  0.87665  0.65380  0.02110  1.0000
  O   O8        1.0  0.12335  0.65380  0.47890  1.0000
  O   O9        1.0  0.64110  0.84630  0.24950  1.0000
  O   O10       1.0  0.35890  0.84630  0.25050  1.0000
  O   O11       1.0  0.14110  0.34630  0.24950  1.0000
  O   O12       1.0  0.85890  0.34630  0.25050  1.0000
  O   O13       1.0  0.35890  0.15370  0.75050  1.0000
  O   O14       1.0  0.64110  0.15370  0.74950  1.0000
  O   O15       1.0  0.85890  0.65370  0.75050  1.0000
  O   O16       1.0  0.14110  0.65370  0.74950  1.0000
  O   O17       1.0  0.64159  0.71630  0.12310  1.0000
  O   O18       1.0  0.35841  0.71630  0.37690  1.0000
  O   O19       1.0  0.14159  0.21630  0.12310  1.0000
  O   O20       1.0  0.85841  0.21630  0.37690  1.0000
  O   O21       1.0  0.35841  0.28370  0.87690  1.0000
  O   O22       1.0  0.64159  0.28370  0.62310  1.0000
  O   O23       1.0  0.85841  0.78370  0.87690  1.0000
  O   O24       1.0  0.14159  0.78370  0.62310  1.0000
  O   O25       1.0  0.57604  0.75530  0.12470  1.0000
  O   O26       1.0  0.42396  0.75530  0.37530  1.0000
  O   O27       1.0  0.07604  0.25530  0.12470  1.0000
  O   O28       1.0  0.92396  0.25530  0.37530  1.0000
  O   O29       1.0  0.42396  0.24470  0.87530  1.0000
  O   O30       1.0  0.57604  0.24470  0.62470  1.0000
  O   O31       1.0  0.92396  0.74470  0.87530  1.0000
  O   O32       1.0  0.07604  0.74470  0.62470  1.0000
  O   O33       1.0  0.19510  0.42500  0.10640  1.0000
  O   O34       1.0  0.80490  0.42500  0.39360  1.0000
  O   O35       1.0  0.69510  0.92500  0.10640  1.0000
  O   O36       1.0  0.30490  0.92500  0.39360  1.0000
  O   O37       1.0  0.80490  0.57500  0.89360  1.0000
  O   O38       1.0  0.19510  0.57500  0.60640  1.0000
  O   O39       1.0  0.30490  0.07500  0.89360  1.0000
  O   O40       1.0  0.69510  0.07500  0.60640  1.0000
  O   O41       1.0  0.20616  0.30840  0.10290  1.0000
  O   O42       1.0  0.79384  0.30840  0.39710  1.0000
  O   O43       1.0  0.70616  0.80840  0.10290  1.0000
  O   O44       1.0  0.29384  0.80840  0.39710  1.0000
  O   O45       1.0  0.79384  0.69160  0.89710  1.0000
  O   O46       1.0  0.20616  0.69160  0.60290  1.0000
  O   O47       1.0  0.29384  0.19160  0.89710  1.0000
  O   O48       1.0  0.70616  0.19160  0.60290  1.0000
  O   O49       1.0  0.61500  0.97520  0.11480  1.0000
  O   O50       1.0  0.38500  0.97520  0.38520  1.0000
  O   O51       1.0  0.11500  0.47520  0.11480  1.0000
  O   O52       1.0  0.88500  0.47520  0.38520  1.0000
  O   O53       1.0  0.38500  0.02480  0.88520  1.0000
  O   O54       1.0  0.61500  0.02480  0.61480  1.0000
  O   O55       1.0  0.88500  0.52480  0.88520  1.0000
  O   O56       1.0  0.11500  0.52480  0.61480  1.0000
  O   O57       1.0  0.56200  0.90210  0.13570  1.0000
  O   O58       1.0  0.43800  0.90210  0.36430  1.0000
  O   O59       1.0  0.06200  0.40210  0.13570  1.0000
  O   O60       1.0  0.93800  0.40210  0.36430  1.0000
  O   O61       1.0  0.43800  0.09790  0.86430  1.0000
  O   O62       1.0  0.56200  0.09790  0.63570  1.0000
  O   O63       1.0  0.93800  0.59790  0.86430  1.0000
  O   O64       1.0  0.06200  0.59790  0.63570  1.0000
  N   N1        1.0  0.47120  0.42300  0.12950  1.0000
  N   N2        1.0  0.52880  0.42300  0.37050  1.0000
  N   N3        1.0  0.97120  0.92300  0.12950  1.0000
  N   N4        1.0  0.02880  0.92300  0.37050  1.0000
  N   N5        1.0  0.52880  0.57700  0.87050  1.0000
  N   N6        1.0  0.47120  0.57700  0.62950  1.0000
  N   N7        1.0  0.02880  0.07700  0.87050  1.0000
  N   N8        1.0  0.97120  0.07700  0.62950  1.0000
  N   N9        1.0  0.43070  0.31380  0.12650  1.0000
  N   N10       1.0  0.56930  0.31380  0.37350  1.0000
  N   N11       1.0  0.93070  0.81380  0.12650  1.0000
  N   N12       1.0  0.06930  0.81380  0.37350  1.0000
  N   N13       1.0  0.56930  0.68620  0.87350  1.0000
  N   N14       1.0  0.43070  0.68620  0.62650  1.0000
  N   N15       1.0  0.06930  0.18620  0.87350  1.0000
  N   N16       1.0  0.93070  0.18620  0.62650  1.0000
  N   N17       1.0  0.50670  0.31050  0.11760  1.0000
  N   N18       1.0  0.49330  0.31050  0.38240  1.0000
  N   N19       1.0  0.00670  0.81050  0.11760  1.0000
  N   N20       1.0  0.99330  0.81050  0.38240  1.0000
  N   N21       1.0  0.49330  0.68950  0.88240  1.0000
  N   N22       1.0  0.50670  0.68950  0.61760  1.0000
  N   N23       1.0  0.99330  0.18950  0.88240  1.0000
  N   N24       1.0  0.00670  0.18950  0.61760  1.0000
  N   N25       1.0  0.54490  0.41410  0.12090  1.0000
  N   N26       1.0  0.45510  0.41410  0.37910  1.0000
  N   N27       1.0  0.04490  0.91410  0.12090  1.0000
  N   N28       1.0  0.95510  0.91410  0.37910  1.0000
  N   N29       1.0  0.45510  0.58590  0.87910  1.0000
  N   N30       1.0  0.54490  0.58590  0.62090  1.0000
  N   N31       1.0  0.95510  0.08590  0.87910  1.0000
  N   N32       1.0  0.04490  0.08590  0.62090  1.0000
  H   H1        1.0  0.56541  0.38394  0.11479  1.0000
  H   H2        1.0  0.43459  0.38394  0.38521  1.0000
  H   H3        1.0  0.06541  0.88394  0.11479  1.0000
  H   H4        1.0  0.93459  0.88394  0.38521  1.0000
  H   H5        1.0  0.43459  0.61606  0.88521  1.0000
  H   H6        1.0  0.56541  0.61606  0.61479  1.0000
  H   H7        1.0  0.93459  0.11606  0.88521  1.0000
  H   H8        1.0  0.06541  0.11606  0.61479  1.0000
  N   N33       1.0  0.39910  0.42690  0.13090  1.0000
  N   N34       1.0  0.60090  0.42690  0.36910  1.0000
  N   N35       1.0  0.89910  0.92690  0.13090  1.0000
  N   N36       1.0  0.10090  0.92690  0.36910  1.0000
  N   N37       1.0  0.60090  0.57310  0.86910  1.0000
  N   N38       1.0  0.39910  0.57310  0.63090  1.0000
  N   N39       1.0  0.10090  0.07310  0.86910  1.0000
  N   N40       1.0  0.89910  0.07310  0.63090  1.0000
  H   H9        1.0  0.40430  0.47234  0.13694  1.0000
  H   H10       1.0  0.59570  0.47234  0.36306  1.0000
  H   H11       1.0  0.90430  0.97234  0.13694  1.0000
  H   H12       1.0  0.09570  0.97234  0.36306  1.0000
  H   H13       1.0  0.59570  0.52766  0.86306  1.0000
  H   H14       1.0  0.40430  0.52766  0.63694  1.0000
  H   H15       1.0  0.09570  0.02766  0.86306  1.0000
  H   H16       1.0  0.90430  0.02766  0.63694  1.0000
  N   N41       1.0  0.46410  0.20540  0.12050  1.0000
  N   N42       1.0  0.53590  0.20540  0.37950  1.0000
  N   N43       1.0  0.96410  0.70540  0.12050  1.0000
  N   N44       1.0  0.03590  0.70540  0.37950  1.0000
  N   N45       1.0  0.53590  0.79460  0.87950  1.0000
  N   N46       1.0  0.46410  0.79460  0.62050  1.0000
  N   N47       1.0  0.03590  0.29460  0.87950  1.0000
  N   N48       1.0  0.96410  0.29460  0.62050  1.0000
  H   H17       1.0  0.43810  0.19092  0.12004  1.0000
  H   H18       1.0  0.56190  0.19092  0.37996  1.0000
  H   H19       1.0  0.93810  0.69092  0.12004  1.0000
  H   H20       1.0  0.06190  0.69092  0.37996  1.0000
  H   H21       1.0  0.56190  0.80908  0.87996  1.0000
  H   H22       1.0  0.43810  0.80908  0.62004  1.0000
  H   H23       1.0  0.06190  0.30908  0.87996  1.0000
  H   H24       1.0  0.93810  0.30908  0.62004  1.0000
  C   C1        1.0  0.60160  0.70320  0.12510  1.0000
  C   C2        1.0  0.39840  0.70320  0.37490  1.0000
  C   C3        1.0  0.10160  0.20320  0.12510  1.0000
  C   C4        1.0  0.89840  0.20320  0.37490  1.0000
  C   C5        1.0  0.39840  0.29680  0.87490  1.0000
  C   C6        1.0  0.60160  0.29680  0.62510  1.0000
  C   C7        1.0  0.89840  0.79680  0.87490  1.0000
  C   C8        1.0  0.10160  0.79680  0.62510  1.0000
  C   C9        1.0  0.58600  0.62620  0.12660  1.0000
  C   C10       1.0  0.41400  0.62620  0.37340  1.0000
  C   C11       1.0  0.08600  0.12620  0.12660  1.0000
  C   C12       1.0  0.91400  0.12620  0.37340  1.0000
  C   C13       1.0  0.41400  0.37380  0.87340  1.0000
  C   C14       1.0  0.58600  0.37380  0.62660  1.0000
  C   C15       1.0  0.91400  0.87380  0.87340  1.0000
  C   C16       1.0  0.08600  0.87380  0.62660  1.0000
  C   C17       1.0  0.60040  0.50000  0.12500  1.0000
  C   C18       1.0  0.39960  0.50000  0.37500  1.0000
  C   C19       1.0  0.10040  0.00000  0.12500  1.0000
  C   C20       1.0  0.89960  0.00000  0.37500  1.0000
  C   C21       1.0  0.39960  0.50000  0.87500  1.0000
  C   C22       1.0  0.60040  0.50000  0.62500  1.0000
  C   C23       1.0  0.89960  0.00000  0.87500  1.0000
  C   C24       1.0  0.10040  0.00000  0.62500  1.0000
  H   H25       1.0  0.61974  0.46220  0.12235  1.0000
  H   H26       1.0  0.38026  0.46220  0.37765  1.0000
  H   H27       1.0  0.11974  0.96220  0.12235  1.0000
  H   H28       1.0  0.88026  0.96220  0.37765  1.0000
  H   H29       1.0  0.38026  0.53780  0.87765  1.0000
  H   H30       1.0  0.61974  0.53780  0.62235  1.0000
  H   H31       1.0  0.88026  0.03780  0.87765  1.0000
  H   H32       1.0  0.11974  0.03780  0.62235  1.0000
  C   C25       1.0  0.52900  0.54340  0.13010  1.0000
  C   C26       1.0  0.47100  0.54340  0.36990  1.0000
  C   C27       1.0  0.02900  0.04340  0.13010  1.0000
  C   C28       1.0  0.97100  0.04340  0.36990  1.0000
  C   C29       1.0  0.47100  0.45660  0.86990  1.0000
  C   C30       1.0  0.52900  0.45660  0.63010  1.0000
  C   C31       1.0  0.97100  0.95660  0.86990  1.0000
  C   C32       1.0  0.02900  0.95660  0.63010  1.0000
  H   H33       1.0  0.49997  0.53434  0.13279  1.0000
  H   H34       1.0  0.50003  0.53434  0.36721  1.0000
  H   H35       1.0  0.99997  0.03434  0.13279  1.0000
  H   H36       1.0  0.00003  0.03434  0.36721  1.0000
  H   H37       1.0  0.50003  0.46566  0.86721  1.0000
  H   H38       1.0  0.49997  0.46566  0.63279  1.0000
  H   H39       1.0  0.00003  0.96566  0.86721  1.0000
  H   H40       1.0  0.99997  0.96566  0.63279  1.0000
  C   C33       1.0  0.61460  0.57040  0.12710  1.0000
  C   C34       1.0  0.38540  0.57040  0.37290  1.0000
  C   C35       1.0  0.11460  0.07040  0.12710  1.0000
  C   C36       1.0  0.88540  0.07040  0.37290  1.0000
  C   C37       1.0  0.38540  0.42960  0.87290  1.0000
  C   C38       1.0  0.61460  0.42960  0.62710  1.0000
  C   C39       1.0  0.88540  0.92960  0.87290  1.0000
  C   C40       1.0  0.11460  0.92960  0.62710  1.0000
  H   H41       1.0  0.64377  0.57995  0.12890  1.0000
  H   H42       1.0  0.35623  0.57995  0.37110  1.0000
  H   H43       1.0  0.14377  0.07995  0.12890  1.0000
  H   H44       1.0  0.85623  0.07995  0.37110  1.0000
  H   H45       1.0  0.35623  0.42005  0.87110  1.0000
  H   H46       1.0  0.64377  0.42005  0.62890  1.0000
  H   H47       1.0  0.85623  0.92005  0.87110  1.0000
  H   H48       1.0  0.14377  0.92005  0.62890  1.0000
  C   C41       1.0  0.54310  0.61290  0.12970  1.0000
  C   C42       1.0  0.45690  0.61290  0.37030  1.0000
  C   C43       1.0  0.04310  0.11290  0.12970  1.0000
  C   C44       1.0  0.95690  0.11290  0.37030  1.0000
  C   C45       1.0  0.45690  0.38710  0.87030  1.0000
  C   C46       1.0  0.54310  0.38710  0.62970  1.0000
  C   C47       1.0  0.95690  0.88710  0.87030  1.0000
  C   C48       1.0  0.04310  0.88710  0.62970  1.0000
  H   H49       1.0  0.52389  0.65095  0.13147  1.0000
  H   H50       1.0  0.47611  0.65095  0.36853  1.0000
  H   H51       1.0  0.02389  0.15095  0.13147  1.0000
  H   H52       1.0  0.97611  0.15095  0.36853  1.0000
  H   H53       1.0  0.47611  0.34905  0.86853  1.0000
  H   H54       1.0  0.52389  0.34905  0.63147  1.0000
  H   H55       1.0  0.97611  0.84905  0.86853  1.0000
  H   H56       1.0  0.02389  0.84905  0.63147  1.0000
  C   C49       1.0  0.55730  0.48570  0.12670  1.0000
  C   C50       1.0  0.44270  0.48570  0.37330  1.0000
  C   C51       1.0  0.05730  0.98570  0.12670  1.0000
  C   C52       1.0  0.94270  0.98570  0.37330  1.0000
  C   C53       1.0  0.44270  0.51430  0.87330  1.0000
  C   C54       1.0  0.55730  0.51430  0.62670  1.0000
  C   C55       1.0  0.94270  0.01430  0.87330  1.0000
  C   C56       1.0  0.05730  0.01430  0.62670  1.0000
  C   C57       1.0  0.50570  0.38390  0.12320  1.0000
  C   C58       1.0  0.49430  0.38390  0.37680  1.0000
  C   C59       1.0  0.00570  0.88390  0.12320  1.0000
  C   C60       1.0  0.99430  0.88390  0.37680  1.0000
  C   C61       1.0  0.49430  0.61610  0.87680  1.0000
  C   C62       1.0  0.50570  0.61610  0.62320  1.0000
  C   C63       1.0  0.99430  0.11610  0.87680  1.0000
  C   C64       1.0  0.00570  0.11610  0.62320  1.0000
  C   C65       1.0  0.46810  0.27910  0.12140  1.0000
  C   C66       1.0  0.53190  0.27910  0.37860  1.0000
  C   C67       1.0  0.96810  0.77910  0.12140  1.0000
  C   C68       1.0  0.03190  0.77910  0.37860  1.0000
  C   C69       1.0  0.53190  0.72090  0.87860  1.0000
  C   C70       1.0  0.46810  0.72090  0.62140  1.0000
  C   C71       1.0  0.03190  0.22090  0.87860  1.0000
  C   C72       1.0  0.96810  0.22090  0.62140  1.0000
  C   C73       1.0  0.43480  0.38500  0.12980  1.0000
  C   C74       1.0  0.56520  0.38500  0.37020  1.0000
  C   C75       1.0  0.93480  0.88500  0.12980  1.0000
  C   C76       1.0  0.06520  0.88500  0.37020  1.0000
  C   C77       1.0  0.56520  0.61500  0.87020  1.0000
  C   C78       1.0  0.43480  0.61500  0.62980  1.0000
  C   C79       1.0  0.06520  0.11500  0.87020  1.0000
  C   C80       1.0  0.93480  0.11500  0.62980  1.0000
  C   C81       1.0  0.49310  0.15000  0.12010  1.0000
  C   C82       1.0  0.50690  0.15000  0.37990  1.0000
  C   C83       1.0  0.99310  0.65000  0.12010  1.0000
  C   C84       1.0  0.00690  0.65000  0.37990  1.0000
  C   C85       1.0  0.50690  0.85000  0.87990  1.0000
  C   C86       1.0  0.49310  0.85000  0.62010  1.0000
  C   C87       1.0  0.00690  0.35000  0.87990  1.0000
  C   C88       1.0  0.99310  0.35000  0.62010  1.0000
  C   C89       1.0  0.50300  0.02110  0.12060  1.0000
  C   C90       1.0  0.49700  0.02110  0.37940  1.0000
  C   C91       1.0  0.00300  0.52110  0.12060  1.0000
  C   C92       1.0  0.99700  0.52110  0.37940  1.0000
  C   C93       1.0  0.49700  0.97890  0.87940  1.0000
  C   C94       1.0  0.50300  0.97890  0.62060  1.0000
  C   C95       1.0  0.99700  0.47890  0.87940  1.0000
  C   C96       1.0  0.00300  0.47890  0.62060  1.0000
  H   H57       1.0  0.49152  0.97482  0.12025  1.0000
  H   H58       1.0  0.50848  0.97482  0.37975  1.0000
  H   H59       1.0  0.99152  0.47482  0.12025  1.0000
  H   H60       1.0  0.00848  0.47482  0.37975  1.0000
  H   H61       1.0  0.50848  0.02518  0.87975  1.0000
  H   H62       1.0  0.49152  0.02518  0.62025  1.0000
  H   H63       1.0  0.00848  0.52518  0.87975  1.0000
  H   H64       1.0  0.99152  0.52518  0.62025  1.0000
  C   C97       1.0  0.53770  0.16170  0.12510  1.0000
  C   C98       1.0  0.46230  0.16170  0.37490  1.0000
  C   C99       1.0  0.03770  0.66170  0.12510  1.0000
  C   C100      1.0  0.96230  0.66170  0.37490  1.0000
  C   C101      1.0  0.46230  0.83830  0.87490  1.0000
  C   C102      1.0  0.53770  0.83830  0.62510  1.0000
  C   C103      1.0  0.96230  0.33830  0.87490  1.0000
  C   C104      1.0  0.03770  0.33830  0.62510  1.0000
  H   H65       1.0  0.54944  0.20784  0.12758  1.0000
  H   H66       1.0  0.45056  0.20784  0.37242  1.0000
  H   H67       1.0  0.04944  0.70784  0.12758  1.0000
  H   H68       1.0  0.95056  0.70784  0.37242  1.0000
  H   H69       1.0  0.45056  0.79216  0.87242  1.0000
  H   H70       1.0  0.54944  0.79216  0.62758  1.0000
  H   H71       1.0  0.95056  0.29216  0.87242  1.0000
  H   H72       1.0  0.04944  0.29216  0.62758  1.0000
  C   C105      1.0  0.47680  0.07890  0.11750  1.0000
  C   C106      1.0  0.52320  0.07890  0.38250  1.0000
  C   C107      1.0  0.97680  0.57890  0.11750  1.0000
  C   C108      1.0  0.02320  0.57890  0.38250  1.0000
  C   C109      1.0  0.52320  0.92110  0.88250  1.0000
  C   C110      1.0  0.47680  0.92110  0.61750  1.0000
  C   C111      1.0  0.02320  0.42110  0.88250  1.0000
  C   C112      1.0  0.97680  0.42110  0.61750  1.0000
  H   H73       1.0  0.44741  0.07182  0.11351  1.0000
  H   H74       1.0  0.55259  0.07182  0.38649  1.0000
  H   H75       1.0  0.94741  0.57182  0.11351  1.0000
  H   H76       1.0  0.05259  0.57182  0.38649  1.0000
  H   H77       1.0  0.55259  0.92818  0.88649  1.0000
  H   H78       1.0  0.44741  0.92818  0.61351  1.0000
  H   H79       1.0  0.05259  0.42818  0.88649  1.0000
  H   H80       1.0  0.94741  0.42818  0.61351  1.0000
  C   C113      1.0  0.56340  0.09930  0.12620  1.0000
  C   C114      1.0  0.43660  0.09930  0.37380  1.0000
  C   C115      1.0  0.06340  0.59930  0.12620  1.0000
  C   C116      1.0  0.93660  0.59930  0.37380  1.0000
  C   C117      1.0  0.43660  0.90070  0.87380  1.0000
  C   C118      1.0  0.56340  0.90070  0.62620  1.0000
  C   C119      1.0  0.93660  0.40070  0.87380  1.0000
  C   C120      1.0  0.06340  0.40070  0.62620  1.0000
  H   H81       1.0  0.59293  0.10490  0.12823  1.0000
  H   H82       1.0  0.40707  0.10490  0.37177  1.0000
  H   H83       1.0  0.09293  0.60490  0.12823  1.0000
  H   H84       1.0  0.90707  0.60490  0.37177  1.0000
  H   H85       1.0  0.40707  0.89510  0.87177  1.0000
  H   H86       1.0  0.59293  0.89510  0.62823  1.0000
  H   H87       1.0  0.90707  0.39510  0.87177  1.0000
  H   H88       1.0  0.09293  0.39510  0.62823  1.0000
  C   C121      1.0  0.54700  0.03020  0.12430  1.0000
  C   C122      1.0  0.45300  0.03020  0.37570  1.0000
  C   C123      1.0  0.04700  0.53020  0.12430  1.0000
  C   C124      1.0  0.95300  0.53020  0.37570  1.0000
  C   C125      1.0  0.45300  0.96980  0.87570  1.0000
  C   C126      1.0  0.54700  0.96980  0.62430  1.0000
  C   C127      1.0  0.95300  0.46980  0.87570  1.0000
  C   C128      1.0  0.04700  0.46980  0.62430  1.0000
  C   C129      1.0  0.57560  0.96670  0.12430  1.0000
  C   C130      1.0  0.42440  0.96670  0.37570  1.0000
  C   C131      1.0  0.07560  0.46670  0.12430  1.0000
  C   C132      1.0  0.92440  0.46670  0.37570  1.0000
  C   C133      1.0  0.42440  0.03330  0.87570  1.0000
  C   C134      1.0  0.57560  0.03330  0.62430  1.0000
  C   C135      1.0  0.92440  0.53330  0.87570  1.0000
  C   C136      1.0  0.07560  0.53330  0.62430  1.0000
  C   C137      1.0  0.33940  0.33990  0.10980  1.0000
  C   C138      1.0  0.66060  0.33990  0.39020  1.0000
  C   C139      1.0  0.83940  0.83990  0.10980  1.0000
  C   C140      1.0  0.16060  0.83990  0.39020  1.0000
  C   C141      1.0  0.66060  0.66010  0.89020  1.0000
  C   C142      1.0  0.33940  0.66010  0.60980  1.0000
  C   C143      1.0  0.16060  0.16010  0.89020  1.0000
  C   C144      1.0  0.83940  0.16010  0.60980  1.0000
  H   H89       1.0  0.35776  0.30084  0.10475  1.0000
  H   H90       1.0  0.64224  0.30084  0.39525  1.0000
  H   H91       1.0  0.85776  0.80084  0.10475  1.0000
  H   H92       1.0  0.14224  0.80084  0.39525  1.0000
  H   H93       1.0  0.64224  0.69916  0.89525  1.0000
  H   H94       1.0  0.35776  0.69916  0.60475  1.0000
  H   H95       1.0  0.14224  0.19916  0.89525  1.0000
  H   H96       1.0  0.85776  0.19916  0.60475  1.0000
  C   C145      1.0  0.35600  0.40970  0.12410  1.0000
  C   C146      1.0  0.64400  0.40970  0.37590  1.0000
  C   C147      1.0  0.85600  0.90970  0.12410  1.0000
  C   C148      1.0  0.14400  0.90970  0.37590  1.0000
  C   C149      1.0  0.64400  0.59030  0.87590  1.0000
  C   C150      1.0  0.35600  0.59030  0.62410  1.0000
  C   C151      1.0  0.14400  0.09030  0.87590  1.0000
  C   C152      1.0  0.85600  0.09030  0.62410  1.0000
  C   C153      1.0  0.28310  0.45520  0.11760  1.0000
  C   C154      1.0  0.71690  0.45520  0.38240  1.0000
  C   C155      1.0  0.78310  0.95520  0.11760  1.0000
  C   C156      1.0  0.21690  0.95520  0.38240  1.0000
  C   C157      1.0  0.71690  0.54480  0.88240  1.0000
  C   C158      1.0  0.28310  0.54480  0.61760  1.0000
  C   C159      1.0  0.21690  0.04480  0.88240  1.0000
  C   C160      1.0  0.78310  0.04480  0.61760  1.0000
  H   H97       1.0  0.26463  0.49436  0.11870  1.0000
  H   H98       1.0  0.73537  0.49436  0.38130  1.0000
  H   H99       1.0  0.76463  0.99436  0.11870  1.0000
  H   H100      1.0  0.23537  0.99436  0.38130  1.0000
  H   H101      1.0  0.73537  0.50564  0.88130  1.0000
  H   H102      1.0  0.26463  0.50564  0.61870  1.0000
  H   H103      1.0  0.23537  0.00564  0.88130  1.0000
  H   H104      1.0  0.76463  0.00564  0.61870  1.0000
  C   C161      1.0  0.26790  0.38620  0.10950  1.0000
  C   C162      1.0  0.73210  0.38620  0.39050  1.0000
  C   C163      1.0  0.76790  0.88620  0.10950  1.0000
  C   C164      1.0  0.23210  0.88620  0.39050  1.0000
  C   C165      1.0  0.73210  0.61380  0.89050  1.0000
  C   C166      1.0  0.26790  0.61380  0.60950  1.0000
  C   C167      1.0  0.23210  0.11380  0.89050  1.0000
  C   C168      1.0  0.76790  0.11380  0.60950  1.0000
  C   C169      1.0  0.29570  0.32930  0.10310  1.0000
  C   C170      1.0  0.70430  0.32930  0.39690  1.0000
  C   C171      1.0  0.79570  0.82930  0.10310  1.0000
  C   C172      1.0  0.20430  0.82930  0.39690  1.0000
  C   C173      1.0  0.70430  0.67070  0.89690  1.0000
  C   C174      1.0  0.29570  0.67070  0.60310  1.0000
  C   C175      1.0  0.20430  0.17070  0.89690  1.0000
  C   C176      1.0  0.79570  0.17070  0.60310  1.0000
  H   H105      1.0  0.28490  0.28287  0.09419  1.0000
  H   H106      1.0  0.71510  0.28287  0.40581  1.0000
  H   H107      1.0  0.78490  0.78287  0.09419  1.0000
  H   H108      1.0  0.21510  0.78287  0.40581  1.0000
  H   H109      1.0  0.71510  0.71713  0.90581  1.0000
  H   H110      1.0  0.28490  0.71713  0.59419  1.0000
  H   H111      1.0  0.21510  0.21713  0.90581  1.0000
  H   H112      1.0  0.78490  0.21713  0.59419  1.0000
  C   C177      1.0  0.32730  0.46480  0.12400  1.0000
  C   C178      1.0  0.67270  0.46480  0.37600  1.0000
  C   C179      1.0  0.82730  0.96480  0.12400  1.0000
  C   C180      1.0  0.17270  0.96480  0.37600  1.0000
  C   C181      1.0  0.67270  0.53520  0.87600  1.0000
  C   C182      1.0  0.32730  0.53520  0.62400  1.0000
  C   C183      1.0  0.17270  0.03520  0.87600  1.0000
  C   C184      1.0  0.82730  0.03520  0.62400  1.0000
  H   H113      1.0  0.33777  0.51172  0.12858  1.0000
  H   H114      1.0  0.66223  0.51172  0.37142  1.0000
  H   H115      1.0  0.83777  0.01172  0.12858  1.0000
  H   H116      1.0  0.16223  0.01172  0.37142  1.0000
  H   H117      1.0  0.66223  0.48828  0.87142  1.0000
  H   H118      1.0  0.33777  0.48828  0.62858  1.0000
  H   H119      1.0  0.16223  0.98828  0.87142  1.0000
  H   H120      1.0  0.83777  0.98828  0.62858  1.0000
  C   C185      1.0  0.22040  0.37210  0.10400  1.0000
  C   C186      1.0  0.77960  0.37210  0.39600  1.0000
  C   C187      1.0  0.72040  0.87210  0.10400  1.0000
  C   C188      1.0  0.27960  0.87210  0.39600  1.0000
  C   C189      1.0  0.77960  0.62790  0.89600  1.0000
  C   C190      1.0  0.22040  0.62790  0.60400  1.0000
  C   C191      1.0  0.27960  0.12790  0.89600  1.0000
  C   C192      1.0  0.72040  0.12790  0.60400  1.0000
