data_image0
_chemical_formula_structural       Nd2O2N2C2Sr2O2N2C2H2O2N2C2H2O2C2H2O2C4O4C2O2C2O2C2H2O2C2H2O2C2H2C2O2C2O2H4C2O2H4O2H4C2O2H4O2H4C8H2C2H2C2H2
_chemical_formula_sum              "Nd2 O34 N6 C42 Sr2 H38"
_cell_length_a       10.265
_cell_length_b       11.156
_cell_length_c       17.44
_cell_angle_alpha    108.484
_cell_angle_beta     97.675
_cell_angle_gamma    101.579

_space_group_name_H-M_alt    "P 1"
_space_group_IT_number       1

loop_
  _space_group_symop_operation_xyz
  'x, y, z'

loop_
  _atom_site_type_symbol
  _atom_site_label
  _atom_site_symmetry_multiplicity
  _atom_site_fract_x
  _atom_site_fract_y
  _atom_site_fract_z
  _atom_site_occupancy
  Nd  Nd1       1.0  0.79261  0.28964  0.20792  1.0000
  Nd  Nd2       1.0  0.20739  0.71036  0.79207  1.0000
  O   O1        1.0  0.67377  0.37279  0.11090  1.0000
  O   O2        1.0  0.32623  0.62721  0.88910  1.0000
  N   N1        1.0  0.54890  0.30800  0.21973  1.0000
  N   N2        1.0  0.45110  0.69200  0.78027  1.0000
  C   C1        1.0  0.47880  0.35100  0.16827  1.0000
  C   C2        1.0  0.52120  0.64900  0.83173  1.0000
  Sr  Sr1       1.0  0.58480  0.69710  0.09775  1.0000
  Sr  Sr2       1.0  0.41520  0.30290  0.90225  1.0000
  O   O3        1.0  0.49700  0.43194  0.05879  1.0000
  O   O4        1.0  0.50300  0.56806  0.94121  1.0000
  N   N3        1.0  0.98450  0.39890  0.33917  1.0000
  N   N4        1.0  0.01550  0.60110  0.66083  1.0000
  C   C3        1.0  0.34740  0.36140  0.17170  1.0000
  C   C4        1.0  0.65260  0.63860  0.82830  1.0000
  H   H1        1.0  0.30170  0.39420  0.13650  1.0000
  H   H2        1.0  0.69830  0.60580  0.86350  1.0000
  O   O5        1.0  0.69982  0.23460  0.32148  1.0000
  O   O6        1.0  0.30018  0.76540  0.67852  1.0000
  N   N5        1.0  0.82640  0.16650  0.06300  1.0000
  N   N6        1.0  0.17360  0.83350  0.93700  1.0000
  C   C5        1.0  0.28520  0.32160  0.22890  1.0000
  C   C6        1.0  0.71480  0.67840  0.77110  1.0000
  H   H3        1.0  0.19640  0.32610  0.23200  1.0000
  H   H4        1.0  0.80360  0.67390  0.76800  1.0000
  O   O7        1.0  0.53020  0.18650  0.38282  1.0000
  O   O8        1.0  0.46980  0.81350  0.61718  1.0000
  C   C7        1.0  0.35720  0.27520  0.28120  1.0000
  C   C8        1.0  0.64280  0.72480  0.71880  1.0000
  H   H5        1.0  0.31740  0.24720  0.31950  1.0000
  H   H6        1.0  0.68260  0.75280  0.68050  1.0000
  O   O9        1.0  0.82260  0.52799  0.28945  1.0000
  O   O10       1.0  0.17740  0.47201  0.71055  1.0000
  C   C9        1.0  0.48950  0.27140  0.27543  1.0000
  C   C10       1.0  0.51050  0.72860  0.72457  1.0000
  C   C11       1.0  0.55530  0.38800  0.10752  1.0000
  C   C12       1.0  0.44470  0.61200  0.89248  1.0000
  O   O11       1.0  0.94680  0.71860  0.38358  1.0000
  O   O12       1.0  0.05320  0.28140  0.61642  1.0000
  O   O13       1.0  0.93250  0.15007  0.24449  1.0000
  O   O14       1.0  0.06750  0.84993  0.75551  1.0000
  C   C13       1.0  0.58010  0.22700  0.33116  1.0000
  C   C14       1.0  0.41990  0.77300  0.66884  1.0000
  O   O15       1.0  0.07390  0.10960  0.33677  1.0000
  O   O16       1.0  0.92610  0.89040  0.66323  1.0000
  C   C15       1.0  0.01090  0.52680  0.38281  1.0000
  C   C16       1.0  0.98910  0.47320  0.61719  1.0000
  O   O17       1.0  0.98440  0.39730  0.15825  1.0000
  O   O18       1.0  0.01560  0.60270  0.84175  1.0000
  C   C17       1.0  0.11140  0.58710  0.45437  1.0000
  C   C18       1.0  0.88860  0.41290  0.54563  1.0000
  H   H7        1.0  0.12950  0.67650  0.48320  1.0000
  H   H8        1.0  0.87050  0.32350  0.51680  1.0000
  O   O19       1.0  0.09030  0.41830  0.05781  1.0000
  O   O20       1.0  0.90970  0.58170  0.94219  1.0000
  C   C19       1.0  0.18420  0.51190  0.48216  1.0000
  C   C20       1.0  0.81580  0.48810  0.51784  1.0000
  H   H9        1.0  0.25170  0.55010  0.53020  1.0000
  H   H10       1.0  0.74830  0.44990  0.46980  1.0000
  O   O21       1.0  0.64290  0.06655  0.13335  1.0000
  O   O22       1.0  0.35710  0.93345  0.86665  1.0000
  C   C21       1.0  0.15560  0.37920  0.43784  1.0000
  C   C22       1.0  0.84440  0.62080  0.56216  1.0000
  H   H11       1.0  0.20290  0.32680  0.45570  1.0000
  H   H12       1.0  0.79710  0.67320  0.54430  1.0000
  C   C23       1.0  0.05500  0.32620  0.36623  1.0000
  C   C24       1.0  0.94500  0.67380  0.63377  1.0000
  O   O23       1.0  0.58580  0.87253  0.02998  1.0000
  O   O24       1.0  0.41420  0.12747  0.97002  1.0000
  C   C25       1.0  0.91990  0.59760  0.34934  1.0000
  C   C26       1.0  0.08010  0.40240  0.65066  1.0000
  O   O25       1.0  0.79610  0.60120  0.07980  1.0000
  O   O26       1.0  0.20390  0.39880  0.92020  1.0000
  H   H13       1.0  0.85040  0.60270  0.04720  1.0000
  H   H14       1.0  0.14960  0.39730  0.95280  1.0000
  H   H15       1.0  0.78420  0.52800  0.08680  1.0000
  H   H16       1.0  0.21580  0.47200  0.91320  1.0000
  C   C27       1.0  0.01750  0.18240  0.31202  1.0000
  C   C28       1.0  0.98250  0.81760  0.68798  1.0000
  O   O27       1.0  0.32790  0.64750  0.09800  1.0000
  O   O28       1.0  0.67210  0.35250  0.90200  1.0000
  H   H17       1.0  0.30020  0.67910  0.14200  1.0000
  H   H18       1.0  0.69980  0.32090  0.85800  1.0000
  H   H19       1.0  0.27820  0.57020  0.07250  1.0000
  H   H20       1.0  0.72180  0.42980  0.92750  1.0000
  O   O29       1.0  0.81380  0.87530  0.16898  1.0000
  O   O30       1.0  0.18620  0.12470  0.83102  1.0000
  H   H21       1.0  0.88150  0.84650  0.18100  1.0000
  H   H22       1.0  0.11850  0.15350  0.81900  1.0000
  H   H23       1.0  0.84870  0.95740  0.18590  1.0000
  H   H24       1.0  0.15130  0.04260  0.81410  1.0000
  C   C29       1.0  0.91660  0.22510  0.02883  1.0000
  C   C30       1.0  0.08340  0.77490  0.97117  1.0000
  O   O31       1.0  0.53020  0.89640  0.20623  1.0000
  O   O32       1.0  0.46980  0.10360  0.79377  1.0000
  H   H25       1.0  0.54750  0.95780  0.18720  1.0000
  H   H26       1.0  0.45250  0.04220  0.81280  1.0000
  H   H27       1.0  0.46740  0.91500  0.23140  1.0000
  H   H28       1.0  0.53260  0.08500  0.76860  1.0000
  O   O33       1.0  0.64340  0.66010  0.23452  1.0000
  O   O34       1.0  0.35660  0.33990  0.76548  1.0000
  H   H29       1.0  0.69950  0.61980  0.24800  1.0000
  H   H30       1.0  0.30050  0.38020  0.75200  1.0000
  H   H31       1.0  0.58490  0.66920  0.26470  1.0000
  H   H32       1.0  0.41510  0.33080  0.73530  1.0000
  C   C31       1.0  0.74340  0.04860  0.01773  1.0000
  C   C32       1.0  0.25660  0.95140  0.98227  1.0000
  C   C33       1.0  0.00450  0.35760  0.08503  1.0000
  C   C34       1.0  0.99550  0.64240  0.91497  1.0000
  C   C35       1.0  0.64850  0.98960  0.06306  1.0000
  C   C36       1.0  0.35150  0.01040  0.93694  1.0000
  C   C37       1.0  0.92700  0.16780  0.94830  1.0000
  C   C38       1.0  0.07300  0.83220  0.05170  1.0000
  H   H33       1.0  0.99150  0.20960  0.92610  1.0000
  H   H34       1.0  0.00850  0.79040  0.07390  1.0000
  C   C39       1.0  0.74520  0.98710  0.93660  1.0000
  C   C40       1.0  0.25480  0.01290  0.06340  1.0000
  H   H35       1.0  0.68430  0.90660  0.90580  1.0000
  H   H36       1.0  0.31570  0.09340  0.09420  1.0000
  C   C41       1.0  0.83960  0.04690  0.90080  1.0000
  C   C42       1.0  0.16040  0.95310  0.09920  1.0000
  H   H37       1.0  0.84400  0.00630  0.84610  1.0000
  H   H38       1.0  0.15600  0.99370  0.15390  1.0000
