data_image0
_chemical_formula_structural       Ag2N2O8C4Mo8C2N2C2N2O18H2C2H12C4H2C2H2C2H2C2N2H4N4H4O26Mo8Ag2
_chemical_formula_sum              "Ag4 N12 O52 C20 Mo16 H28"
_cell_length_a       13.0475
_cell_length_b       16.5992
_cell_length_c       17.9506
_cell_angle_alpha    88.636
_cell_angle_beta     74.794
_cell_angle_gamma    68.719

_space_group_name_H-M_alt    "P 1"
_space_group_IT_number       1

loop_
  _space_group_symop_operation_xyz
  'x, y, z'

loop_
  _atom_site_type_symbol
  _atom_site_label
  _atom_site_symmetry_multiplicity
  _atom_site_fract_x
  _atom_site_fract_y
  _atom_site_fract_z
  _atom_site_occupancy
  Ag  Ag1       1.0  0.82830  0.95088  0.82955  1.0000
  Ag  Ag2       1.0  0.17170  0.04912  0.17045  1.0000
  N   N1        1.0  0.93180  0.94910  0.71000  1.0000
  N   N2        1.0  0.06820  0.05090  0.29000  1.0000
  O   O1        1.0  0.82720  0.91760  0.95520  1.0000
  O   O2        1.0  0.17280  0.08240  0.04480  1.0000
  O   O3        1.0  0.67780  0.08750  0.90930  1.0000
  O   O4        1.0  0.32220  0.91250  0.09070  1.0000
  O   O5        1.0  0.64070  0.99550  0.78390  1.0000
  O   O6        1.0  0.35930  0.00450  0.21610  1.0000
  O   O7        1.0  0.79900  0.80940  0.82700  1.0000
  O   O8        1.0  0.20100  0.19060  0.17300  1.0000
  C   C1        1.0  0.90940  0.02300  0.67450  1.0000
  C   C2        1.0  0.09060  0.97700  0.32550  1.0000
  C   C3        1.0  0.02190  0.87800  0.67680  1.0000
  C   C4        1.0  0.97810  0.12200  0.32320  1.0000
  Mo  Mo1       1.0  0.71787  0.89981  0.02376  1.0000
  Mo  Mo2       1.0  0.28213  0.10019  0.97624  1.0000
  Mo  Mo3       1.0  0.56013  0.08001  0.97328  1.0000
  Mo  Mo4       1.0  0.43987  0.91999  0.02672  1.0000
  Mo  Mo5       1.0  0.52150  0.97968  0.83824  1.0000
  Mo  Mo6       1.0  0.47850  0.02032  0.16176  1.0000
  Mo  Mo7       1.0  0.68120  0.79535  0.88754  1.0000
  Mo  Mo8       1.0  0.31880  0.20465  0.11246  1.0000
  C   C5        1.0  0.98500  0.02770  0.60510  1.0000
  C   C6        1.0  0.01500  0.97230  0.39490  1.0000
  N   N3        1.0  0.81650  0.09290  0.70950  1.0000
  N   N4        1.0  0.18350  0.90710  0.29050  1.0000
  C   C7        1.0  0.09860  0.87990  0.60770  1.0000
  C   C8        1.0  0.90140  0.12010  0.39230  1.0000
  N   N5        1.0  0.03390  0.80510  0.71630  1.0000
  N   N6        1.0  0.96610  0.19490  0.28370  1.0000
  O   O9        1.0  0.62340  0.02550  0.05670  1.0000
  O   O10       1.0  0.37660  0.97450  0.94330  1.0000
  O   O11       1.0  0.77070  0.86900  0.10060  1.0000
  O   O12       1.0  0.22930  0.13100  0.89940  1.0000
  O   O13       1.0  0.72370  0.79480  0.98220  1.0000
  O   O14       1.0  0.27630  0.20520  0.01780  1.0000
  O   O15       1.0  0.59460  0.94720  0.94470  1.0000
  O   O16       1.0  0.40540  0.05280  0.05530  1.0000
  O   O17       1.0  0.54050  0.90880  0.09330  1.0000
  O   O18       1.0  0.45950  0.09120  0.90670  1.0000
  O   O19       1.0  0.48440  0.18310  0.02270  1.0000
  O   O20       1.0  0.51560  0.81690  0.97730  1.0000
  O   O21       1.0  0.42880  0.00670  0.78340  1.0000
  O   O22       1.0  0.57120  0.99330  0.21660  1.0000
  O   O23       1.0  0.57030  0.85770  0.83250  1.0000
  O   O24       1.0  0.42970  0.14230  0.16750  1.0000
  O   O25       1.0  0.69930  0.69150  0.86760  1.0000
  O   O26       1.0  0.30070  0.30850  0.13240  1.0000
  H   H1        1.0  0.97171  0.08049  0.58062  1.0000
  H   H2        1.0  0.02829  0.91951  0.41938  1.0000
  C   C9        1.0  0.07890  0.95530  0.57240  1.0000
  C   C10       1.0  0.92110  0.04470  0.42760  1.0000
  H   H3        1.0  0.77204  0.08942  0.75470  1.0000
  H   H4        1.0  0.22796  0.91058  0.24530  1.0000
  H   H5        1.0  0.80041  0.14197  0.68699  1.0000
  H   H6        1.0  0.19959  0.85803  0.31301  1.0000
  H   H7        1.0  0.16371  0.82959  0.58543  1.0000
  H   H8        1.0  0.83629  0.17041  0.41457  1.0000
  H   H9        1.0  0.98396  0.80699  0.76067  1.0000
  H   H10       1.0  0.01604  0.19301  0.23933  1.0000
  H   H11       1.0  0.09161  0.75632  0.69734  1.0000
  H   H12       1.0  0.90839  0.24368  0.30266  1.0000
  H   H13       1.0  0.13053  0.95770  0.52475  1.0000
  H   H14       1.0  0.86947  0.04230  0.47525  1.0000
  C   C11       1.0  0.91530  0.65640  0.49920  1.0000
  C   C12       1.0  0.08470  0.34360  0.50080  1.0000
  C   C13       1.0  0.94010  0.73050  0.50020  1.0000
  C   C14       1.0  0.05990  0.26950  0.49980  1.0000
  H   H15       1.0  0.98413  0.74593  0.45513  1.0000
  H   H16       1.0  0.01587  0.25407  0.54487  1.0000
  C   C15       1.0  0.89810  0.78120  0.56910  1.0000
  C   C16       1.0  0.10190  0.21880  0.43090  1.0000
  H   H17       1.0  0.91477  0.83201  0.57212  1.0000
  H   H18       1.0  0.08523  0.16799  0.42788  1.0000
  C   C17       1.0  0.83310  0.75960  0.63310  1.0000
  C   C18       1.0  0.16690  0.24040  0.36690  1.0000
  H   H19       1.0  0.80258  0.79551  0.68019  1.0000
  H   H20       1.0  0.19742  0.20449  0.31981  1.0000
  C   C19       1.0  0.81260  0.68360  0.62780  1.0000
  C   C20       1.0  0.18740  0.31640  0.37220  1.0000
  N   N7        1.0  0.95950  0.59950  0.43350  1.0000
  N   N8        1.0  0.04050  0.40050  0.56650  1.0000
  H   H21       1.0  0.94683  0.55087  0.43452  1.0000
  H   H22       1.0  0.05317  0.44913  0.56548  1.0000
  H   H23       1.0  0.00025  0.61204  0.39071  1.0000
  H   H24       1.0  0.99975  0.38796  0.60929  1.0000
  N   N9        1.0  0.85460  0.63220  0.56140  1.0000
  N   N10       1.0  0.14540  0.36780  0.43860  1.0000
  N   N11       1.0  0.74820  0.65700  0.68910  1.0000
  N   N12       1.0  0.25180  0.34300  0.31090  1.0000
  H   H25       1.0  0.73635  0.60879  0.68371  1.0000
  H   H26       1.0  0.26365  0.39121  0.31629  1.0000
  H   H27       1.0  0.71856  0.68811  0.73388  1.0000
  H   H28       1.0  0.28144  0.31189  0.26612  1.0000
  O   O27       1.0  0.58560  0.38890  0.65870  1.0000
  O   O28       1.0  0.41440  0.61110  0.34130  1.0000
  O   O29       1.0  0.40700  0.53230  0.74520  1.0000
  O   O30       1.0  0.59300  0.46770  0.25480  1.0000
  O   O31       1.0  0.60450  0.55080  0.66960  1.0000
  O   O32       1.0  0.39550  0.44920  0.33040  1.0000
  O   O33       1.0  0.42760  0.60560  0.59960  1.0000
  O   O34       1.0  0.57240  0.39440  0.40040  1.0000
  O   O35       1.0  0.59630  0.46920  0.52570  1.0000
  O   O36       1.0  0.40370  0.53080  0.47430  1.0000
  O   O37       1.0  0.79850  0.38570  0.58570  1.0000
  O   O38       1.0  0.20150  0.61430  0.41430  1.0000
  O   O39       1.0  0.76870  0.23200  0.59530  1.0000
  O   O40       1.0  0.23130  0.76800  0.40470  1.0000
  O   O41       1.0  0.76640  0.32300  0.45840  1.0000
  O   O42       1.0  0.23360  0.67700  0.54160  1.0000
  O   O43       1.0  0.79400  0.38240  0.31330  1.0000
  O   O44       1.0  0.20600  0.61760  0.68670  1.0000
  O   O45       1.0  0.81900  0.47150  0.42710  1.0000
  O   O46       1.0  0.18100  0.52850  0.57290  1.0000
  O   O47       1.0  0.60940  0.53430  0.39330  1.0000
  O   O48       1.0  0.39060  0.46570  0.60670  1.0000
  O   O49       1.0  0.62450  0.63590  0.50870  1.0000
  O   O50       1.0  0.37550  0.36410  0.49130  1.0000
  O   O51       1.0  0.42950  0.68360  0.46280  1.0000
  O   O52       1.0  0.57050  0.31640  0.53720  1.0000
  Mo  Mo9       1.0  0.71238  0.33500  0.56943  1.0000
  Mo  Mo10      1.0  0.28762  0.66500  0.43057  1.0000
  Mo  Mo11      1.0  0.50586  0.51035  0.65841  1.0000
  Mo  Mo12      1.0  0.49414  0.48965  0.34159  1.0000
  Mo  Mo13      1.0  0.52753  0.59686  0.49569  1.0000
  Mo  Mo14      1.0  0.47247  0.40314  0.50431  1.0000
  Mo  Mo15      1.0  0.73104  0.42489  0.40615  1.0000
  Mo  Mo16      1.0  0.26896  0.57511  0.59385  1.0000
  Ag  Ag3       1.0  0.83576  0.50650  0.55995  1.0000
  Ag  Ag4       1.0  0.16424  0.49350  0.44005  1.0000
