data_image0
_chemical_formula_structural       Ta6Cl12K2O8H4O2H2O2H2O2H2F6C4H2C2H2C4H2C2H2C4H2C2H2C4H2C2H2C4H2C2H2C4H2C2H2C2H6C2H6C2H6
_chemical_formula_sum              "Ta6 Cl12 K2 O14 H52 F6 C42"
_cell_length_a       12.3159
_cell_length_b       14.5013
_cell_length_c       15.7871
_cell_angle_alpha    70.169
_cell_angle_beta     88.002
_cell_angle_gamma    78.097

_space_group_name_H-M_alt    "P 1"
_space_group_IT_number       1

loop_
  _space_group_symop_operation_xyz
  'x, y, z'

loop_
  _atom_site_type_symbol
  _atom_site_label
  _atom_site_symmetry_multiplicity
  _atom_site_fract_x
  _atom_site_fract_y
  _atom_site_fract_z
  _atom_site_occupancy
  Ta  Ta1       1.0  0.41589  0.14178  0.49004  1.0000
  Ta  Ta2       1.0  0.58411  0.85822  0.50996  1.0000
  Ta  Ta3       1.0  0.62358  0.01388  0.57485  1.0000
  Ta  Ta4       1.0  0.37642  0.98612  0.42515  1.0000
  Ta  Ta5       1.0  0.57971  0.05876  0.38479  1.0000
  Ta  Ta6       1.0  0.42029  0.94124  0.61521  1.0000
  Cl  Cl1       1.0  0.74531  0.08606  0.45139  1.0000
  Cl  Cl2       1.0  0.25469  0.91394  0.54861  1.0000
  Cl  Cl3       1.0  0.49629  0.23800  0.35201  1.0000
  Cl  Cl4       1.0  0.50371  0.76200  0.64799  1.0000
  Cl  Cl5       1.0  0.54868  0.18528  0.57595  1.0000
  Cl  Cl6       1.0  0.45132  0.81472  0.42405  1.0000
  Cl  Cl7       1.0  0.25305  0.15467  0.39483  1.0000
  Cl  Cl8       1.0  0.74695  0.84533  0.60517  1.0000
  Cl  Cl9       1.0  0.55227  0.94780  0.72653  1.0000
  Cl  Cl10      1.0  0.44773  0.05220  0.27347  1.0000
  Cl  Cl11      1.0  0.30570  0.09767  0.62618  1.0000
  Cl  Cl12      1.0  0.69430  0.90233  0.37382  1.0000
  K   K1        1.0  0.94081  0.88925  0.46368  1.0000
  K   K2        1.0  0.05919  0.11075  0.53632  1.0000
  O   O1        1.0  0.32114  0.28650  0.48518  1.0000
  O   O2        1.0  0.67886  0.71350  0.51482  1.0000
  O   O3        1.0  0.75826  0.03131  0.64916  1.0000
  O   O4        1.0  0.24174  0.96869  0.35084  1.0000
  O   O5        1.0  0.66902  0.11919  0.26592  1.0000
  O   O6        1.0  0.33098  0.88081  0.73408  1.0000
  O   O7        1.0  0.03329  0.05776  0.38845  1.0000
  O   O8        1.0  0.96671  0.94224  0.61155  1.0000
  H   H1        1.0  0.98860  0.07470  0.34340  1.0000
  H   H2        1.0  0.01140  0.92530  0.65660  1.0000
  H   H3        1.0  0.09830  0.04060  0.37150  1.0000
  H   H4        1.0  0.90170  0.95940  0.62850  1.0000
  O   O9        1.0  0.88720  0.03450  0.27350  1.0000
  O   O10       1.0  0.11280  0.96550  0.72650  1.0000
  H   H5        1.0  0.86380  0.09550  0.24440  1.0000
  H   H6        1.0  0.13620  0.90450  0.75560  1.0000
  O   O11       1.0  0.89580  0.71380  0.46550  1.0000
  O   O12       1.0  0.10420  0.28620  0.53450  1.0000
  H   H7        1.0  0.86390  0.67700  0.50740  1.0000
  H   H8        1.0  0.13610  0.32300  0.49260  1.0000
  O   O13       1.0  0.14130  0.79970  0.43430  1.0000
  O   O14       1.0  0.85870  0.20030  0.56570  1.0000
  H   H9        1.0  0.17700  0.83320  0.39320  1.0000
  H   H10       1.0  0.82300  0.16680  0.60680  1.0000
  F   F1        1.0  0.31580  0.66520  0.24980  1.0000
  F   F2        1.0  0.68420  0.33480  0.75020  1.0000
  F   F3        1.0  0.80010  0.01097  0.99992  1.0000
  F   F4        1.0  0.19990  0.98903  0.00008  1.0000
  F   F5        1.0  0.51890  0.36700  0.92570  1.0000
  F   F6        1.0  0.48110  0.63300  0.07430  1.0000
  C   C1        1.0  0.32080  0.38000  0.42840  1.0000
  C   C2        1.0  0.67920  0.62000  0.57160  1.0000
  C   C3        1.0  0.22570  0.43580  0.37520  1.0000
  C   C4        1.0  0.77430  0.56420  0.62480  1.0000
  H   H11       1.0  0.16190  0.40750  0.37930  1.0000
  H   H12       1.0  0.83810  0.59250  0.62070  1.0000
  C   C5        1.0  0.22360  0.53270  0.31630  1.0000
  C   C6        1.0  0.77640  0.46730  0.68370  1.0000
  H   H13       1.0  0.15830  0.57140  0.28120  1.0000
  H   H14       1.0  0.84170  0.42860  0.71880  1.0000
  C   C7        1.0  0.31670  0.57080  0.30990  1.0000
  C   C8        1.0  0.68330  0.42920  0.69010  1.0000
  C   C9        1.0  0.41040  0.52000  0.36110  1.0000
  C   C10       1.0  0.58960  0.48000  0.63890  1.0000
  H   H15       1.0  0.47350  0.54950  0.35600  1.0000
  H   H16       1.0  0.52650  0.45050  0.64400  1.0000
  C   C11       1.0  0.41220  0.42400  0.42120  1.0000
  C   C12       1.0  0.58780  0.57600  0.57880  1.0000
  H   H17       1.0  0.47710  0.38790  0.45800  1.0000
  H   H18       1.0  0.52290  0.61210  0.54200  1.0000
  C   C13       1.0  0.76620  0.02550  0.73640  1.0000
  C   C14       1.0  0.23380  0.97450  0.26360  1.0000
  C   C15       1.0  0.72430  0.10890  0.76180  1.0000
  C   C16       1.0  0.27570  0.89110  0.23820  1.0000
  H   H19       1.0  0.68830  0.16980  0.71790  1.0000
  H   H20       1.0  0.31170  0.83020  0.28210  1.0000
  C   C17       1.0  0.73460  0.10390  0.85050  1.0000
  C   C18       1.0  0.26540  0.89610  0.14950  1.0000
  H   H21       1.0  0.70470  0.16040  0.86780  1.0000
  H   H22       1.0  0.29530  0.83960  0.13220  1.0000
  C   C19       1.0  0.78840  0.01630  0.91280  1.0000
  C   C20       1.0  0.21160  0.98370  0.08720  1.0000
  C   C21       1.0  0.83280  0.93340  0.88970  1.0000
  C   C22       1.0  0.16720  0.06660  0.11030  1.0000
  H   H23       1.0  0.87130  0.87380  0.93380  1.0000
  H   H24       1.0  0.12870  0.12620  0.06620  1.0000
  C   C23       1.0  0.82050  0.93800  0.80140  1.0000
  C   C24       1.0  0.17950  0.06200  0.19860  1.0000
  H   H25       1.0  0.84950  0.88050  0.78520  1.0000
  H   H26       1.0  0.15050  0.11950  0.21480  1.0000
  C   C25       1.0  0.63310  0.17950  0.18200  1.0000
  C   C26       1.0  0.36690  0.82050  0.81800  1.0000
  C   C27       1.0  0.61360  0.28340  0.15860  1.0000
  C   C28       1.0  0.38640  0.71660  0.84140  1.0000
  H   H27       1.0  0.62650  0.31170  0.20260  1.0000
  H   H28       1.0  0.37350  0.68830  0.79740  1.0000
  C   C29       1.0  0.57570  0.34630  0.07270  1.0000
  C   C30       1.0  0.42430  0.65370  0.92730  1.0000
  H   H29       1.0  0.56200  0.41700  0.05770  1.0000
  H   H30       1.0  0.43800  0.58300  0.94230  1.0000
  C   C31       1.0  0.55850  0.30440  0.00970  1.0000
  C   C32       1.0  0.44150  0.69560  0.99030  1.0000
  C   C33       1.0  0.57820  0.20380  0.02910  1.0000
  C   C34       1.0  0.42180  0.79620  0.97090  1.0000
  H   H31       1.0  0.56650  0.17660  0.98400  1.0000
  H   H32       1.0  0.43350  0.82340  0.01600  1.0000
  C   C35       1.0  0.61570  0.14090  0.11540  1.0000
  C   C36       1.0  0.38430  0.85910  0.88460  1.0000
  H   H33       1.0  0.62970  0.07040  0.12920  1.0000
  H   H34       1.0  0.37030  0.92960  0.87080  1.0000
  C   C37       1.0  0.90960  0.98090  0.21340  1.0000
  C   C38       1.0  0.09040  0.01910  0.78660  1.0000
  H   H35       1.0  0.89260  0.02720  0.15150  1.0000
  H   H36       1.0  0.10740  0.97280  0.84850  1.0000
  H   H37       1.0  0.86370  0.93030  0.22700  1.0000
  H   H38       1.0  0.13630  0.06970  0.77300  1.0000
  H   H39       1.0  0.98830  0.94780  0.21980  1.0000
  H   H40       1.0  0.01170  0.05220  0.78020  1.0000
  C   C39       1.0  0.92150  0.66980  0.39910  1.0000
  C   C40       1.0  0.07850  0.33020  0.60090  1.0000
  H   H41       1.0  0.89600  0.60640  0.41680  1.0000
  H   H42       1.0  0.10400  0.39360  0.58320  1.0000
  H   H43       1.0  0.00200  0.65710  0.39210  1.0000
  H   H44       1.0  0.99800  0.34290  0.60790  1.0000
  H   H45       1.0  0.88450  0.71520  0.34170  1.0000
  H   H46       1.0  0.11550  0.28480  0.65830  1.0000
  C   C41       1.0  0.20510  0.70280  0.47470  1.0000
  C   C42       1.0  0.79490  0.29720  0.52530  1.0000
  H   H47       1.0  0.27640  0.69680  0.44530  1.0000
  H   H48       1.0  0.72360  0.30320  0.55470  1.0000
  H   H49       1.0  0.16520  0.65360  0.46810  1.0000
  H   H50       1.0  0.83480  0.34640  0.53190  1.0000
  H   H51       1.0  0.21830  0.69050  0.53880  1.0000
  H   H52       1.0  0.78170  0.30950  0.46120  1.0000
