data_image0
_chemical_formula_structural       Nb6Cl12K2O8H4O2H2O2H2O2H2F6C4H2C2H2C4H2C2H2C4H2C2H2C4H2C2H2C4H2C2H2C4H2C2H2C2H6C2H6C2H6
_chemical_formula_sum              "Nb6 Cl12 K2 O14 H52 F6 C42"
_cell_length_a       12.3048
_cell_length_b       14.4303
_cell_length_c       15.821
_cell_angle_alpha    70.314
_cell_angle_beta     88.231
_cell_angle_gamma    78.354

_space_group_name_H-M_alt    "P 1"
_space_group_IT_number       1

loop_
  _space_group_symop_operation_xyz
  'x, y, z'

loop_
  _atom_site_type_symbol
  _atom_site_label
  _atom_site_symmetry_multiplicity
  _atom_site_fract_x
  _atom_site_fract_y
  _atom_site_fract_z
  _atom_site_occupancy
  Nb  Nb1       1.0  0.58131  0.55980  0.38327  1.0000
  Nb  Nb2       1.0  0.41869  0.44020  0.61673  1.0000
  Nb  Nb3       1.0  0.37432  0.48537  0.42370  1.0000
  Nb  Nb4       1.0  0.62568  0.51463  0.57630  1.0000
  Nb  Nb5       1.0  0.58485  0.35458  0.51071  1.0000
  Nb  Nb6       1.0  0.41515  0.64542  0.48929  1.0000
  Cl  Cl1       1.0  0.45015  0.31296  0.42457  1.0000
  Cl  Cl2       1.0  0.54985  0.68704  0.57543  1.0000
  Cl  Cl3       1.0  0.25356  0.65516  0.39389  1.0000
  Cl  Cl4       1.0  0.74644  0.34484  0.60611  1.0000
  Cl  Cl5       1.0  0.69496  0.40082  0.37493  1.0000
  Cl  Cl6       1.0  0.30504  0.59918  0.62507  1.0000
  Cl  Cl7       1.0  0.49744  0.73880  0.35182  1.0000
  Cl  Cl8       1.0  0.50256  0.26120  0.64818  1.0000
  Cl  Cl9       1.0  0.74628  0.58579  0.45244  1.0000
  Cl  Cl10      1.0  0.25372  0.41421  0.54756  1.0000
  Cl  Cl11      1.0  0.44825  0.55144  0.27384  1.0000
  Cl  Cl12      1.0  0.55175  0.44856  0.72616  1.0000
  K   K1        1.0  0.05678  0.61356  0.53447  1.0000
  K   K2        1.0  0.94322  0.38644  0.46553  1.0000
  O   O1        1.0  0.67094  0.62094  0.26422  1.0000
  O   O2        1.0  0.32906  0.37906  0.73578  1.0000
  O   O3        1.0  0.23942  0.46727  0.34877  1.0000
  O   O4        1.0  0.76058  0.53273  0.65123  1.0000
  O   O5        1.0  0.67852  0.20828  0.51677  1.0000
  O   O6        1.0  0.32148  0.79172  0.48323  1.0000
  O   O7        1.0  0.96723  0.44315  0.61204  1.0000
  O   O8        1.0  0.03277  0.55685  0.38796  1.0000
  H   H1        1.0  0.00930  0.44290  0.65380  1.0000
  H   H2        1.0  0.99070  0.55710  0.34620  1.0000
  H   H3        1.0  0.90280  0.46890  0.62410  1.0000
  H   H4        1.0  0.09720  0.53110  0.37590  1.0000
  O   O9        1.0  0.11340  0.46640  0.72722  1.0000
  O   O10       1.0  0.88660  0.53360  0.27278  1.0000
  H   H5        1.0  0.11910  0.40510  0.75710  1.0000
  H   H6        1.0  0.88090  0.59490  0.24290  1.0000
  O   O11       1.0  0.10340  0.79030  0.53040  1.0000
  O   O12       1.0  0.89660  0.20970  0.46960  1.0000
  H   H7        1.0  0.16660  0.79790  0.51140  1.0000
  H   H8        1.0  0.83340  0.20210  0.48860  1.0000
  O   O13       1.0  0.85810  0.70300  0.56870  1.0000
  O   O14       1.0  0.14190  0.29700  0.43130  1.0000
  H   H9        1.0  0.81580  0.66240  0.58980  1.0000
  H   H10       1.0  0.18420  0.33760  0.41020  1.0000
  F   F1        1.0  0.51350  0.86720  0.92596  1.0000
  F   F2        1.0  0.48650  0.13280  0.07404  1.0000
  F   F3        1.0  0.20370  0.49196  0.99654  1.0000
  F   F4        1.0  0.79630  0.50804  0.00346  1.0000
  F   F5        1.0  0.67730  0.83250  0.75630  1.0000
  F   F6        1.0  0.32270  0.16750  0.24370  1.0000
  C   C1        1.0  0.63280  0.68100  0.18130  1.0000
  C   C2        1.0  0.36720  0.31900  0.81870  1.0000
  C   C3        1.0  0.61150  0.78570  0.15780  1.0000
  C   C4        1.0  0.38850  0.21430  0.84220  1.0000
  H   H11       1.0  0.62390  0.81480  0.20130  1.0000
  H   H12       1.0  0.37610  0.18520  0.79870  1.0000
  C   C5        1.0  0.57260  0.84770  0.07170  1.0000
  C   C6        1.0  0.42740  0.15230  0.92830  1.0000
  H   H13       1.0  0.55860  0.91880  0.05610  1.0000
  H   H14       1.0  0.44140  0.08120  0.94390  1.0000
  C   C7        1.0  0.55480  0.80510  0.01040  1.0000
  C   C8        1.0  0.44520  0.19490  0.98960  1.0000
  C   C9        1.0  0.57540  0.70350  0.02910  1.0000
  C   C10       1.0  0.42460  0.29650  0.97090  1.0000
  H   H15       1.0  0.56300  0.67600  0.98440  1.0000
  H   H16       1.0  0.43700  0.32400  0.01560  1.0000
  C   C11       1.0  0.61500  0.64110  0.11520  1.0000
  C   C12       1.0  0.38500  0.35890  0.88480  1.0000
  H   H17       1.0  0.63010  0.57030  0.12910  1.0000
  H   H18       1.0  0.36990  0.42970  0.87090  1.0000
  C   C13       1.0  0.23300  0.47420  0.26181  1.0000
  C   C14       1.0  0.76700  0.52580  0.73819  1.0000
  C   C15       1.0  0.27820  0.39220  0.23440  1.0000
  C   C16       1.0  0.72180  0.60780  0.76560  1.0000
  H   H19       1.0  0.31550  0.33140  0.27770  1.0000
  H   H20       1.0  0.68450  0.66860  0.72230  1.0000
  C   C17       1.0  0.26960  0.39780  0.14580  1.0000
  C   C18       1.0  0.73040  0.60220  0.85420  1.0000
  H   H21       1.0  0.30160  0.34200  0.12800  1.0000
  H   H22       1.0  0.69840  0.65800  0.87200  1.0000
  C   C19       1.0  0.21390  0.48560  0.08410  1.0000
  C   C20       1.0  0.78610  0.51440  0.91590  1.0000
  C   C21       1.0  0.16550  0.56690  0.10820  1.0000
  C   C22       1.0  0.83450  0.43310  0.89180  1.0000
  H   H23       1.0  0.12510  0.62610  0.06480  1.0000
  H   H24       1.0  0.87490  0.37390  0.93520  1.0000
  C   C23       1.0  0.17630  0.56160  0.19720  1.0000
  C   C24       1.0  0.82370  0.43840  0.80280  1.0000
  H   H25       1.0  0.14470  0.61830  0.21400  1.0000
  H   H26       1.0  0.85530  0.38170  0.78600  1.0000
  C   C25       1.0  0.67750  0.11560  0.57370  1.0000
  C   C26       1.0  0.32250  0.88440  0.42630  1.0000
  C   C27       1.0  0.77240  0.05900  0.62780  1.0000
  C   C28       1.0  0.22760  0.94100  0.37220  1.0000
  H   H27       1.0  0.83740  0.08620  0.62320  1.0000
  H   H28       1.0  0.16260  0.91380  0.37680  1.0000
  C   C29       1.0  0.77160  0.96280  0.68830  1.0000
  C   C30       1.0  0.22840  0.03720  0.31170  1.0000
  H   H29       1.0  0.83610  0.92410  0.72440  1.0000
  H   H30       1.0  0.16390  0.07590  0.27560  1.0000
  C   C31       1.0  0.67770  0.92530  0.69510  1.0000
  C   C32       1.0  0.32230  0.07470  0.30490  1.0000
  C   C33       1.0  0.58540  0.97630  0.64280  1.0000
  C   C34       1.0  0.41460  0.02370  0.35720  1.0000
  H   H31       1.0  0.52140  0.94760  0.64790  1.0000
  H   H32       1.0  0.47860  0.05240  0.35210  1.0000
  C   C35       1.0  0.58540  0.07210  0.58120  1.0000
  C   C36       1.0  0.41460  0.92790  0.41880  1.0000
  H   H33       1.0  0.52110  0.10810  0.54370  1.0000
  H   H34       1.0  0.47890  0.89190  0.45630  1.0000
  C   C37       1.0  0.09210  0.52290  0.78490  1.0000
  C   C38       1.0  0.90790  0.47710  0.21510  1.0000
  H   H35       1.0  0.10920  0.47820  0.84720  1.0000
  H   H36       1.0  0.89080  0.52180  0.15280  1.0000
  H   H37       1.0  0.01360  0.55630  0.77820  1.0000
  H   H38       1.0  0.98640  0.44370  0.22180  1.0000
  H   H39       1.0  0.13850  0.57360  0.76970  1.0000
  H   H40       1.0  0.86150  0.42640  0.23030  1.0000
  C   C39       1.0  0.07680  0.83680  0.59560  1.0000
  C   C40       1.0  0.92320  0.16320  0.40440  1.0000
  H   H41       1.0  0.10330  0.90000  0.57740  1.0000
  H   H42       1.0  0.89670  0.10000  0.42260  1.0000
  H   H43       1.0  0.11250  0.79210  0.65350  1.0000
  H   H44       1.0  0.88750  0.20790  0.34650  1.0000
  H   H45       1.0  0.99610  0.85050  0.60130  1.0000
  H   H46       1.0  0.00390  0.14950  0.39870  1.0000
  C   C41       1.0  0.79470  0.79870  0.52510  1.0000
  C   C42       1.0  0.20530  0.20130  0.47490  1.0000
  H   H47       1.0  0.72470  0.80750  0.55550  1.0000
  H   H48       1.0  0.27530  0.19250  0.44450  1.0000
  H   H49       1.0  0.77880  0.80620  0.46250  1.0000
  H   H50       1.0  0.22120  0.19380  0.53750  1.0000
  H   H51       1.0  0.83600  0.84950  0.52660  1.0000
  H   H52       1.0  0.16400  0.15050  0.47340  1.0000
