data_image0
_chemical_formula_structural       Cd4C16O8C4N8C4O4C16H8O8C4O4C4H8C16H16C8H8C8H8C8H20
_chemical_formula_sum              "Cd4 C88 O24 N8 H68"
_cell_length_a       16.8094
_cell_length_b       14.4553
_cell_length_c       10.4397
_cell_angle_alpha    90
_cell_angle_beta     90
_cell_angle_gamma    90

_space_group_name_H-M_alt    "P 1"
_space_group_IT_number       1

loop_
  _space_group_symop_operation_xyz
  'x, y, z'

loop_
  _atom_site_type_symbol
  _atom_site_label
  _atom_site_symmetry_multiplicity
  _atom_site_fract_x
  _atom_site_fract_y
  _atom_site_fract_z
  _atom_site_occupancy
  Cd  Cd1       1.0  0.41164  0.25000  0.04604  1.0000
  Cd  Cd2       1.0  0.08836  0.75000  0.54604  1.0000
  Cd  Cd3       1.0  0.58836  0.75000  0.95396  1.0000
  Cd  Cd4       1.0  0.91164  0.25000  0.45396  1.0000
  C   C1        1.0  0.59480  0.25000  0.42400  1.0000
  C   C2        1.0  0.90520  0.75000  0.92400  1.0000
  C   C3        1.0  0.40520  0.75000  0.57600  1.0000
  C   C4        1.0  0.09480  0.25000  0.07600  1.0000
  C   C5        1.0  0.46600  0.25000  0.52050  1.0000
  C   C6        1.0  0.03400  0.75000  0.02050  1.0000
  C   C7        1.0  0.53400  0.75000  0.47950  1.0000
  C   C8        1.0  0.96600  0.25000  0.97950  1.0000
  C   C9        1.0  0.58240  0.25000  0.65270  1.0000
  C   C10       1.0  0.91760  0.75000  0.15270  1.0000
  C   C11       1.0  0.41760  0.75000  0.34730  1.0000
  C   C12       1.0  0.08240  0.25000  0.84730  1.0000
  C   C13       1.0  0.62900  0.25000  0.54610  1.0000
  C   C14       1.0  0.87100  0.75000  0.04610  1.0000
  C   C15       1.0  0.37100  0.75000  0.45390  1.0000
  C   C16       1.0  0.12900  0.25000  0.95390  1.0000
  O   O1        1.0  0.40130  0.25000  0.27380  1.0000
  O   O2        1.0  0.09870  0.75000  0.77380  1.0000
  O   O3        1.0  0.59870  0.75000  0.72620  1.0000
  O   O4        1.0  0.90130  0.25000  0.22620  1.0000
  O   O5        1.0  0.51970  0.25000  0.18450  1.0000
  O   O6        1.0  0.98030  0.75000  0.68450  1.0000
  O   O7        1.0  0.48030  0.75000  0.81550  1.0000
  O   O8        1.0  0.01970  0.25000  0.31550  1.0000
  C   C17       1.0  0.71860  0.25000  0.55880  1.0000
  C   C18       1.0  0.78140  0.75000  0.05880  1.0000
  C   C19       1.0  0.28140  0.75000  0.44120  1.0000
  C   C20       1.0  0.21860  0.25000  0.94120  1.0000
  N   N1        1.0  0.38210  0.09430  0.03800  1.0000
  N   N2        1.0  0.11790  0.90570  0.53800  1.0000
  N   N3        1.0  0.61790  0.59430  0.96200  1.0000
  N   N4        1.0  0.88210  0.40570  0.46200  1.0000
  N   N5        1.0  0.61790  0.90570  0.96200  1.0000
  N   N6        1.0  0.88210  0.09430  0.46200  1.0000
  N   N7        1.0  0.38210  0.40570  0.03800  1.0000
  N   N8        1.0  0.11790  0.59430  0.53800  1.0000
  C   C21       1.0  0.47480  0.25000  0.28230  1.0000
  C   C22       1.0  0.02520  0.75000  0.78230  1.0000
  C   C23       1.0  0.52520  0.75000  0.71770  1.0000
  C   C24       1.0  0.97480  0.25000  0.21770  1.0000
  O   O9        1.0  0.76240  0.25000  0.47180  1.0000
  O   O10       1.0  0.73760  0.75000  0.97180  1.0000
  O   O11       1.0  0.23760  0.75000  0.52820  1.0000
  O   O12       1.0  0.26240  0.25000  0.02820  1.0000
  C   C25       1.0  0.51350  0.25000  0.41220  1.0000
  C   C26       1.0  0.98650  0.75000  0.91220  1.0000
  C   C27       1.0  0.48650  0.75000  0.58780  1.0000
  C   C28       1.0  0.01350  0.25000  0.08780  1.0000
  C   C29       1.0  0.44860  0.25000  0.75810  1.0000
  C   C30       1.0  0.05140  0.75000  0.25810  1.0000
  C   C31       1.0  0.55140  0.75000  0.24190  1.0000
  C   C32       1.0  0.94860  0.25000  0.74190  1.0000
  C   C33       1.0  0.40040  0.03940  0.94340  1.0000
  C   C34       1.0  0.09960  0.96060  0.44340  1.0000
  C   C35       1.0  0.59960  0.53940  0.05660  1.0000
  C   C36       1.0  0.90040  0.46060  0.55660  1.0000
  C   C37       1.0  0.59960  0.96060  0.05660  1.0000
  C   C38       1.0  0.90040  0.03940  0.55660  1.0000
  C   C39       1.0  0.40040  0.46060  0.94340  1.0000
  C   C40       1.0  0.09960  0.53940  0.44340  1.0000
  H   H1        1.0  0.43970  0.05890  0.88670  1.0000
  H   H2        1.0  0.06030  0.94110  0.38670  1.0000
  H   H3        1.0  0.56030  0.55890  0.11330  1.0000
  H   H4        1.0  0.93970  0.44110  0.61330  1.0000
  H   H5        1.0  0.56030  0.94110  0.11330  1.0000
  H   H6        1.0  0.93970  0.05890  0.61330  1.0000
  H   H7        1.0  0.43970  0.44110  0.88670  1.0000
  H   H8        1.0  0.06030  0.55890  0.38670  1.0000
  O   O13       1.0  0.48210  0.25000  0.86510  1.0000
  O   O14       1.0  0.01790  0.75000  0.36510  1.0000
  O   O15       1.0  0.51790  0.75000  0.13490  1.0000
  O   O16       1.0  0.98210  0.25000  0.63490  1.0000
  O   O17       1.0  0.37550  0.25000  0.74200  1.0000
  O   O18       1.0  0.12450  0.75000  0.24200  1.0000
  O   O19       1.0  0.62450  0.75000  0.25800  1.0000
  O   O20       1.0  0.87550  0.25000  0.75800  1.0000
  C   C41       1.0  0.49990  0.25000  0.64110  1.0000
  C   C42       1.0  0.00010  0.75000  0.14110  1.0000
  C   C43       1.0  0.50010  0.75000  0.35890  1.0000
  C   C44       1.0  0.99990  0.25000  0.85890  1.0000
  O   O21       1.0  0.74070  0.25000  0.67570  1.0000
  O   O22       1.0  0.75930  0.75000  0.17570  1.0000
  O   O23       1.0  0.25930  0.75000  0.32430  1.0000
  O   O24       1.0  0.24070  0.25000  0.82430  1.0000
  C   C45       1.0  0.31440  0.75000  0.99870  1.0000
  C   C46       1.0  0.18560  0.25000  0.49870  1.0000
  C   C47       1.0  0.68560  0.25000  0.00130  1.0000
  C   C48       1.0  0.81440  0.75000  0.50130  1.0000
  H   H9        1.0  0.35970  0.75000  0.94120  1.0000
  H   H10       1.0  0.14030  0.25000  0.44120  1.0000
  H   H11       1.0  0.64030  0.25000  0.05880  1.0000
  H   H12       1.0  0.85970  0.75000  0.55880  1.0000
  H   H13       1.0  0.33420  0.75000  0.08600  1.0000
  H   H14       1.0  0.16580  0.25000  0.58600  1.0000
  H   H15       1.0  0.66580  0.25000  0.91400  1.0000
  H   H16       1.0  0.83420  0.75000  0.41400  1.0000
  C   C49       1.0  0.30860  0.92340  0.99910  1.0000
  C   C50       1.0  0.19140  0.07660  0.49910  1.0000
  C   C51       1.0  0.69140  0.42340  0.00090  1.0000
  C   C52       1.0  0.80860  0.57660  0.50090  1.0000
  C   C53       1.0  0.69140  0.07660  0.00090  1.0000
  C   C54       1.0  0.80860  0.92340  0.50090  1.0000
  C   C55       1.0  0.30860  0.57660  0.99910  1.0000
  C   C56       1.0  0.19140  0.42340  0.49910  1.0000
  C   C57       1.0  0.26400  0.83610  0.97560  1.0000
  C   C58       1.0  0.23600  0.16390  0.47560  1.0000
  C   C59       1.0  0.73600  0.33610  0.02440  1.0000
  C   C60       1.0  0.76400  0.66390  0.52440  1.0000
  C   C61       1.0  0.73600  0.16390  0.02440  1.0000
  C   C62       1.0  0.76400  0.83610  0.52440  1.0000
  C   C63       1.0  0.26400  0.66390  0.97560  1.0000
  C   C64       1.0  0.23600  0.33610  0.47560  1.0000
  H   H17       1.0  0.24510  0.83560  0.88790  1.0000
  H   H18       1.0  0.25490  0.16440  0.38790  1.0000
  H   H19       1.0  0.75490  0.33560  0.11210  1.0000
  H   H20       1.0  0.74510  0.66440  0.61210  1.0000
  H   H21       1.0  0.75490  0.16440  0.11210  1.0000
  H   H22       1.0  0.74510  0.83560  0.61210  1.0000
  H   H23       1.0  0.24510  0.66440  0.88790  1.0000
  H   H24       1.0  0.25490  0.33560  0.38790  1.0000
  H   H25       1.0  0.21800  0.83420  0.03150  1.0000
  H   H26       1.0  0.28200  0.16580  0.53150  1.0000
  H   H27       1.0  0.78200  0.33420  0.96850  1.0000
  H   H28       1.0  0.71800  0.66580  0.46850  1.0000
  H   H29       1.0  0.78200  0.16580  0.96850  1.0000
  H   H30       1.0  0.71800  0.83420  0.46850  1.0000
  H   H31       1.0  0.21800  0.66580  0.03150  1.0000
  H   H32       1.0  0.28200  0.33420  0.53150  1.0000
  C   C65       1.0  0.36660  0.95710  0.92210  1.0000
  C   C66       1.0  0.13340  0.04290  0.42210  1.0000
  C   C67       1.0  0.63340  0.45710  0.07790  1.0000
  C   C68       1.0  0.86660  0.54290  0.57790  1.0000
  C   C69       1.0  0.63340  0.04290  0.07790  1.0000
  C   C70       1.0  0.86660  0.95710  0.57790  1.0000
  C   C71       1.0  0.36660  0.54290  0.92210  1.0000
  C   C72       1.0  0.13340  0.45710  0.42210  1.0000
  H   H33       1.0  0.38340  0.92210  0.85250  1.0000
  H   H34       1.0  0.11660  0.07790  0.35250  1.0000
  H   H35       1.0  0.61660  0.42210  0.14750  1.0000
  H   H36       1.0  0.88340  0.57790  0.64750  1.0000
  H   H37       1.0  0.61660  0.07790  0.14750  1.0000
  H   H38       1.0  0.88340  0.92210  0.64750  1.0000
  H   H39       1.0  0.38340  0.57790  0.85250  1.0000
  H   H40       1.0  0.11660  0.42210  0.35250  1.0000
  C   C73       1.0  0.29250  0.97800  0.10250  1.0000
  C   C74       1.0  0.20750  0.02200  0.60250  1.0000
  C   C75       1.0  0.70750  0.47800  0.89750  1.0000
  C   C76       1.0  0.79250  0.52200  0.39750  1.0000
  C   C77       1.0  0.70750  0.02200  0.89750  1.0000
  C   C78       1.0  0.79250  0.97800  0.39750  1.0000
  C   C79       1.0  0.29250  0.52200  0.10250  1.0000
  C   C80       1.0  0.20750  0.47800  0.60250  1.0000
  H   H41       1.0  0.25570  0.95810  0.16320  1.0000
  H   H42       1.0  0.24430  0.04190  0.66320  1.0000
  H   H43       1.0  0.74430  0.45810  0.83680  1.0000
  H   H44       1.0  0.75570  0.54190  0.33680  1.0000
  H   H45       1.0  0.74430  0.04190  0.83680  1.0000
  H   H46       1.0  0.75570  0.95810  0.33680  1.0000
  H   H47       1.0  0.25570  0.54190  0.16320  1.0000
  H   H48       1.0  0.24430  0.45810  0.66320  1.0000
  C   C81       1.0  0.32920  0.06060  0.11800  1.0000
  C   C82       1.0  0.17080  0.93940  0.61800  1.0000
  C   C83       1.0  0.67080  0.56060  0.88200  1.0000
  C   C84       1.0  0.82920  0.43940  0.38200  1.0000
  C   C85       1.0  0.67080  0.93940  0.88200  1.0000
  C   C86       1.0  0.82920  0.06060  0.38200  1.0000
  C   C87       1.0  0.32920  0.43940  0.11800  1.0000
  C   C88       1.0  0.17080  0.56060  0.61800  1.0000
  H   H49       1.0  0.39500  0.25000  0.52300  1.0000
  H   H50       1.0  0.10500  0.75000  0.02300  1.0000
  H   H51       1.0  0.60500  0.75000  0.47700  1.0000
  H   H52       1.0  0.89500  0.25000  0.97700  1.0000
  H   H53       1.0  0.62800  0.25000  0.34900  1.0000
  H   H54       1.0  0.87200  0.75000  0.84900  1.0000
  H   H55       1.0  0.37200  0.75000  0.65100  1.0000
  H   H56       1.0  0.12800  0.25000  0.15100  1.0000
  H   H57       1.0  0.61200  0.25000  0.74000  1.0000
  H   H58       1.0  0.88800  0.75000  0.24000  1.0000
  H   H59       1.0  0.38800  0.75000  0.26000  1.0000
  H   H60       1.0  0.11200  0.25000  0.76000  1.0000
  H   H61       1.0  0.33100  0.08500  0.20300  1.0000
  H   H62       1.0  0.16900  0.91500  0.70300  1.0000
  H   H63       1.0  0.66900  0.58500  0.79700  1.0000
  H   H64       1.0  0.83100  0.41500  0.29700  1.0000
  H   H65       1.0  0.66900  0.91500  0.79700  1.0000
  H   H66       1.0  0.83100  0.08500  0.29700  1.0000
  H   H67       1.0  0.33100  0.41500  0.20300  1.0000
  H   H68       1.0  0.16900  0.58500  0.70300  1.0000
