data_image0
_chemical_formula_structural       Ga6Na6C6O6C6O6C6O6C6O6C6O12C6O36
_chemical_formula_sum              "Ga6 Na6 C36 O72"
_cell_length_a       16.9345
_cell_length_b       16.9345
_cell_length_c       12.5763
_cell_angle_alpha    90
_cell_angle_beta     90
_cell_angle_gamma    120

_space_group_name_H-M_alt    "P 1"
_space_group_IT_number       1

loop_
  _space_group_symop_operation_xyz
  'x, y, z'

loop_
  _atom_site_type_symbol
  _atom_site_label
  _atom_site_symmetry_multiplicity
  _atom_site_fract_x
  _atom_site_fract_y
  _atom_site_fract_z
  _atom_site_occupancy
  Ga  Ga1       1.0  0.67060  0.66190  0.24892  1.0000
  Ga  Ga2       1.0  0.33810  0.00870  0.24892  1.0000
  Ga  Ga3       1.0  0.99130  0.32940  0.24892  1.0000
  Ga  Ga4       1.0  0.33810  0.32940  0.74892  1.0000
  Ga  Ga5       1.0  0.99130  0.66190  0.74892  1.0000
  Ga  Ga6       1.0  0.67060  0.00870  0.74892  1.0000
  Na  Na1       1.0  0.32870  0.33730  0.25140  1.0000
  Na  Na2       1.0  0.66270  0.99140  0.25140  1.0000
  Na  Na3       1.0  0.00860  0.67130  0.25140  1.0000
  Na  Na4       1.0  0.66270  0.67130  0.75140  1.0000
  Na  Na5       1.0  0.00860  0.33730  0.75140  1.0000
  Na  Na6       1.0  0.32870  0.99140  0.75140  1.0000
  C   C1        1.0  0.81380  0.63500  0.29730  1.0000
  C   C2        1.0  0.36500  0.17880  0.29730  1.0000
  C   C3        1.0  0.82120  0.18620  0.29730  1.0000
  C   C4        1.0  0.36500  0.18620  0.79730  1.0000
  C   C5        1.0  0.82120  0.63500  0.79730  1.0000
  C   C6        1.0  0.81380  0.17880  0.79730  1.0000
  O   O1        1.0  0.72089  0.77470  0.33310  1.0000
  O   O2        1.0  0.22530  0.94619  0.33310  1.0000
  O   O3        1.0  0.05381  0.27911  0.33310  1.0000
  O   O4        1.0  0.22530  0.27911  0.83310  1.0000
  O   O5        1.0  0.05381  0.77470  0.83310  1.0000
  O   O6        1.0  0.72089  0.94619  0.83310  1.0000
  C   C7        1.0  0.84340  0.69550  0.19620  1.0000
  C   C8        1.0  0.30450  0.14790  0.19620  1.0000
  C   C9        1.0  0.85210  0.15660  0.19620  1.0000
  C   C10       1.0  0.30450  0.15660  0.69620  1.0000
  C   C11       1.0  0.85210  0.69550  0.69620  1.0000
  C   C12       1.0  0.84340  0.14790  0.69620  1.0000
  O   O7        1.0  0.71220  0.90160  0.34170  1.0000
  O   O8        1.0  0.09840  0.81060  0.34170  1.0000
  O   O9        1.0  0.18940  0.28780  0.34170  1.0000
  O   O10       1.0  0.09840  0.28780  0.84170  1.0000
  O   O11       1.0  0.18940  0.90160  0.84170  1.0000
  O   O12       1.0  0.71220  0.81060  0.84170  1.0000
  C   C13       1.0  0.69590  0.82980  0.29950  1.0000
  C   C14       1.0  0.17020  0.86610  0.29950  1.0000
  C   C15       1.0  0.13390  0.30410  0.29950  1.0000
  C   C16       1.0  0.17020  0.30410  0.79950  1.0000
  C   C17       1.0  0.13390  0.82980  0.79950  1.0000
  C   C18       1.0  0.69590  0.86610  0.79950  1.0000
  O   O13       1.0  0.61830  0.72224  0.16200  1.0000
  O   O14       1.0  0.27776  0.89606  0.16200  1.0000
  O   O15       1.0  0.10394  0.38170  0.16200  1.0000
  O   O16       1.0  0.27776  0.38170  0.66200  1.0000
  O   O17       1.0  0.10394  0.72224  0.66200  1.0000
  O   O18       1.0  0.61830  0.89606  0.66200  1.0000
  C   C19       1.0  0.63980  0.80270  0.19540  1.0000
  C   C20       1.0  0.19730  0.83710  0.19540  1.0000
  C   C21       1.0  0.16290  0.36020  0.19540  1.0000
  C   C22       1.0  0.19730  0.36020  0.69540  1.0000
  C   C23       1.0  0.16290  0.80270  0.69540  1.0000
  C   C24       1.0  0.63980  0.83710  0.69540  1.0000
  O   O19       1.0  0.61840  0.85420  0.15300  1.0000
  O   O20       1.0  0.14580  0.76420  0.15300  1.0000
  O   O21       1.0  0.23580  0.38160  0.15300  1.0000
  O   O22       1.0  0.14580  0.38160  0.65300  1.0000
  O   O23       1.0  0.23580  0.85420  0.65300  1.0000
  O   O24       1.0  0.61840  0.76420  0.65300  1.0000
  C   C25       1.0  0.52250  0.49520  0.19570  1.0000
  C   C26       1.0  0.50480  0.02730  0.19570  1.0000
  C   C27       1.0  0.97270  0.47750  0.19570  1.0000
  C   C28       1.0  0.50480  0.47750  0.69570  1.0000
  C   C29       1.0  0.97270  0.49520  0.69570  1.0000
  C   C30       1.0  0.52250  0.02730  0.69570  1.0000
  O   O25       1.0  0.78060  0.70870  0.15920  1.0000
  O   O26       1.0  0.29130  0.07190  0.15920  1.0000
  O   O27       1.0  0.92810  0.21940  0.15920  1.0000
  O   O28       1.0  0.29130  0.21940  0.65920  1.0000
  O   O29       1.0  0.92810  0.70870  0.65920  1.0000
  O   O30       1.0  0.78060  0.07190  0.65920  1.0000
  O   O31       1.0  0.73560  0.61610  0.33540  1.0000
  O   O32       1.0  0.38390  0.11950  0.33540  1.0000
  O   O33       1.0  0.88050  0.26440  0.33540  1.0000
  O   O34       1.0  0.38390  0.26440  0.83540  1.0000
  O   O35       1.0  0.88050  0.61610  0.83540  1.0000
  O   O36       1.0  0.73560  0.11950  0.83540  1.0000
  C   C31       1.0  0.49750  0.52740  0.29890  1.0000
  C   C32       1.0  0.47260  0.97010  0.29890  1.0000
  C   C33       1.0  0.02990  0.50250  0.29890  1.0000
  C   C34       1.0  0.47260  0.50250  0.79890  1.0000
  C   C35       1.0  0.02990  0.52740  0.79890  1.0000
  C   C36       1.0  0.49750  0.97010  0.79890  1.0000
  O   O37       1.0  0.86380  0.60930  0.33240  1.0000
  O   O38       1.0  0.39070  0.25450  0.33240  1.0000
  O   O39       1.0  0.74550  0.13620  0.33240  1.0000
  O   O40       1.0  0.39070  0.13620  0.83240  1.0000
  O   O41       1.0  0.74550  0.60930  0.83240  1.0000
  O   O42       1.0  0.86380  0.25450  0.83240  1.0000
  O   O43       1.0  0.60509  0.54850  0.16380  1.0000
  O   O44       1.0  0.45150  0.05659  0.16380  1.0000
  O   O45       1.0  0.94341  0.39491  0.16380  1.0000
  O   O46       1.0  0.45150  0.39491  0.66380  1.0000
  O   O47       1.0  0.94341  0.54850  0.66380  1.0000
  O   O48       1.0  0.60509  0.05659  0.66380  1.0000
  O   O49       1.0  0.92030  0.72560  0.15830  1.0000
  O   O50       1.0  0.27440  0.19470  0.15830  1.0000
  O   O51       1.0  0.80530  0.07970  0.15830  1.0000
  O   O52       1.0  0.27440  0.07970  0.65830  1.0000
  O   O53       1.0  0.80530  0.72560  0.65830  1.0000
  O   O54       1.0  0.92030  0.19470  0.65830  1.0000
  O   O55       1.0  0.56160  0.60160  0.34000  1.0000
  O   O56       1.0  0.39840  0.96000  0.34000  1.0000
  O   O57       1.0  0.04000  0.43840  0.34000  1.0000
  O   O58       1.0  0.39840  0.43840  0.84000  1.0000
  O   O59       1.0  0.04000  0.60160  0.84000  1.0000
  O   O60       1.0  0.56160  0.96000  0.84000  1.0000
  O   O61       1.0  0.42050  0.48150  0.33390  1.0000
  O   O62       1.0  0.51850  0.93900  0.33390  1.0000
  O   O63       1.0  0.06100  0.57950  0.33390  1.0000
  O   O64       1.0  0.51850  0.57950  0.83390  1.0000
  O   O65       1.0  0.06100  0.48150  0.83390  1.0000
  O   O66       1.0  0.42050  0.93900  0.83390  1.0000
  O   O67       1.0  0.46620  0.42470  0.15160  1.0000
  O   O68       1.0  0.57530  0.04150  0.15160  1.0000
  O   O69       1.0  0.95850  0.53380  0.15160  1.0000
  O   O70       1.0  0.57530  0.53380  0.65160  1.0000
  O   O71       1.0  0.95850  0.42470  0.65160  1.0000
  O   O72       1.0  0.46620  0.04150  0.65160  1.0000
