data_image0
_chemical_formula_structural       Li8O24H8O8H8O24H16C16H8C8H8C8
_chemical_formula_sum              "Li8 O56 H48 C32"
_cell_length_a       18.3976
_cell_length_b       9.613
_cell_length_c       9.7919
_cell_angle_alpha    90
_cell_angle_beta     115.118
_cell_angle_gamma    90

_space_group_name_H-M_alt    "P 1"
_space_group_IT_number       1

loop_
  _space_group_symop_operation_xyz
  'x, y, z'

loop_
  _atom_site_type_symbol
  _atom_site_label
  _atom_site_symmetry_multiplicity
  _atom_site_fract_x
  _atom_site_fract_y
  _atom_site_fract_z
  _atom_site_occupancy
  Li  Li1       1.0  0.83200  0.73080  0.06540  1.0000
  Li  Li2       1.0  0.33200  0.23080  0.06540  1.0000
  Li  Li3       1.0  0.16800  0.73080  0.43460  1.0000
  Li  Li4       1.0  0.66800  0.23080  0.43460  1.0000
  Li  Li5       1.0  0.16800  0.26920  0.93460  1.0000
  Li  Li6       1.0  0.66800  0.76920  0.93460  1.0000
  Li  Li7       1.0  0.83200  0.26920  0.56540  1.0000
  Li  Li8       1.0  0.33200  0.76920  0.56540  1.0000
  O   O1        1.0  0.81767  0.44544  0.17402  1.0000
  O   O2        1.0  0.31767  0.94544  0.17402  1.0000
  O   O3        1.0  0.18233  0.44544  0.32598  1.0000
  O   O4        1.0  0.68233  0.94544  0.32598  1.0000
  O   O5        1.0  0.18233  0.55456  0.82598  1.0000
  O   O6        1.0  0.68233  0.05456  0.82598  1.0000
  O   O7        1.0  0.81767  0.55456  0.67402  1.0000
  O   O8        1.0  0.31767  0.05456  0.67402  1.0000
  O   O9        1.0  0.73933  0.61966  0.04337  1.0000
  O   O10       1.0  0.23933  0.11966  0.04337  1.0000
  O   O11       1.0  0.26067  0.61966  0.45663  1.0000
  O   O12       1.0  0.76067  0.11966  0.45663  1.0000
  O   O13       1.0  0.26067  0.38034  0.95663  1.0000
  O   O14       1.0  0.76067  0.88034  0.95663  1.0000
  O   O15       1.0  0.73933  0.38034  0.54337  1.0000
  O   O16       1.0  0.23933  0.88034  0.54337  1.0000
  O   O17       1.0  0.60907  0.52260  0.07730  1.0000
  O   O18       1.0  0.10907  0.02260  0.07730  1.0000
  O   O19       1.0  0.39093  0.52260  0.42270  1.0000
  O   O20       1.0  0.89093  0.02260  0.42270  1.0000
  O   O21       1.0  0.39093  0.47740  0.92270  1.0000
  O   O22       1.0  0.89093  0.97740  0.92270  1.0000
  O   O23       1.0  0.60907  0.47740  0.57730  1.0000
  O   O24       1.0  0.10907  0.97740  0.57730  1.0000
  H   H1        1.0  0.62000  0.60630  0.08700  1.0000
  H   H2        1.0  0.12000  0.10630  0.08700  1.0000
  H   H3        1.0  0.38000  0.60630  0.41300  1.0000
  H   H4        1.0  0.88000  0.10630  0.41300  1.0000
  H   H5        1.0  0.38000  0.39370  0.91300  1.0000
  H   H6        1.0  0.88000  0.89370  0.91300  1.0000
  H   H7        1.0  0.62000  0.39370  0.58700  1.0000
  H   H8        1.0  0.12000  0.89370  0.58700  1.0000
  O   O25       1.0  0.65073  0.30750  0.92690  1.0000
  O   O26       1.0  0.15073  0.80750  0.92690  1.0000
  O   O27       1.0  0.34927  0.30750  0.57310  1.0000
  O   O28       1.0  0.84927  0.80750  0.57310  1.0000
  O   O29       1.0  0.34927  0.69250  0.07310  1.0000
  O   O30       1.0  0.84927  0.19250  0.07310  1.0000
  O   O31       1.0  0.65073  0.69250  0.42690  1.0000
  O   O32       1.0  0.15073  0.19250  0.42690  1.0000
  H   H9        1.0  0.66100  0.23200  0.89900  1.0000
  H   H10       1.0  0.16100  0.73200  0.89900  1.0000
  H   H11       1.0  0.33900  0.23200  0.60100  1.0000
  H   H12       1.0  0.83900  0.73200  0.60100  1.0000
  H   H13       1.0  0.33900  0.76800  0.10100  1.0000
  H   H14       1.0  0.83900  0.26800  0.10100  1.0000
  H   H15       1.0  0.66100  0.76800  0.39900  1.0000
  H   H16       1.0  0.16100  0.26800  0.39900  1.0000
  O   O33       1.0  0.53847  0.18150  0.99090  1.0000
  O   O34       1.0  0.03847  0.68150  0.99090  1.0000
  O   O35       1.0  0.46153  0.18150  0.50910  1.0000
  O   O36       1.0  0.96153  0.68150  0.50910  1.0000
  O   O37       1.0  0.46153  0.81850  0.00910  1.0000
  O   O38       1.0  0.96153  0.31850  0.00910  1.0000
  O   O39       1.0  0.53847  0.81850  0.49090  1.0000
  O   O40       1.0  0.03847  0.31850  0.49090  1.0000
  O   O41       1.0  0.59327  0.24733  0.23035  1.0000
  O   O42       1.0  0.09327  0.74733  0.23035  1.0000
  O   O43       1.0  0.40673  0.24733  0.26965  1.0000
  O   O44       1.0  0.90673  0.74733  0.26965  1.0000
  O   O45       1.0  0.40673  0.75267  0.76965  1.0000
  O   O46       1.0  0.90673  0.25267  0.76965  1.0000
  O   O47       1.0  0.59327  0.75267  0.73035  1.0000
  O   O48       1.0  0.09327  0.25267  0.73035  1.0000
  O   O49       1.0  0.88603  0.68670  0.94300  1.0000
  O   O50       1.0  0.38603  0.18670  0.94300  1.0000
  O   O51       1.0  0.11397  0.68670  0.55700  1.0000
  O   O52       1.0  0.61397  0.18670  0.55700  1.0000
  O   O53       1.0  0.11397  0.31330  0.05700  1.0000
  O   O54       1.0  0.61397  0.81330  0.05700  1.0000
  O   O55       1.0  0.88603  0.31330  0.44300  1.0000
  O   O56       1.0  0.38603  0.81330  0.44300  1.0000
  H   H17       1.0  0.93420  0.68500  0.96400  1.0000
  H   H18       1.0  0.43420  0.18500  0.96400  1.0000
  H   H19       1.0  0.06580  0.68500  0.53600  1.0000
  H   H20       1.0  0.56580  0.18500  0.53600  1.0000
  H   H21       1.0  0.06580  0.31500  0.03600  1.0000
  H   H22       1.0  0.56580  0.81500  0.03600  1.0000
  H   H23       1.0  0.93420  0.31500  0.46400  1.0000
  H   H24       1.0  0.43420  0.81500  0.46400  1.0000
  H   H25       1.0  0.86090  0.64400  0.86500  1.0000
  H   H26       1.0  0.36090  0.14400  0.86500  1.0000
  H   H27       1.0  0.13910  0.64400  0.63500  1.0000
  H   H28       1.0  0.63910  0.14400  0.63500  1.0000
  H   H29       1.0  0.13910  0.35600  0.13500  1.0000
  H   H30       1.0  0.63910  0.85600  0.13500  1.0000
  H   H31       1.0  0.86090  0.35600  0.36500  1.0000
  H   H32       1.0  0.36090  0.85600  0.36500  1.0000
  C   C1        1.0  0.75130  0.50720  0.11710  1.0000
  C   C2        1.0  0.25130  0.00720  0.11710  1.0000
  C   C3        1.0  0.24870  0.50720  0.38290  1.0000
  C   C4        1.0  0.74870  0.00720  0.38290  1.0000
  C   C5        1.0  0.24870  0.49280  0.88290  1.0000
  C   C6        1.0  0.74870  0.99280  0.88290  1.0000
  C   C7        1.0  0.75130  0.49280  0.61710  1.0000
  C   C8        1.0  0.25130  0.99280  0.61710  1.0000
  C   C9        1.0  0.68242  0.44570  0.14540  1.0000
  C   C10       1.0  0.18242  0.94570  0.14540  1.0000
  C   C11       1.0  0.31758  0.44570  0.35460  1.0000
  C   C12       1.0  0.81758  0.94570  0.35460  1.0000
  C   C13       1.0  0.31758  0.55430  0.85460  1.0000
  C   C14       1.0  0.81758  0.05430  0.85460  1.0000
  C   C15       1.0  0.68242  0.55430  0.64540  1.0000
  C   C16       1.0  0.18242  0.05430  0.64540  1.0000
  H   H33       1.0  0.69900  0.44140  0.25670  1.0000
  H   H34       1.0  0.19900  0.94140  0.25670  1.0000
  H   H35       1.0  0.30100  0.44140  0.24330  1.0000
  H   H36       1.0  0.80100  0.94140  0.24330  1.0000
  H   H37       1.0  0.30100  0.55860  0.74330  1.0000
  H   H38       1.0  0.80100  0.05860  0.74330  1.0000
  H   H39       1.0  0.69900  0.55860  0.75670  1.0000
  H   H40       1.0  0.19900  0.05860  0.75670  1.0000
  C   C17       1.0  0.66433  0.29960  0.08210  1.0000
  C   C18       1.0  0.16433  0.79960  0.08210  1.0000
  C   C19       1.0  0.33567  0.29960  0.41790  1.0000
  C   C20       1.0  0.83567  0.79960  0.41790  1.0000
  C   C21       1.0  0.33567  0.70040  0.91790  1.0000
  C   C22       1.0  0.83567  0.20040  0.91790  1.0000
  C   C23       1.0  0.66433  0.70040  0.58210  1.0000
  C   C24       1.0  0.16433  0.20040  0.58210  1.0000
  H   H41       1.0  0.71250  0.24000  0.13740  1.0000
  H   H42       1.0  0.21250  0.74000  0.13740  1.0000
  H   H43       1.0  0.28750  0.24000  0.36260  1.0000
  H   H44       1.0  0.78750  0.74000  0.36260  1.0000
  H   H45       1.0  0.28750  0.76000  0.86260  1.0000
  H   H46       1.0  0.78750  0.26000  0.86260  1.0000
  H   H47       1.0  0.71250  0.76000  0.63740  1.0000
  H   H48       1.0  0.21250  0.26000  0.63740  1.0000
  C   C25       1.0  0.59297  0.23780  0.10180  1.0000
  C   C26       1.0  0.09297  0.73780  0.10180  1.0000
  C   C27       1.0  0.40703  0.23780  0.39820  1.0000
  C   C28       1.0  0.90703  0.73780  0.39820  1.0000
  C   C29       1.0  0.40703  0.76220  0.89820  1.0000
  C   C30       1.0  0.90703  0.26220  0.89820  1.0000
  C   C31       1.0  0.59297  0.76220  0.60180  1.0000
  C   C32       1.0  0.09297  0.26220  0.60180  1.0000
